MODEL 1
REMARK VINA RESULT:      -8.5      0.000      0.000
REMARK  Name = 
REMARK  1 active torsions:
REMARK  status: ('A' for Active; 'I' for Inactive)
REMARK    1  A    between atoms: N_4  and  C_5
REMARK                            x       y       z     vdW  Elec       q    Type
REMARK                         _______ _______ _______ _____ _____    ______ ____
ROOT
ATOM      1  C   UNL     1       3.684   5.673  18.350  0.00  0.00    +0.000 C 
ATOM      2  C   UNL     1       2.855   6.980  18.498  0.00  0.00    +0.000 A 
ATOM      3  C   UNL     1       2.621   7.858  17.420  0.00  0.00    +0.000 A 
ATOM      4  C   UNL     1       1.917   9.059  17.587  0.00  0.00    +0.000 A 
ATOM      5  C   UNL     1       1.335   9.350  18.812  0.00  0.00    +0.000 A 
ATOM      6 CL   UNL     1       0.404  10.784  19.005  0.00  0.00    +0.000 Cl
ATOM      7  C   UNL     1       1.485   8.471  19.880  0.00  0.00    +0.000 A 
ATOM      8  C   UNL     1       2.266   7.307  19.742  0.00  0.00    +0.000 A 
ATOM      9  C   UNL     1       2.390   6.375  20.917  0.00  0.00    +0.000 C 
ATOM     10  C   UNL     1       1.553   5.124  20.710  0.00  0.00    +0.000 C 
ATOM     11  C   UNL     1       1.925   4.165  19.603  0.00  0.00    +0.000 A 
ATOM     12  C   UNL     1       1.308   2.898  19.702  0.00  0.00    +0.000 A 
ATOM     13  C   UNL     1       1.464   1.943  18.710  0.00  0.00    +0.000 A 
ATOM     14  C   UNL     1       2.170   2.314  17.595  0.00  0.00    +0.000 A 
ATOM     15  N   UNL     1       2.751   3.525  17.447  0.00  0.00    +0.000 NA
ATOM     16  C   UNL     1       2.718   4.427  18.464  0.00  0.00    +0.000 A 
ENDROOT
BRANCH   1  20
ATOM     17  O   UNL     1       7.881   4.298  18.204  0.00  0.00    +0.000 OA
ATOM     18  C   UNL     1       7.052   5.110  17.794  0.00  0.00    +0.000 C 
ATOM     19  C   UNL     1       5.718   4.677  17.182  0.00  0.00    +0.000 C 
ATOM     20  N   UNL     1       4.614   5.684  17.156  0.00  0.00    +0.000 NA
ATOM     21  C   UNL     1       5.194   6.986  16.768  0.00  0.00    +0.000 C 
ATOM     22  C   UNL     1       6.377   7.451  17.616  0.00  0.00    +0.000 C 
ATOM     23  N   UNL     1       7.377   6.433  17.770  0.00  0.00    +0.000 N 
ATOM     24  H   UNL     1       8.271   6.652  18.191  0.00  0.00    +0.000 HD
ENDBRANCH   1  20
TORSDOF 1
ENDMDL
MODEL 2
REMARK VINA RESULT:      -8.3      1.776      4.541
REMARK  Name = 
REMARK  1 active torsions:
REMARK  status: ('A' for Active; 'I' for Inactive)
REMARK    1  A    between atoms: N_4  and  C_5
REMARK                            x       y       z     vdW  Elec       q    Type
REMARK                         _______ _______ _______ _____ _____    ______ ____
ROOT
ATOM      1  C   UNL     1       3.405   5.272  19.033  0.00  0.00    +0.000 C 
ATOM      2  C   UNL     1       2.611   6.577  19.327  0.00  0.00    +0.000 A 
ATOM      3  C   UNL     1       2.045   6.856  20.587  0.00  0.00    +0.000 A 
ATOM      4  C   UNL     1       1.286   8.012  20.815  0.00  0.00    +0.000 A 
ATOM      5  C   UNL     1       1.175   8.969  19.817  0.00  0.00    +0.000 A 
ATOM      6 CL   UNL     1       0.311  10.427  20.113  0.00  0.00    +0.000 Cl
ATOM      7  C   UNL     1       1.781   8.760  18.582  0.00  0.00    +0.000 A 
ATOM      8  C   UNL     1       2.469   7.559  18.319  0.00  0.00    +0.000 A 
ATOM      9  C   UNL     1       3.123   7.380  16.976  0.00  0.00    +0.000 C 
ATOM     10  C   UNL     1       4.632   7.530  17.081  0.00  0.00    +0.000 C 
ATOM     11  C   UNL     1       5.418   6.508  17.870  0.00  0.00    +0.000 A 
ATOM     12  C   UNL     1       6.811   6.541  17.635  0.00  0.00    +0.000 A 
ATOM     13  C   UNL     1       7.682   5.740  18.357  0.00  0.00    +0.000 A 
ATOM     14  C   UNL     1       7.140   4.982  19.363  0.00  0.00    +0.000 A 
ATOM     15  N   UNL     1       5.818   4.942  19.639  0.00  0.00    +0.000 NA
ATOM     16  C   UNL     1       4.936   5.621  18.858  0.00  0.00    +0.000 A 
ENDROOT
BRANCH   1  20
ATOM     17  O   UNL     1       3.892   0.934  18.346  0.00  0.00    +0.000 OA
ATOM     18  C   UNL     1       3.225   1.820  18.880  0.00  0.00    +0.000 C 
ATOM     19  C   UNL     1       3.850   2.880  19.789  0.00  0.00    +0.000 C 
ATOM     20  N   UNL     1       3.087   4.147  19.995  0.00  0.00    +0.000 NA
ATOM     21  C   UNL     1       1.662   3.797  20.173  0.00  0.00    +0.000 C 
ATOM     22  C   UNL     1       1.059   2.936  19.064  0.00  0.00    +0.000 C 
ATOM     23  N   UNL     1       1.868   1.792  18.756  0.00  0.00    +0.000 N 
ATOM     24  H   UNL     1       1.519   1.068  18.140  0.00  0.00    +0.000 HD
ENDBRANCH   1  20
TORSDOF 1
ENDMDL
MODEL 3
REMARK VINA RESULT:      -7.5      0.957      1.029
REMARK  Name = 
REMARK  1 active torsions:
REMARK  status: ('A' for Active; 'I' for Inactive)
REMARK    1  A    between atoms: N_4  and  C_5
REMARK                            x       y       z     vdW  Elec       q    Type
REMARK                         _______ _______ _______ _____ _____    ______ ____
ROOT
ATOM      1  C   UNL     1       3.770   6.259  18.215  0.00  0.00    +0.000 C 
ATOM      2  C   UNL     1       2.778   7.410  18.552  0.00  0.00    +0.000 A 
ATOM      3  C   UNL     1       2.412   8.397  17.615  0.00  0.00    +0.000 A 
ATOM      4  C   UNL     1       1.560   9.456  17.955  0.00  0.00    +0.000 A 
ATOM      5  C   UNL     1       0.966   9.486  19.208  0.00  0.00    +0.000 A 
ATOM      6 CL   UNL     1      -0.141  10.740  19.608  0.00  0.00    +0.000 Cl
ATOM      7  C   UNL     1       1.249   8.488  20.136  0.00  0.00    +0.000 A 
ATOM      8  C   UNL     1       2.174   7.470  19.829  0.00  0.00    +0.000 A 
ATOM      9  C   UNL     1       2.440   6.402  20.855  0.00  0.00    +0.000 C 
ATOM     10  C   UNL     1       1.771   5.095  20.466  0.00  0.00    +0.000 C 
ATOM     11  C   UNL     1       2.246   4.365  19.230  0.00  0.00    +0.000 A 
ATOM     12  C   UNL     1       1.803   3.027  19.140  0.00  0.00    +0.000 A 
ATOM     13  C   UNL     1       2.065   2.255  18.019  0.00  0.00    +0.000 A 
ATOM     14  C   UNL     1       2.696   2.876  16.972  0.00  0.00    +0.000 A 
ATOM     15  N   UNL     1       3.111   4.162  17.005  0.00  0.00    +0.000 NA
ATOM     16  C   UNL     1       2.978   4.893  18.143  0.00  0.00    +0.000 A 
ENDROOT
BRANCH   1  20
ATOM     17  O   UNL     1       6.396   3.453  16.036  0.00  0.00    +0.000 OA
ATOM     18  C   UNL     1       6.239   4.602  16.448  0.00  0.00    +0.000 C 
ATOM     19  C   UNL     1       4.981   5.417  16.138  0.00  0.00    +0.000 C 
ATOM     20  N   UNL     1       4.669   6.568  17.038  0.00  0.00    +0.000 NA
ATOM     21  C   UNL     1       5.933   7.277  17.325  0.00  0.00    +0.000 C 
ATOM     22  C   UNL     1       7.059   6.405  17.878  0.00  0.00    +0.000 C 
ATOM     23  N   UNL     1       7.265   5.217  17.100  0.00  0.00    +0.000 N 
ATOM     24  H   UNL     1       8.066   4.623  17.274  0.00  0.00    +0.000 HD
ENDBRANCH   1  20
TORSDOF 1
ENDMDL
MODEL 4
REMARK VINA RESULT:      -6.6      5.807      7.960
REMARK  Name = 
REMARK  1 active torsions:
REMARK  status: ('A' for Active; 'I' for Inactive)
REMARK    1  A    between atoms: N_4  and  C_5
REMARK                            x       y       z     vdW  Elec       q    Type
REMARK                         _______ _______ _______ _____ _____    ______ ____
ROOT
ATOM      1  C   UNL     1      -0.272  12.089  20.261  0.00  0.00    +0.000 C 
ATOM      2  C   UNL     1      -1.778  12.307  20.585  0.00  0.00    +0.000 A 
ATOM      3  C   UNL     1      -2.758  12.455  19.583  0.00  0.00    +0.000 A 
ATOM      4  C   UNL     1      -4.101  12.706  19.897  0.00  0.00    +0.000 A 
ATOM      5  C   UNL     1      -4.510  12.700  21.221  0.00  0.00    +0.000 A 
ATOM      6 CL   UNL     1      -6.169  12.930  21.613  0.00  0.00    +0.000 Cl
ATOM      7  C   UNL     1      -3.581  12.486  22.236  0.00  0.00    +0.000 A 
ATOM      8  C   UNL     1      -2.216  12.322  21.929  0.00  0.00    +0.000 A 
ATOM      9  C   UNL     1      -1.247  12.078  23.055  0.00  0.00    +0.000 C 
ATOM     10  C   UNL     1      -0.806  10.624  23.087  0.00  0.00    +0.000 C 
ATOM     11  C   UNL     1       0.015  10.080  21.940  0.00  0.00    +0.000 A 
ATOM     12  C   UNL     1       0.646   8.846  22.213  0.00  0.00    +0.000 A 
ATOM     13  C   UNL     1       1.348   8.164  21.232  0.00  0.00    +0.000 A 
ATOM     14  C   UNL     1       1.330   8.699  19.969  0.00  0.00    +0.000 A 
ATOM     15  N   UNL     1       0.715   9.861  19.659  0.00  0.00    +0.000 NA
ATOM     16  C   UNL     1       0.132  10.607  20.635  0.00  0.00    +0.000 A 
ENDROOT
BRANCH   1  20
ATOM     17  O   UNL     1       3.498  14.043  19.040  0.00  0.00    +0.000 OA
ATOM     18  C   UNL     1       2.282  13.961  18.868  0.00  0.00    +0.000 C 
ATOM     19  C   UNL     1       1.582  12.627  18.599  0.00  0.00    +0.000 C 
ATOM     20  N   UNL     1       0.116  12.552  18.873  0.00  0.00    +0.000 NA
ATOM     21  C   UNL     1      -0.504  13.801  18.383  0.00  0.00    +0.000 C 
ATOM     22  C   UNL     1       0.116  15.090  18.920  0.00  0.00    +0.000 C 
ATOM     23  N   UNL     1       1.545  15.105  18.796  0.00  0.00    +0.000 N 
ATOM     24  H   UNL     1       2.068  15.952  18.985  0.00  0.00    +0.000 HD
ENDBRANCH   1  20
TORSDOF 1
ENDMDL
MODEL 5
REMARK VINA RESULT:      -6.3      6.347      8.440
REMARK  Name = 
REMARK  1 active torsions:
REMARK  status: ('A' for Active; 'I' for Inactive)
REMARK    1  A    between atoms: N_4  and  C_5
REMARK                            x       y       z     vdW  Elec       q    Type
REMARK                         _______ _______ _______ _____ _____    ______ ____
ROOT
ATOM      1  C   UNL     1      -0.890  12.335  20.416  0.00  0.00    +0.000 C 
ATOM      2  C   UNL     1      -2.443  12.385  20.334  0.00  0.00    +0.000 A 
ATOM      3  C   UNL     1      -3.150  12.148  19.138  0.00  0.00    +0.000 A 
ATOM      4  C   UNL     1      -4.546  12.251  19.074  0.00  0.00    +0.000 A 
ATOM      5  C   UNL     1      -5.272  12.481  20.233  0.00  0.00    +0.000 A 
ATOM      6 CL   UNL     1      -6.991  12.533  20.178  0.00  0.00    +0.000 Cl
ATOM      7  C   UNL     1      -4.612  12.649  21.446  0.00  0.00    +0.000 A 
ATOM      8  C   UNL     1      -3.204  12.635  21.500  0.00  0.00    +0.000 A 
ATOM      9  C   UNL     1      -2.529  12.805  22.834  0.00  0.00    +0.000 C 
ATOM     10  C   UNL     1      -1.972  11.483  23.334  0.00  0.00    +0.000 C 
ATOM     11  C   UNL     1      -0.841  10.828  22.575  0.00  0.00    +0.000 A 
ATOM     12  C   UNL     1      -0.182   9.801  23.287  0.00  0.00    +0.000 A 
ATOM     13  C   UNL     1       0.807   9.033  22.693  0.00  0.00    +0.000 A 
ATOM     14  C   UNL     1       1.054   9.259  21.363  0.00  0.00    +0.000 A 
ATOM     15  N   UNL     1       0.427  10.211  20.638  0.00  0.00    +0.000 NA
ATOM     16  C   UNL     1      -0.451  11.058  21.237  0.00  0.00    +0.000 A 
ENDROOT
BRANCH   1  20
ATOM     17  O   UNL     1       3.219  13.777  19.668  0.00  0.00    +0.000 OA
ATOM     18  C   UNL     1       2.052  13.755  19.278  0.00  0.00    +0.000 C 
ATOM     19  C   UNL     1       1.279  12.449  19.084  0.00  0.00    +0.000 C 
ATOM     20  N   UNL     1      -0.213  12.528  19.076  0.00  0.00    +0.000 NA
ATOM     21  C   UNL     1      -0.602  13.717  18.290  0.00  0.00    +0.000 C 
ATOM     22  C   UNL     1       0.041  15.030  18.734  0.00  0.00    +0.000 C 
ATOM     23  N   UNL     1       1.463  14.921  18.890  0.00  0.00    +0.000 N 
ATOM     24  H   UNL     1       2.027  15.747  19.046  0.00  0.00    +0.000 HD
ENDBRANCH   1  20
TORSDOF 1
ENDMDL
MODEL 6
REMARK VINA RESULT:      -6.2      7.638     10.273
REMARK  Name = 
REMARK  1 active torsions:
REMARK  status: ('A' for Active; 'I' for Inactive)
REMARK    1  A    between atoms: N_4  and  C_5
REMARK                            x       y       z     vdW  Elec       q    Type
REMARK                         _______ _______ _______ _____ _____    ______ ____
ROOT
ATOM      1  C   UNL     1      -1.736  12.857  21.793  0.00  0.00    +0.000 C 
ATOM      2  C   UNL     1      -0.944  13.874  20.922  0.00  0.00    +0.000 A 
ATOM      3  C   UNL     1      -0.301  15.004  21.466  0.00  0.00    +0.000 A 
ATOM      4  C   UNL     1       0.361  15.937  20.657  0.00  0.00    +0.000 A 
ATOM      5  C   UNL     1       0.491  15.698  19.297  0.00  0.00    +0.000 A 
ATOM      6 CL   UNL     1       1.368  16.798  18.307  0.00  0.00    +0.000 Cl
ATOM      7  C   UNL     1      -0.070  14.555  18.735  0.00  0.00    +0.000 A 
ATOM      8  C   UNL     1      -0.813  13.660  19.530  0.00  0.00    +0.000 A 
ATOM      9  C   UNL     1      -1.390  12.428  18.885  0.00  0.00    +0.000 C 
ATOM     10  C   UNL     1      -0.599  11.190  19.274  0.00  0.00    +0.000 C 
ATOM     11  C   UNL     1      -0.609  10.734  20.715  0.00  0.00    +0.000 A 
ATOM     12  C   UNL     1      -0.133   9.418  20.911  0.00  0.00    +0.000 A 
ATOM     13  C   UNL     1       0.019   8.890  22.182  0.00  0.00    +0.000 A 
ATOM     14  C   UNL     1      -0.230   9.729  23.238  0.00  0.00    +0.000 A 
ATOM     15  N   UNL     1      -0.659  11.002  23.096  0.00  0.00    +0.000 NA
ATOM     16  C   UNL     1      -0.937  11.495  21.859  0.00  0.00    +0.000 A 
ENDROOT
BRANCH   1  20
ATOM     17  O   UNL     1      -5.605  12.200  23.823  0.00  0.00    +0.000 OA
ATOM     18  C   UNL     1      -4.689  12.988  23.590  0.00  0.00    +0.000 C 
ATOM     19  C   UNL     1      -3.222  12.638  23.850  0.00  0.00    +0.000 C 
ATOM     20  N   UNL     1      -2.186  13.428  23.120  0.00  0.00    +0.000 NA
ATOM     21  C   UNL     1      -2.600  14.846  23.136  0.00  0.00    +0.000 C 
ATOM     22  C   UNL     1      -4.008  15.121  22.611  0.00  0.00    +0.000 C 
ATOM     23  N   UNL     1      -4.992  14.258  23.201  0.00  0.00    +0.000 N 
ATOM     24  H   UNL     1      -5.979  14.424  23.045  0.00  0.00    +0.000 HD
ENDBRANCH   1  20
TORSDOF 1
ENDMDL
MODEL 7
REMARK VINA RESULT:      -6.2      9.386     12.222
REMARK  Name = 
REMARK  1 active torsions:
REMARK  status: ('A' for Active; 'I' for Inactive)
REMARK    1  A    between atoms: N_4  and  C_5
REMARK                            x       y       z     vdW  Elec       q    Type
REMARK                         _______ _______ _______ _____ _____    ______ ____
ROOT
ATOM      1  C   UNL     1      -5.112  13.097  20.697  0.00  0.00    +0.000 C 
ATOM      2  C   UNL     1      -5.833  13.577  19.405  0.00  0.00    +0.000 A 
ATOM      3  C   UNL     1      -6.386  14.867  19.277  0.00  0.00    +0.000 A 
ATOM      4  C   UNL     1      -7.080  15.261  18.125  0.00  0.00    +0.000 A 
ATOM      5  C   UNL     1      -7.134  14.410  17.031  0.00  0.00    +0.000 A 
ATOM      6 CL   UNL     1      -7.917  14.915  15.584  0.00  0.00    +0.000 Cl
ATOM      7  C   UNL     1      -6.537  13.155  17.095  0.00  0.00    +0.000 A 
ATOM      8  C   UNL     1      -5.916  12.721  18.282  0.00  0.00    +0.000 A 
ATOM      9  C   UNL     1      -5.269  11.362  18.305  0.00  0.00    +0.000 C 
ATOM     10  C   UNL     1      -3.755  11.480  18.256  0.00  0.00    +0.000 C 
ATOM     11  C   UNL     1      -3.029  12.112  19.421  0.00  0.00    +0.000 A 
ATOM     12  C   UNL     1      -1.635  11.878  19.432  0.00  0.00    +0.000 A 
ATOM     13  C   UNL     1      -0.813  12.474  20.375  0.00  0.00    +0.000 A 
ATOM     14  C   UNL     1      -1.400  13.364  21.238  0.00  0.00    +0.000 A 
ATOM     15  N   UNL     1      -2.723  13.638  21.243  0.00  0.00    +0.000 NA
ATOM     16  C   UNL     1      -3.563  12.966  20.411  0.00  0.00    +0.000 A 
ENDROOT
BRANCH   1  20
ATOM     17  O   UNL     1      -4.525  11.946  24.923  0.00  0.00    +0.000 OA
ATOM     18  C   UNL     1      -5.242  12.524  24.106  0.00  0.00    +0.000 C 
ATOM     19  C   UNL     1      -4.704  13.600  23.161  0.00  0.00    +0.000 C 
ATOM     20  N   UNL     1      -5.495  13.890  21.927  0.00  0.00    +0.000 NA
ATOM     21  C   UNL     1      -6.925  13.908  22.297  0.00  0.00    +0.000 C 
ATOM     22  C   UNL     1      -7.427  12.660  23.022  0.00  0.00    +0.000 C 
ATOM     23  N   UNL     1      -6.584  12.287  24.121  0.00  0.00    +0.000 N 
ATOM     24  H   UNL     1      -6.874  11.563  24.767  0.00  0.00    +0.000 HD
ENDBRANCH   1  20
TORSDOF 1
ENDMDL
MODEL 8
REMARK VINA RESULT:      -6.2      8.512     11.014
REMARK  Name = 
REMARK  1 active torsions:
REMARK  status: ('A' for Active; 'I' for Inactive)
REMARK    1  A    between atoms: N_4  and  C_5
REMARK                            x       y       z     vdW  Elec       q    Type
REMARK                         _______ _______ _______ _____ _____    ______ ____
ROOT
ATOM      1  C   UNL     1      -4.255  11.553  19.124  0.00  0.00    +0.000 C 
ATOM      2  C   UNL     1      -3.837  11.092  17.698  0.00  0.00    +0.000 A 
ATOM      3  C   UNL     1      -4.505  11.521  16.534  0.00  0.00    +0.000 A 
ATOM      4  C   UNL     1      -4.147  11.051  15.263  0.00  0.00    +0.000 A 
ATOM      5  C   UNL     1      -3.038  10.230  15.121  0.00  0.00    +0.000 A 
ATOM      6 CL   UNL     1      -2.544   9.711  13.557  0.00  0.00    +0.000 Cl
ATOM      7  C   UNL     1      -2.311   9.843  16.242  0.00  0.00    +0.000 A 
ATOM      8  C   UNL     1      -2.720  10.241  17.530  0.00  0.00    +0.000 A 
ATOM      9  C   UNL     1      -1.897   9.813  18.715  0.00  0.00    +0.000 C 
ATOM     10  C   UNL     1      -1.083  10.975  19.260  0.00  0.00    +0.000 C 
ATOM     11  C   UNL     1      -1.804  12.150  19.879  0.00  0.00    +0.000 A 
ATOM     12  C   UNL     1      -0.974  13.004  20.641  0.00  0.00    +0.000 A 
ATOM     13  C   UNL     1      -1.460  14.180  21.187  0.00  0.00    +0.000 A 
ATOM     14  C   UNL     1      -2.755  14.518  20.884  0.00  0.00    +0.000 A 
ATOM     15  N   UNL     1      -3.573  13.745  20.136  0.00  0.00    +0.000 NA
ATOM     16  C   UNL     1      -3.153  12.528  19.701  0.00  0.00    +0.000 A 
ENDROOT
BRANCH   1  20
ATOM     17  O   UNL     1      -6.715  12.107  22.753  0.00  0.00    +0.000 OA
ATOM     18  C   UNL     1      -6.697  11.791  21.563  0.00  0.00    +0.000 C 
ATOM     19  C   UNL     1      -6.083  12.690  20.488  0.00  0.00    +0.000 C 
ATOM     20  N   UNL     1      -5.684  12.047  19.200  0.00  0.00    +0.000 NA
ATOM     21  C   UNL     1      -6.746  11.093  18.818  0.00  0.00    +0.000 C 
ATOM     22  C   UNL     1      -7.111  10.063  19.886  0.00  0.00    +0.000 C 
ATOM     23  N   UNL     1      -7.350  10.662  21.168  0.00  0.00    +0.000 N 
ATOM     24  H   UNL     1      -7.733  10.112  21.927  0.00  0.00    +0.000 HD
ENDBRANCH   1  20
TORSDOF 1
ENDMDL
MODEL 9
REMARK VINA RESULT:      -6.1      7.087      9.587
REMARK  Name = 
REMARK  1 active torsions:
REMARK  status: ('A' for Active; 'I' for Inactive)
REMARK    1  A    between atoms: N_4  and  C_5
REMARK                            x       y       z     vdW  Elec       q    Type
REMARK                         _______ _______ _______ _____ _____    ______ ____
ROOT
ATOM      1  C   UNL     1      -0.933  12.721  21.277  0.00  0.00    +0.000 C 
ATOM      2  C   UNL     1       0.143  13.395  20.378  0.00  0.00    +0.000 A 
ATOM      3  C   UNL     1       0.959  14.451  20.831  0.00  0.00    +0.000 A 
ATOM      4  C   UNL     1       1.884  15.080  19.988  0.00  0.00    +0.000 A 
ATOM      5  C   UNL     1       2.093  14.590  18.707  0.00  0.00    +0.000 A 
ATOM      6 CL   UNL     1       3.281  15.308  17.692  0.00  0.00    +0.000 Cl
ATOM      7  C   UNL     1       1.355  13.503  18.250  0.00  0.00    +0.000 A 
ATOM      8  C   UNL     1       0.360  12.923  19.063  0.00  0.00    +0.000 A 
ATOM      9  C   UNL     1      -0.404  11.739  18.536  0.00  0.00    +0.000 C 
ATOM     10  C   UNL     1       0.055  10.454  19.204  0.00  0.00    +0.000 C 
ATOM     11  C   UNL     1      -0.195  10.263  20.682  0.00  0.00    +0.000 A 
ATOM     12  C   UNL     1      -0.039   8.933  21.130  0.00  0.00    +0.000 A 
ATOM     13  C   UNL     1      -0.131   8.611  22.475  0.00  0.00    +0.000 A 
ATOM     14  C   UNL     1      -0.294   9.651  23.353  0.00  0.00    +0.000 A 
ATOM     15  N   UNL     1      -0.419  10.940  22.970  0.00  0.00    +0.000 NA
ATOM     16  C   UNL     1      -0.461  11.259  21.649  0.00  0.00    +0.000 A 
ENDROOT
BRANCH   1  20
ATOM     17  O   UNL     1      -4.629  12.324  23.667  0.00  0.00    +0.000 OA
ATOM     18  C   UNL     1      -3.803  13.092  23.173  0.00  0.00    +0.000 C 
ATOM     19  C   UNL     1      -2.300  12.943  23.416  0.00  0.00    +0.000 C 
ATOM     20  N   UNL     1      -1.377  13.589  22.434  0.00  0.00    +0.000 NA
ATOM     21  C   UNL     1      -1.923  14.922  22.105  0.00  0.00    +0.000 C 
ATOM     22  C   UNL     1      -3.373  14.931  21.623  0.00  0.00    +0.000 C 
ATOM     23  N   UNL     1      -4.243  14.182  22.484  0.00  0.00    +0.000 N 
ATOM     24  H   UNL     1      -5.247  14.221  22.358  0.00  0.00    +0.000 HD
ENDBRANCH   1  20
TORSDOF 1
ENDMDL
