MODEL 1
REMARK VINA RESULT:      -7.7      0.000      0.000
REMARK  Name = 
REMARK  2 active torsions:
REMARK  status: ('A' for Active; 'I' for Inactive)
REMARK    1  A    between atoms: C_2  and  C_16
REMARK    2  A    between atoms: C_8  and  C_9
REMARK                            x       y       z     vdW  Elec       q    Type
REMARK                         _______ _______ _______ _____ _____    ______ ____
ROOT
ATOM      1  O   UNL     1       2.166   6.806  19.701  0.00  0.00    +0.000 OA
ATOM      2  C   UNL     1       2.539   7.201  18.597  0.00  0.00    +0.000 C 
ATOM      3  N   UNL     1       2.096   8.342  17.965  0.00  0.00    +0.000 N 
ATOM      4  C   UNL     1       1.181   9.206  18.582  0.00  0.00    +0.000 A 
ATOM      5  C   UNL     1       1.375   9.613  19.886  0.00  0.00    +0.000 A 
ATOM      6  C   UNL     1       0.416  10.444  20.401  0.00  0.00    +0.000 A 
ATOM      7  N   UNL     1      -0.676  10.816  19.716  0.00  0.00    +0.000 NA
ATOM      8  C   UNL     1      -0.789  10.354  18.456  0.00  0.00    +0.000 A 
ATOM      9  N   UNL     1       0.143   9.606  17.829  0.00  0.00    +0.000 NA
ATOM     10  H   UNL     1       2.035   8.321  16.954  0.00  0.00    +0.000 HD
ENDROOT
BRANCH   2  11
ATOM     11  C   UNL     1       3.507   6.366  17.847  0.00  0.00    +0.000 A 
ATOM     12  C   UNL     1       4.457   6.997  17.030  0.00  0.00    +0.000 A 
ATOM     13  C   UNL     1       5.282   6.232  16.204  0.00  0.00    +0.000 A 
ATOM     14  C   UNL     1       5.140   4.849  16.188  0.00  0.00    +0.000 A 
ATOM     15  F   UNL     1       5.898   4.118  15.360  0.00  0.00    +0.000 F 
ATOM     16  C   UNL     1       4.207   4.213  17.003  0.00  0.00    +0.000 A 
ATOM     17  C   UNL     1       3.389   4.970  17.845  0.00  0.00    +0.000 A 
ENDBRANCH   2  11
BRANCH   8  18
ATOM     18  C   UNL     1      -2.060  10.621  17.755  0.00  0.00    +0.000 A 
ATOM     19  C   UNL     1      -2.284  10.149  16.451  0.00  0.00    +0.000 A 
ATOM     20  C   UNL     1      -3.475  10.443  15.808  0.00  0.00    +0.000 A 
ATOM     21  N   UNL     1      -4.461  11.174  16.363  0.00  0.00    +0.000 NA
ATOM     22  C   UNL     1      -4.241  11.633  17.611  0.00  0.00    +0.000 A 
ATOM     23  C   UNL     1      -3.082  11.389  18.333  0.00  0.00    +0.000 A 
ENDBRANCH   8  18
TORSDOF 2
ENDMDL
MODEL 2
REMARK VINA RESULT:      -7.7      6.459      8.862
REMARK  Name = 
REMARK  2 active torsions:
REMARK  status: ('A' for Active; 'I' for Inactive)
REMARK    1  A    between atoms: C_2  and  C_16
REMARK    2  A    between atoms: C_8  and  C_9
REMARK                            x       y       z     vdW  Elec       q    Type
REMARK                         _______ _______ _______ _____ _____    ______ ____
ROOT
ATOM      1  O   UNL     1       3.742   6.077  19.076  0.00  0.00    +0.000 OA
ATOM      2  C   UNL     1       3.942   4.864  19.124  0.00  0.00    +0.000 C 
ATOM      3  N   UNL     1       4.926   4.188  18.435  0.00  0.00    +0.000 N 
ATOM      4  C   UNL     1       5.846   4.871  17.628  0.00  0.00    +0.000 A 
ATOM      5  C   UNL     1       6.495   5.992  18.103  0.00  0.00    +0.000 A 
ATOM      6  C   UNL     1       7.363   6.593  17.231  0.00  0.00    +0.000 A 
ATOM      7  N   UNL     1       7.552   6.166  15.973  0.00  0.00    +0.000 NA
ATOM      8  C   UNL     1       6.861   5.075  15.592  0.00  0.00    +0.000 A 
ATOM      9  N   UNL     1       6.053   4.360  16.403  0.00  0.00    +0.000 NA
ATOM     10  H   UNL     1       4.715   3.248  18.126  0.00  0.00    +0.000 HD
ENDROOT
BRANCH   2  11
ATOM     11  C   UNL     1       3.028   4.037  19.946  0.00  0.00    +0.000 A 
ATOM     12  C   UNL     1       1.677   4.404  20.037  0.00  0.00    +0.000 A 
ATOM     13  C   UNL     1       0.830   3.729  20.918  0.00  0.00    +0.000 A 
ATOM     14  C   UNL     1       1.342   2.708  21.711  0.00  0.00    +0.000 A 
ATOM     15  F   UNL     1       0.542   2.092  22.590  0.00  0.00    +0.000 F 
ATOM     16  C   UNL     1       2.679   2.329  21.620  0.00  0.00    +0.000 A 
ATOM     17  C   UNL     1       3.529   2.989  20.729  0.00  0.00    +0.000 A 
ENDBRANCH   2  11
BRANCH   8  18
ATOM     18  C   UNL     1       6.936   4.697  14.168  0.00  0.00    +0.000 A 
ATOM     19  C   UNL     1       7.776   5.386  13.277  0.00  0.00    +0.000 A 
ATOM     20  C   UNL     1       7.802   5.027  11.939  0.00  0.00    +0.000 A 
ATOM     21  N   UNL     1       7.054   4.036  11.418  0.00  0.00    +0.000 NA
ATOM     22  C   UNL     1       6.242   3.381  12.273  0.00  0.00    +0.000 A 
ATOM     23  C   UNL     1       6.151   3.668  13.627  0.00  0.00    +0.000 A 
ENDBRANCH   8  18
TORSDOF 2
ENDMDL
MODEL 3
REMARK VINA RESULT:      -7.6      0.252      1.458
REMARK  Name = 
REMARK  2 active torsions:
REMARK  status: ('A' for Active; 'I' for Inactive)
REMARK    1  A    between atoms: C_2  and  C_16
REMARK    2  A    between atoms: C_8  and  C_9
REMARK                            x       y       z     vdW  Elec       q    Type
REMARK                         _______ _______ _______ _____ _____    ______ ____
ROOT
ATOM      1  O   UNL     1       2.141   6.702  19.589  0.00  0.00    +0.000 OA
ATOM      2  C   UNL     1       2.522   7.118  18.496  0.00  0.00    +0.000 C 
ATOM      3  N   UNL     1       2.101   8.283  17.892  0.00  0.00    +0.000 N 
ATOM      4  C   UNL     1       1.201   9.147  18.531  0.00  0.00    +0.000 A 
ATOM      5  C   UNL     1       1.400   9.517  19.845  0.00  0.00    +0.000 A 
ATOM      6  C   UNL     1       0.455  10.352  20.379  0.00  0.00    +0.000 A 
ATOM      7  N   UNL     1      -0.630  10.760  19.703  0.00  0.00    +0.000 NA
ATOM      8  C   UNL     1      -0.749  10.333  18.431  0.00  0.00    +0.000 A 
ATOM      9  N   UNL     1       0.171   9.585  17.787  0.00  0.00    +0.000 NA
ATOM     10  H   UNL     1       2.041   8.288  16.882  0.00  0.00    +0.000 HD
ENDROOT
BRANCH   2  11
ATOM     11  C   UNL     1       3.476   6.285  17.726  0.00  0.00    +0.000 A 
ATOM     12  C   UNL     1       3.337   4.890  17.756  0.00  0.00    +0.000 A 
ATOM     13  C   UNL     1       4.306   4.081  17.160  0.00  0.00    +0.000 A 
ATOM     14  C   UNL     1       5.411   4.670  16.557  0.00  0.00    +0.000 A 
ATOM     15  F   UNL     1       6.365   3.893  16.027  0.00  0.00    +0.000 F 
ATOM     16  C   UNL     1       5.554   6.055  16.513  0.00  0.00    +0.000 A 
ATOM     17  C   UNL     1       4.580   6.871  17.092  0.00  0.00    +0.000 A 
ENDBRANCH   2  11
BRANCH   8  18
ATOM     18  C   UNL     1      -2.013  10.641  17.736  0.00  0.00    +0.000 A 
ATOM     19  C   UNL     1      -3.020  11.396  18.360  0.00  0.00    +0.000 A 
ATOM     20  C   UNL     1      -4.209  11.642  17.694  0.00  0.00    +0.000 A 
ATOM     21  N   UNL     1      -4.474  11.192  16.453  0.00  0.00    +0.000 NA
ATOM     22  C   UNL     1      -3.511  10.460  15.858  0.00  0.00    +0.000 A 
ATOM     23  C   UNL     1      -2.290  10.165  16.446  0.00  0.00    +0.000 A 
ENDBRANCH   8  18
TORSDOF 2
ENDMDL
MODEL 4
REMARK VINA RESULT:      -7.6      0.259      1.066
REMARK  Name = 
REMARK  2 active torsions:
REMARK  status: ('A' for Active; 'I' for Inactive)
REMARK    1  A    between atoms: C_2  and  C_16
REMARK    2  A    between atoms: C_8  and  C_9
REMARK                            x       y       z     vdW  Elec       q    Type
REMARK                         _______ _______ _______ _____ _____    ______ ____
ROOT
ATOM      1  O   UNL     1       2.173   6.864  19.677  0.00  0.00    +0.000 OA
ATOM      2  C   UNL     1       2.517   7.231  18.555  0.00  0.00    +0.000 C 
ATOM      3  N   UNL     1       2.065   8.362  17.910  0.00  0.00    +0.000 N 
ATOM      4  C   UNL     1       1.173   9.246  18.533  0.00  0.00    +0.000 A 
ATOM      5  C   UNL     1       1.406   9.680  19.822  0.00  0.00    +0.000 A 
ATOM      6  C   UNL     1       0.468  10.529  20.345  0.00  0.00    +0.000 A 
ATOM      7  N   UNL     1      -0.641  10.894  19.684  0.00  0.00    +0.000 NA
ATOM      8  C   UNL     1      -0.792  10.406  18.437  0.00  0.00    +0.000 A 
ATOM      9  N   UNL     1       0.117   9.638  17.801  0.00  0.00    +0.000 NA
ATOM     10  H   UNL     1       1.974   8.319  16.902  0.00  0.00    +0.000 HD
ENDROOT
BRANCH   2  11
ATOM     11  C   UNL     1       3.458   6.374  17.796  0.00  0.00    +0.000 A 
ATOM     12  C   UNL     1       3.336   4.980  17.896  0.00  0.00    +0.000 A 
ATOM     13  C   UNL     1       4.297   4.154  17.310  0.00  0.00    +0.000 A 
ATOM     14  C   UNL     1       5.376   4.725  16.646  0.00  0.00    +0.000 A 
ATOM     15  F   UNL     1       6.323   3.935  16.124  0.00  0.00    +0.000 F 
ATOM     16  C   UNL     1       5.500   6.108  16.532  0.00  0.00    +0.000 A 
ATOM     17  C   UNL     1       4.534   6.940  17.102  0.00  0.00    +0.000 A 
ENDBRANCH   2  11
BRANCH   8  18
ATOM     18  C   UNL     1      -2.080  10.667  17.767  0.00  0.00    +0.000 A 
ATOM     19  C   UNL     1      -2.318  10.229  16.453  0.00  0.00    +0.000 A 
ATOM     20  C   UNL     1      -3.526  10.517  15.840  0.00  0.00    +0.000 A 
ATOM     21  N   UNL     1      -4.516  11.211  16.433  0.00  0.00    +0.000 NA
ATOM     22  C   UNL     1      -4.284  11.638  17.690  0.00  0.00    +0.000 A 
ATOM     23  C   UNL     1      -3.107  11.396  18.384  0.00  0.00    +0.000 A 
ENDBRANCH   8  18
TORSDOF 2
ENDMDL
MODEL 5
REMARK VINA RESULT:      -7.4      0.796      1.291
REMARK  Name = 
REMARK  2 active torsions:
REMARK  status: ('A' for Active; 'I' for Inactive)
REMARK    1  A    between atoms: C_2  and  C_16
REMARK    2  A    between atoms: C_8  and  C_9
REMARK                            x       y       z     vdW  Elec       q    Type
REMARK                         _______ _______ _______ _____ _____    ______ ____
ROOT
ATOM      1  O   UNL     1       2.025   7.725  20.033  0.00  0.00    +0.000 OA
ATOM      2  C   UNL     1       2.209   7.745  18.817  0.00  0.00    +0.000 C 
ATOM      3  N   UNL     1       1.701   8.684  17.947  0.00  0.00    +0.000 N 
ATOM      4  C   UNL     1       0.939   9.766  18.410  0.00  0.00    +0.000 A 
ATOM      5  C   UNL     1       1.375  10.519  19.481  0.00  0.00    +0.000 A 
ATOM      6  C   UNL     1       0.551  11.544  19.865  0.00  0.00    +0.000 A 
ATOM      7  N   UNL     1      -0.632  11.790  19.283  0.00  0.00    +0.000 NA
ATOM      8  C   UNL     1      -0.983  10.991  18.256  0.00  0.00    +0.000 A 
ATOM      9  N   UNL     1      -0.202  10.016  17.746  0.00  0.00    +0.000 NA
ATOM     10  H   UNL     1       1.460   8.373  17.014  0.00  0.00    +0.000 HD
ENDROOT
BRANCH   2  11
ATOM     11  C   UNL     1       3.000   6.648  18.212  0.00  0.00    +0.000 A 
ATOM     12  C   UNL     1       4.208   6.956  17.569  0.00  0.00    +0.000 A 
ATOM     13  C   UNL     1       4.896   5.965  16.867  0.00  0.00    +0.000 A 
ATOM     14  C   UNL     1       4.365   4.682  16.799  0.00  0.00    +0.000 A 
ATOM     15  F   UNL     1       5.000   3.742  16.087  0.00  0.00    +0.000 F 
ATOM     16  C   UNL     1       3.172   4.363  17.444  0.00  0.00    +0.000 A 
ATOM     17  C   UNL     1       2.487   5.345  18.162  0.00  0.00    +0.000 A 
ENDBRANCH   2  11
BRANCH   8  18
ATOM     18  C   UNL     1      -2.348  11.149  17.719  0.00  0.00    +0.000 A 
ATOM     19  C   UNL     1      -3.404  11.585  18.536  0.00  0.00    +0.000 A 
ATOM     20  C   UNL     1      -4.681  11.693  18.010  0.00  0.00    +0.000 A 
ATOM     21  N   UNL     1      -4.988  11.400  16.733  0.00  0.00    +0.000 NA
ATOM     22  C   UNL     1      -3.975  10.974  15.951  0.00  0.00    +0.000 A 
ATOM     23  C   UNL     1      -2.666  10.835  16.389  0.00  0.00    +0.000 A 
ENDBRANCH   8  18
TORSDOF 2
ENDMDL
MODEL 6
REMARK VINA RESULT:      -7.4      3.858      8.514
REMARK  Name = 
REMARK  2 active torsions:
REMARK  status: ('A' for Active; 'I' for Inactive)
REMARK    1  A    between atoms: C_2  and  C_16
REMARK    2  A    between atoms: C_8  and  C_9
REMARK                            x       y       z     vdW  Elec       q    Type
REMARK                         _______ _______ _______ _____ _____    ______ ____
ROOT
ATOM      1  O   UNL     1       1.658   8.257  21.725  0.00  0.00    +0.000 OA
ATOM      2  C   UNL     1       1.388   8.541  20.560  0.00  0.00    +0.000 C 
ATOM      3  N   UNL     1       1.689   7.770  19.458  0.00  0.00    +0.000 N 
ATOM      4  C   UNL     1       2.312   6.522  19.594  0.00  0.00    +0.000 A 
ATOM      5  C   UNL     1       1.845   5.605  20.513  0.00  0.00    +0.000 A 
ATOM      6  C   UNL     1       2.531   4.422  20.578  0.00  0.00    +0.000 A 
ATOM      7  N   UNL     1       3.621   4.165  19.839  0.00  0.00    +0.000 NA
ATOM      8  C   UNL     1       4.014   5.127  18.982  0.00  0.00    +0.000 A 
ATOM      9  N   UNL     1       3.353   6.286  18.779  0.00  0.00    +0.000 NA
ATOM     10  H   UNL     1       1.908   8.254  18.596  0.00  0.00    +0.000 HD
ENDROOT
BRANCH   2  11
ATOM     11  C   UNL     1       0.730   9.842  20.292  0.00  0.00    +0.000 A 
ATOM     12  C   UNL     1       0.428  10.684  21.372  0.00  0.00    +0.000 A 
ATOM     13  C   UNL     1      -0.321  11.844  21.162  0.00  0.00    +0.000 A 
ATOM     14  C   UNL     1      -0.774  12.142  19.882  0.00  0.00    +0.000 A 
ATOM     15  F   UNL     1      -1.532  13.229  19.687  0.00  0.00    +0.000 F 
ATOM     16  C   UNL     1      -0.471  11.317  18.801  0.00  0.00    +0.000 A 
ATOM     17  C   UNL     1       0.292  10.164  19.001  0.00  0.00    +0.000 A 
ENDBRANCH   2  11
BRANCH   8  18
ATOM     18  C   UNL     1       5.299   4.922  18.287  0.00  0.00    +0.000 A 
ATOM     19  C   UNL     1       6.518   5.259  18.899  0.00  0.00    +0.000 A 
ATOM     20  C   UNL     1       7.706   5.084  18.208  0.00  0.00    +0.000 A 
ATOM     21  N   UNL     1       7.775   4.600  16.954  0.00  0.00    +0.000 NA
ATOM     22  C   UNL     1       6.604   4.284  16.365  0.00  0.00    +0.000 A 
ATOM     23  C   UNL     1       5.367   4.424  16.977  0.00  0.00    +0.000 A 
ENDBRANCH   8  18
TORSDOF 2
ENDMDL
MODEL 7
REMARK VINA RESULT:      -7.4      3.851      8.481
REMARK  Name = 
REMARK  2 active torsions:
REMARK  status: ('A' for Active; 'I' for Inactive)
REMARK    1  A    between atoms: C_2  and  C_16
REMARK    2  A    between atoms: C_8  and  C_9
REMARK                            x       y       z     vdW  Elec       q    Type
REMARK                         _______ _______ _______ _____ _____    ______ ____
ROOT
ATOM      1  O   UNL     1       1.656   8.243  21.708  0.00  0.00    +0.000 OA
ATOM      2  C   UNL     1       1.372   8.523  20.545  0.00  0.00    +0.000 C 
ATOM      3  N   UNL     1       1.673   7.754  19.441  0.00  0.00    +0.000 N 
ATOM      4  C   UNL     1       2.313   6.514  19.573  0.00  0.00    +0.000 A 
ATOM      5  C   UNL     1       1.867   5.592  20.498  0.00  0.00    +0.000 A 
ATOM      6  C   UNL     1       2.569   4.419  20.558  0.00  0.00    +0.000 A 
ATOM      7  N   UNL     1       3.656   4.176  19.809  0.00  0.00    +0.000 NA
ATOM      8  C   UNL     1       4.028   5.142  18.947  0.00  0.00    +0.000 A 
ATOM      9  N   UNL     1       3.350   6.292  18.749  0.00  0.00    +0.000 NA
ATOM     10  H   UNL     1       1.877   8.240  18.577  0.00  0.00    +0.000 HD
ENDROOT
BRANCH   2  11
ATOM     11  C   UNL     1       0.693   9.814  20.282  0.00  0.00    +0.000 A 
ATOM     12  C   UNL     1       0.284  10.600  21.369  0.00  0.00    +0.000 A 
ATOM     13  C   UNL     1      -0.483  11.745  21.151  0.00  0.00    +0.000 A 
ATOM     14  C   UNL     1      -0.849  12.085  19.853  0.00  0.00    +0.000 A 
ATOM     15  F   UNL     1      -1.625  13.157  19.646  0.00  0.00    +0.000 F 
ATOM     16  C   UNL     1      -0.439  11.318  18.766  0.00  0.00    +0.000 A 
ATOM     17  C   UNL     1       0.343  10.179  18.975  0.00  0.00    +0.000 A 
ENDBRANCH   2  11
BRANCH   8  18
ATOM     18  C   UNL     1       5.310   4.953  18.241  0.00  0.00    +0.000 A 
ATOM     19  C   UNL     1       5.347   4.476  16.920  0.00  0.00    +0.000 A 
ATOM     20  C   UNL     1       6.567   4.279  16.294  0.00  0.00    +0.000 A 
ATOM     21  N   UNL     1       7.754   4.519  16.883  0.00  0.00    +0.000 NA
ATOM     22  C   UNL     1       7.717   4.968  18.154  0.00  0.00    +0.000 A 
ATOM     23  C   UNL     1       6.545   5.196  18.860  0.00  0.00    +0.000 A 
ENDBRANCH   8  18
TORSDOF 2
ENDMDL
MODEL 8
REMARK VINA RESULT:      -7.4      0.981      1.443
REMARK  Name = 
REMARK  2 active torsions:
REMARK  status: ('A' for Active; 'I' for Inactive)
REMARK    1  A    between atoms: C_2  and  C_16
REMARK    2  A    between atoms: C_8  and  C_9
REMARK                            x       y       z     vdW  Elec       q    Type
REMARK                         _______ _______ _______ _____ _____    ______ ____
ROOT
ATOM      1  O   UNL     1       2.327   5.686  19.298  0.00  0.00    +0.000 OA
ATOM      2  C   UNL     1       2.873   6.403  18.461  0.00  0.00    +0.000 C 
ATOM      3  N   UNL     1       2.594   7.735  18.245  0.00  0.00    +0.000 N 
ATOM      4  C   UNL     1       1.658   8.418  19.034  0.00  0.00    +0.000 A 
ATOM      5  C   UNL     1       1.694   8.314  20.409  0.00  0.00    +0.000 A 
ATOM      6  C   UNL     1       0.727   9.007  21.086  0.00  0.00    +0.000 A 
ATOM      7  N   UNL     1      -0.235   9.712  20.472  0.00  0.00    +0.000 NA
ATOM      8  C   UNL     1      -0.201   9.742  19.126  0.00  0.00    +0.000 A 
ATOM      9  N   UNL     1       0.761   9.169  18.373  0.00  0.00    +0.000 NA
ATOM     10  H   UNL     1       2.672   8.080  17.297  0.00  0.00    +0.000 HD
ENDROOT
BRANCH   2  11
ATOM     11  C   UNL     1       3.882   5.789  17.566  0.00  0.00    +0.000 A 
ATOM     12  C   UNL     1       4.602   6.613  16.688  0.00  0.00    +0.000 A 
ATOM     13  C   UNL     1       5.449   6.044  15.737  0.00  0.00    +0.000 A 
ATOM     14  C   UNL     1       5.558   4.660  15.659  0.00  0.00    +0.000 A 
ATOM     15  F   UNL     1       6.334   4.111  14.715  0.00  0.00    +0.000 F 
ATOM     16  C   UNL     1       4.856   3.833  16.533  0.00  0.00    +0.000 A 
ATOM     17  C   UNL     1       4.018   4.396  17.498  0.00  0.00    +0.000 A 
ENDBRANCH   2  11
BRANCH   8  18
ATOM     18  C   UNL     1      -1.343  10.376  18.440  0.00  0.00    +0.000 A 
ATOM     19  C   UNL     1      -2.113  11.365  19.074  0.00  0.00    +0.000 A 
ATOM     20  C   UNL     1      -3.199  11.918  18.416  0.00  0.00    +0.000 A 
ATOM     21  N   UNL     1      -3.579  11.562  17.174  0.00  0.00    +0.000 NA
ATOM     22  C   UNL     1      -2.844  10.607  16.570  0.00  0.00    +0.000 A 
ATOM     23  C   UNL     1      -1.741   9.997  17.149  0.00  0.00    +0.000 A 
ENDBRANCH   8  18
TORSDOF 2
ENDMDL
MODEL 9
REMARK VINA RESULT:      -7.4      3.776      8.417
REMARK  Name = 
REMARK  2 active torsions:
REMARK  status: ('A' for Active; 'I' for Inactive)
REMARK    1  A    between atoms: C_2  and  C_16
REMARK    2  A    between atoms: C_8  and  C_9
REMARK                            x       y       z     vdW  Elec       q    Type
REMARK                         _______ _______ _______ _____ _____    ______ ____
ROOT
ATOM      1  O   UNL     1       1.608   8.356  21.678  0.00  0.00    +0.000 OA
ATOM      2  C   UNL     1       1.341   8.626  20.508  0.00  0.00    +0.000 C 
ATOM      3  N   UNL     1       1.658   7.849  19.415  0.00  0.00    +0.000 N 
ATOM      4  C   UNL     1       2.295   6.610  19.567  0.00  0.00    +0.000 A 
ATOM      5  C   UNL     1       1.836   5.696  20.492  0.00  0.00    +0.000 A 
ATOM      6  C   UNL     1       2.537   4.522  20.572  0.00  0.00    +0.000 A 
ATOM      7  N   UNL     1       3.634   4.273  19.841  0.00  0.00    +0.000 NA
ATOM      8  C   UNL     1       4.019   5.232  18.976  0.00  0.00    +0.000 A 
ATOM      9  N   UNL     1       3.344   6.381  18.759  0.00  0.00    +0.000 NA
ATOM     10  H   UNL     1       1.874   8.327  18.550  0.00  0.00    +0.000 HD
ENDROOT
BRANCH   2  11
ATOM     11  C   UNL     1       0.666   9.915  20.225  0.00  0.00    +0.000 A 
ATOM     12  C   UNL     1       0.018  10.085  18.993  0.00  0.00    +0.000 A 
ATOM     13  C   UNL     1      -0.498  11.335  18.644  0.00  0.00    +0.000 A 
ATOM     14  C   UNL     1      -0.346  12.405  19.518  0.00  0.00    +0.000 A 
ATOM     15  F   UNL     1      -0.798  13.615  19.165  0.00  0.00    +0.000 F 
ATOM     16  C   UNL     1       0.287  12.244  20.749  0.00  0.00    +0.000 A 
ATOM     17  C   UNL     1       0.790  10.993  21.111  0.00  0.00    +0.000 A 
ENDBRANCH   2  11
BRANCH   8  18
ATOM     18  C   UNL     1       5.310   5.037  18.290  0.00  0.00    +0.000 A 
ATOM     19  C   UNL     1       5.369   4.518  16.986  0.00  0.00    +0.000 A 
ATOM     20  C   UNL     1       6.598   4.317  16.380  0.00  0.00    +0.000 A 
ATOM     21  N   UNL     1       7.776   4.592  16.973  0.00  0.00    +0.000 NA
ATOM     22  C   UNL     1       7.718   5.083  18.228  0.00  0.00    +0.000 A 
ATOM     23  C   UNL     1       6.535   5.318  18.913  0.00  0.00    +0.000 A 
ENDBRANCH   8  18
TORSDOF 2
ENDMDL
