MODEL 1
REMARK VINA RESULT:      -7.4      0.000      0.000
REMARK  Name = 
REMARK  4 active torsions:
REMARK  status: ('A' for Active; 'I' for Inactive)
REMARK    1  A    between atoms: C_1  and  C_2
REMARK    2  A    between atoms: C_9  and  O_10
REMARK    3  A    between atoms: O_10  and  C_11
REMARK    4  A    between atoms: N_13  and  C_14
REMARK                            x       y       z     vdW  Elec       q    Type
REMARK                         _______ _______ _______ _____ _____    ______ ____
ROOT
ATOM      1  O   UNL     1       3.131   5.033  20.335  0.00  0.00    +0.000 OA
ENDROOT
BRANCH   1  10
ATOM      2  C   UNL     1       8.022   5.888  19.466  0.00  0.00    +0.000 C 
ATOM      3  C   UNL     1       6.945   5.368  18.566  0.00  0.00    +0.000 A 
ATOM      4  C   UNL     1       7.230   4.820  17.328  0.00  0.00    +0.000 A 
ATOM      5  C   UNL     1       6.194   4.227  16.613  0.00  0.00    +0.000 A 
ATOM      6  C   UNL     1       4.914   4.134  17.182  0.00  0.00    +0.000 A 
ATOM      7  C   UNL     1       3.861   3.483  16.511  0.00  0.00    +0.000 A 
ATOM      8  C   UNL     1       2.609   3.356  17.110  0.00  0.00    +0.000 A 
ATOM      9  C   UNL     1       2.401   3.863  18.387  0.00  0.00    +0.000 A 
ATOM     10  C   UNL     1       3.453   4.509  19.054  0.00  0.00    +0.000 A 
ATOM     11  C   UNL     1       4.710   4.698  18.456  0.00  0.00    +0.000 A 
ATOM     12  N   UNL     1       5.697   5.372  19.083  0.00  0.00    +0.000 NA
ENDBRANCH   1  10
BRANCH   1  13
ATOM     13  C   UNL     1       2.029   5.883  20.440  0.00  0.00    +0.000 C 
ATOM     14  O   UNL     1       0.897   5.542  20.761  0.00  0.00    +0.000 OA
ATOM     15  N   UNL     1       2.374   7.158  20.037  0.00  0.00    +0.000 N 
ATOM     16  H   UNL     1       2.867   7.184  19.156  0.00  0.00    +0.000 HD
BRANCH  15  17
ATOM     17  C   UNL     1       1.605   8.261  20.437  0.00  0.00    +0.000 A 
ATOM     18  C   UNL     1       1.397   8.488  21.804  0.00  0.00    +0.000 A 
ATOM     19  C   UNL     1       0.628   9.569  22.233  0.00  0.00    +0.000 A 
ATOM     20  C   UNL     1       0.043  10.407  21.288  0.00  0.00    +0.000 A 
ATOM     21 BR   UNL     1      -1.078  11.818  21.858  0.00  0.00    +0.000 Br
ATOM     22  C   UNL     1       0.267  10.203  19.924  0.00  0.00    +0.000 A 
ATOM     23  C   UNL     1       1.081   9.146  19.498  0.00  0.00    +0.000 A 
ENDBRANCH  15  17
ENDBRANCH   1  13
TORSDOF 3
ENDMDL
MODEL 2
REMARK VINA RESULT:      -7.3      1.167      1.305
REMARK  Name = 
REMARK  4 active torsions:
REMARK  status: ('A' for Active; 'I' for Inactive)
REMARK    1  A    between atoms: C_1  and  C_2
REMARK    2  A    between atoms: C_9  and  O_10
REMARK    3  A    between atoms: O_10  and  C_11
REMARK    4  A    between atoms: N_13  and  C_14
REMARK                            x       y       z     vdW  Elec       q    Type
REMARK                         _______ _______ _______ _____ _____    ______ ____
ROOT
ATOM      1  O   UNL     1       2.979   5.034  20.645  0.00  0.00    +0.000 OA
ENDROOT
BRANCH   1  10
ATOM      2  C   UNL     1       6.116   7.081  17.273  0.00  0.00    +0.000 C 
ATOM      3  C   UNL     1       5.316   5.818  17.223  0.00  0.00    +0.000 A 
ATOM      4  C   UNL     1       5.511   4.869  16.236  0.00  0.00    +0.000 A 
ATOM      5  C   UNL     1       4.833   3.658  16.339  0.00  0.00    +0.000 A 
ATOM      6  C   UNL     1       4.031   3.398  17.461  0.00  0.00    +0.000 A 
ATOM      7  C   UNL     1       3.385   2.158  17.626  0.00  0.00    +0.000 A 
ATOM      8  C   UNL     1       2.631   1.897  18.769  0.00  0.00    +0.000 A 
ATOM      9  C   UNL     1       2.530   2.863  19.763  0.00  0.00    +0.000 A 
ATOM     10  C   UNL     1       3.178   4.096  19.597  0.00  0.00    +0.000 A 
ATOM     11  C   UNL     1       3.901   4.408  18.434  0.00  0.00    +0.000 A 
ATOM     12  N   UNL     1       4.472   5.618  18.259  0.00  0.00    +0.000 NA
ENDBRANCH   1  10
BRANCH   1  13
ATOM     13  C   UNL     1       1.901   5.916  20.543  0.00  0.00    +0.000 C 
ATOM     14  O   UNL     1       0.718   5.597  20.581  0.00  0.00    +0.000 OA
ATOM     15  N   UNL     1       2.357   7.195  20.298  0.00  0.00    +0.000 N 
ATOM     16  H   UNL     1       3.039   7.247  19.556  0.00  0.00    +0.000 HD
BRANCH  15  17
ATOM     17  C   UNL     1       1.541   8.304  20.572  0.00  0.00    +0.000 A 
ATOM     18  C   UNL     1       1.246   8.621  21.905  0.00  0.00    +0.000 A 
ATOM     19  C   UNL     1       0.429   9.709  22.209  0.00  0.00    +0.000 A 
ATOM     20  C   UNL     1      -0.116  10.463  21.174  0.00  0.00    +0.000 A 
ATOM     21 BR   UNL     1      -1.299  11.881  21.575  0.00  0.00    +0.000 Br
ATOM     22  C   UNL     1       0.195  10.169  19.844  0.00  0.00    +0.000 A 
ATOM     23  C   UNL     1       1.055   9.107  19.543  0.00  0.00    +0.000 A 
ENDBRANCH  15  17
ENDBRANCH   1  13
TORSDOF 3
ENDMDL
MODEL 3
REMARK VINA RESULT:      -7.3      1.880      3.159
REMARK  Name = 
REMARK  4 active torsions:
REMARK  status: ('A' for Active; 'I' for Inactive)
REMARK    1  A    between atoms: C_1  and  C_2
REMARK    2  A    between atoms: C_9  and  O_10
REMARK    3  A    between atoms: O_10  and  C_11
REMARK    4  A    between atoms: N_13  and  C_14
REMARK                            x       y       z     vdW  Elec       q    Type
REMARK                         _______ _______ _______ _____ _____    ______ ____
ROOT
ATOM      1  O   UNL     1       3.562   4.040  17.975  0.00  0.00    +0.000 OA
ENDROOT
BRANCH   1  10
ATOM      2  C   UNL     1       5.094   3.866  13.177  0.00  0.00    +0.000 C 
ATOM      3  C   UNL     1       5.848   4.167  14.434  0.00  0.00    +0.000 A 
ATOM      4  C   UNL     1       7.134   4.679  14.409  0.00  0.00    +0.000 A 
ATOM      5  C   UNL     1       7.713   5.070  15.612  0.00  0.00    +0.000 A 
ATOM      6  C   UNL     1       6.970   5.006  16.801  0.00  0.00    +0.000 A 
ATOM      7  C   UNL     1       7.505   5.455  18.024  0.00  0.00    +0.000 A 
ATOM      8  C   UNL     1       6.738   5.430  19.186  0.00  0.00    +0.000 A 
ATOM      9  C   UNL     1       5.426   4.973  19.137  0.00  0.00    +0.000 A 
ATOM     10  C   UNL     1       4.895   4.529  17.917  0.00  0.00    +0.000 A 
ATOM     11  C   UNL     1       5.659   4.493  16.740  0.00  0.00    +0.000 A 
ATOM     12  N   UNL     1       5.157   4.010  15.584  0.00  0.00    +0.000 NA
ENDBRANCH   1  10
BRANCH   1  13
ATOM     13  C   UNL     1       2.549   4.931  18.332  0.00  0.00    +0.000 C 
ATOM     14  O   UNL     1       1.462   4.618  18.805  0.00  0.00    +0.000 OA
ATOM     15  N   UNL     1       2.907   6.219  17.987  0.00  0.00    +0.000 N 
ATOM     16  H   UNL     1       3.255   6.303  17.043  0.00  0.00    +0.000 HD
BRANCH  15  17
ATOM     17  C   UNL     1       2.285   7.317  18.600  0.00  0.00    +0.000 A 
ATOM     18  C   UNL     1       2.073   7.295  19.985  0.00  0.00    +0.000 A 
ATOM     19  C   UNL     1       1.447   8.366  20.622  0.00  0.00    +0.000 A 
ATOM     20  C   UNL     1       1.007   9.448  19.864  0.00  0.00    +0.000 A 
ATOM     21 BR   UNL     1       0.074  10.859  20.705  0.00  0.00    +0.000 Br
ATOM     22  C   UNL     1       1.238   9.488  18.487  0.00  0.00    +0.000 A 
ATOM     23  C   UNL     1       1.911   8.434  17.858  0.00  0.00    +0.000 A 
ENDBRANCH  15  17
ENDBRANCH   1  13
TORSDOF 3
ENDMDL
MODEL 4
REMARK VINA RESULT:      -7.3      1.518      2.351
REMARK  Name = 
REMARK  4 active torsions:
REMARK  status: ('A' for Active; 'I' for Inactive)
REMARK    1  A    between atoms: C_1  and  C_2
REMARK    2  A    between atoms: C_9  and  O_10
REMARK    3  A    between atoms: O_10  and  C_11
REMARK    4  A    between atoms: N_13  and  C_14
REMARK                            x       y       z     vdW  Elec       q    Type
REMARK                         _______ _______ _______ _____ _____    ______ ____
ROOT
ATOM      1  O   UNL     1       2.487   6.416  20.912  0.00  0.00    +0.000 OA
ENDROOT
BRANCH   1  10
ATOM      2  C   UNL     1       5.956   6.289  17.258  0.00  0.00    +0.000 C 
ATOM      3  C   UNL     1       4.700   5.496  17.442  0.00  0.00    +0.000 A 
ATOM      4  C   UNL     1       4.415   4.389  16.663  0.00  0.00    +0.000 A 
ATOM      5  C   UNL     1       3.304   3.619  16.990  0.00  0.00    +0.000 A 
ATOM      6  C   UNL     1       2.544   3.933  18.127  0.00  0.00    +0.000 A 
ATOM      7  C   UNL     1       1.453   3.135  18.521  0.00  0.00    +0.000 A 
ATOM      8  C   UNL     1       0.738   3.432  19.680  0.00  0.00    +0.000 A 
ATOM      9  C   UNL     1       1.116   4.515  20.464  0.00  0.00    +0.000 A 
ATOM     10  C   UNL     1       2.206   5.306  20.071  0.00  0.00    +0.000 A 
ATOM     11  C   UNL     1       2.912   5.064  18.882  0.00  0.00    +0.000 A 
ATOM     12  N   UNL     1       3.922   5.865  18.483  0.00  0.00    +0.000 NA
ENDBRANCH   1  10
BRANCH   1  13
ATOM     13  C   UNL     1       1.817   7.616  20.663  0.00  0.00    +0.000 C 
ATOM     14  O   UNL     1       1.374   7.969  19.577  0.00  0.00    +0.000 OA
ATOM     15  N   UNL     1       1.807   8.397  21.801  0.00  0.00    +0.000 N 
ATOM     16  H   UNL     1       2.711   8.482  22.242  0.00  0.00    +0.000 HD
BRANCH  15  17
ATOM     17  C   UNL     1       0.863   9.424  21.948  0.00  0.00    +0.000 A 
ATOM     18  C   UNL     1      -0.060   9.357  23.001  0.00  0.00    +0.000 A 
ATOM     19  C   UNL     1      -1.018  10.357  23.167  0.00  0.00    +0.000 A 
ATOM     20  C   UNL     1      -1.069  11.410  22.259  0.00  0.00    +0.000 A 
ATOM     21 BR   UNL     1      -2.423  12.718  22.421  0.00  0.00    +0.000 Br
ATOM     22  C   UNL     1      -0.136  11.498  21.222  0.00  0.00    +0.000 A 
ATOM     23  C   UNL     1       0.856  10.519  21.088  0.00  0.00    +0.000 A 
ENDBRANCH  15  17
ENDBRANCH   1  13
TORSDOF 3
ENDMDL
MODEL 5
REMARK VINA RESULT:      -7.3      1.896      3.346
REMARK  Name = 
REMARK  4 active torsions:
REMARK  status: ('A' for Active; 'I' for Inactive)
REMARK    1  A    between atoms: C_1  and  C_2
REMARK    2  A    between atoms: C_9  and  O_10
REMARK    3  A    between atoms: O_10  and  C_11
REMARK    4  A    between atoms: N_13  and  C_14
REMARK                            x       y       z     vdW  Elec       q    Type
REMARK                         _______ _______ _______ _____ _____    ______ ____
ROOT
ATOM      1  O   UNL     1       3.629   4.166  18.108  0.00  0.00    +0.000 OA
ENDROOT
BRANCH   1  10
ATOM      2  C   UNL     1       5.025   3.906  13.272  0.00  0.00    +0.000 C 
ATOM      3  C   UNL     1       5.821   4.195  14.505  0.00  0.00    +0.000 A 
ATOM      4  C   UNL     1       7.120   4.667  14.441  0.00  0.00    +0.000 A 
ATOM      5  C   UNL     1       7.743   5.051  15.624  0.00  0.00    +0.000 A 
ATOM      6  C   UNL     1       7.031   5.019  16.833  0.00  0.00    +0.000 A 
ATOM      7  C   UNL     1       7.612   5.462  18.037  0.00  0.00    +0.000 A 
ATOM      8  C   UNL     1       6.876   5.470  19.220  0.00  0.00    +0.000 A 
ATOM      9  C   UNL     1       5.551   5.053  19.210  0.00  0.00    +0.000 A 
ATOM     10  C   UNL     1       4.973   4.615  18.009  0.00  0.00    +0.000 A 
ATOM     11  C   UNL     1       5.704   4.546  16.812  0.00  0.00    +0.000 A 
ATOM     12  N   UNL     1       5.156   4.068  15.674  0.00  0.00    +0.000 NA
ENDBRANCH   1  10
BRANCH   1  13
ATOM     13  C   UNL     1       2.614   5.125  18.120  0.00  0.00    +0.000 C 
ATOM     14  O   UNL     1       1.421   4.898  17.954  0.00  0.00    +0.000 OA
ATOM     15  N   UNL     1       3.157   6.387  18.253  0.00  0.00    +0.000 N 
ATOM     16  H   UNL     1       3.923   6.567  17.622  0.00  0.00    +0.000 HD
BRANCH  15  17
ATOM     17  C   UNL     1       2.368   7.453  18.712  0.00  0.00    +0.000 A 
ATOM     18  C   UNL     1       1.956   8.437  17.802  0.00  0.00    +0.000 A 
ATOM     19  C   UNL     1       1.182   9.515  18.229  0.00  0.00    +0.000 A 
ATOM     20  C   UNL     1       0.844   9.622  19.574  0.00  0.00    +0.000 A 
ATOM     21 BR   UNL     1      -0.125  11.129  20.177  0.00  0.00    +0.000 Br
ATOM     22  C   UNL     1       1.228   8.632  20.482  0.00  0.00    +0.000 A 
ATOM     23  C   UNL     1       1.963   7.525  20.042  0.00  0.00    +0.000 A 
ENDBRANCH  15  17
ENDBRANCH   1  13
TORSDOF 3
ENDMDL
MODEL 6
REMARK VINA RESULT:      -7.2      1.166      1.347
REMARK  Name = 
REMARK  4 active torsions:
REMARK  status: ('A' for Active; 'I' for Inactive)
REMARK    1  A    between atoms: C_1  and  C_2
REMARK    2  A    between atoms: C_9  and  O_10
REMARK    3  A    between atoms: O_10  and  C_11
REMARK    4  A    between atoms: N_13  and  C_14
REMARK                            x       y       z     vdW  Elec       q    Type
REMARK                         _______ _______ _______ _____ _____    ______ ____
ROOT
ATOM      1  O   UNL     1       2.672   5.989  20.354  0.00  0.00    +0.000 OA
ENDROOT
BRANCH   1  10
ATOM      2  C   UNL     1       7.391   6.011  18.583  0.00  0.00    +0.000 C 
ATOM      3  C   UNL     1       6.143   5.394  18.034  0.00  0.00    +0.000 A 
ATOM      4  C   UNL     1       6.174   4.502  16.977  0.00  0.00    +0.000 A 
ATOM      5  C   UNL     1       4.993   3.860  16.618  0.00  0.00    +0.000 A 
ATOM      6  C   UNL     1       3.825   4.072  17.367  0.00  0.00    +0.000 A 
ATOM      7  C   UNL     1       2.631   3.388  17.070  0.00  0.00    +0.000 A 
ATOM      8  C   UNL     1       1.494   3.573  17.853  0.00  0.00    +0.000 A 
ATOM      9  C   UNL     1       1.542   4.427  18.948  0.00  0.00    +0.000 A 
ATOM     10  C   UNL     1       2.734   5.105  19.244  0.00  0.00    +0.000 A 
ATOM     11  C   UNL     1       3.881   4.980  18.444  0.00  0.00    +0.000 A 
ATOM     12  N   UNL     1       5.005   5.680  18.703  0.00  0.00    +0.000 NA
ENDBRANCH   1  10
BRANCH   1  13
ATOM     13  C   UNL     1       2.171   7.275  20.144  0.00  0.00    +0.000 C 
ATOM     14  O   UNL     1       2.102   7.841  19.059  0.00  0.00    +0.000 OA
ATOM     15  N   UNL     1       1.848   7.861  21.351  0.00  0.00    +0.000 N 
ATOM     16  H   UNL     1       2.574   7.781  22.047  0.00  0.00    +0.000 HD
BRANCH  15  17
ATOM     17  C   UNL     1       0.955   8.943  21.398  0.00  0.00    +0.000 A 
ATOM     18  C   UNL     1       0.428   9.338  22.635  0.00  0.00    +0.000 A 
ATOM     19  C   UNL     1      -0.471  10.402  22.714  0.00  0.00    +0.000 A 
ATOM     20  C   UNL     1      -0.862  11.051  21.547  0.00  0.00    +0.000 A 
ATOM     21 BR   UNL     1      -2.151  12.431  21.633  0.00  0.00    +0.000 Br
ATOM     22  C   UNL     1      -0.321  10.680  20.313  0.00  0.00    +0.000 A 
ATOM     23  C   UNL     1       0.618   9.644  20.243  0.00  0.00    +0.000 A 
ENDBRANCH  15  17
ENDBRANCH   1  13
TORSDOF 3
ENDMDL
MODEL 7
REMARK VINA RESULT:      -7.2      1.963      3.357
REMARK  Name = 
REMARK  4 active torsions:
REMARK  status: ('A' for Active; 'I' for Inactive)
REMARK    1  A    between atoms: C_1  and  C_2
REMARK    2  A    between atoms: C_9  and  O_10
REMARK    3  A    between atoms: O_10  and  C_11
REMARK    4  A    between atoms: N_13  and  C_14
REMARK                            x       y       z     vdW  Elec       q    Type
REMARK                         _______ _______ _______ _____ _____    ______ ____
ROOT
ATOM      1  O   UNL     1       2.600   7.093  17.487  0.00  0.00    +0.000 OA
ENDROOT
BRANCH   1  10
ATOM      2  C   UNL     1       0.836   2.950  19.750  0.00  0.00    +0.000 C 
ATOM      3  C   UNL     1       2.234   3.460  19.596  0.00  0.00    +0.000 A 
ATOM      4  C   UNL     1       3.334   2.682  19.913  0.00  0.00    +0.000 A 
ATOM      5  C   UNL     1       4.600   3.170  19.605  0.00  0.00    +0.000 A 
ATOM      6  C   UNL     1       4.734   4.392  18.928  0.00  0.00    +0.000 A 
ATOM      7  C   UNL     1       5.997   4.882  18.545  0.00  0.00    +0.000 A 
ATOM      8  C   UNL     1       6.110   6.072  17.830  0.00  0.00    +0.000 A 
ATOM      9  C   UNL     1       4.965   6.775  17.476  0.00  0.00    +0.000 A 
ATOM     10  C   UNL     1       3.707   6.283  17.856  0.00  0.00    +0.000 A 
ATOM     11  C   UNL     1       3.564   5.114  18.621  0.00  0.00    +0.000 A 
ATOM     12  N   UNL     1       2.353   4.680  19.031  0.00  0.00    +0.000 NA
ENDBRANCH   1  10
BRANCH   1  13
ATOM     13  C   UNL     1       2.327   8.224  18.259  0.00  0.00    +0.000 C 
ATOM     14  O   UNL     1       2.546   9.382  17.922  0.00  0.00    +0.000 OA
ATOM     15  N   UNL     1       1.860   7.849  19.502  0.00  0.00    +0.000 N 
ATOM     16  H   UNL     1       2.421   7.138  19.948  0.00  0.00    +0.000 HD
BRANCH  15  17
ATOM     17  C   UNL     1       1.129   8.753  20.288  0.00  0.00    +0.000 A 
ATOM     18  C   UNL     1       1.232   8.680  21.684  0.00  0.00    +0.000 A 
ATOM     19  C   UNL     1       0.509   9.556  22.493  0.00  0.00    +0.000 A 
ATOM     20  C   UNL     1      -0.338  10.489  21.902  0.00  0.00    +0.000 A 
ATOM     21 BR   UNL     1      -1.391  11.617  22.993  0.00  0.00    +0.000 Br
ATOM     22  C   UNL     1      -0.425  10.585  20.511  0.00  0.00    +0.000 A 
ATOM     23  C   UNL     1       0.339   9.737  19.700  0.00  0.00    +0.000 A 
ENDBRANCH  15  17
ENDBRANCH   1  13
TORSDOF 3
ENDMDL
MODEL 8
REMARK VINA RESULT:      -7.1      0.919      1.383
REMARK  Name = 
REMARK  4 active torsions:
REMARK  status: ('A' for Active; 'I' for Inactive)
REMARK    1  A    between atoms: C_1  and  C_2
REMARK    2  A    between atoms: C_9  and  O_10
REMARK    3  A    between atoms: O_10  and  C_11
REMARK    4  A    between atoms: N_13  and  C_14
REMARK                            x       y       z     vdW  Elec       q    Type
REMARK                         _______ _______ _______ _____ _____    ______ ____
ROOT
ATOM      1  O   UNL     1       3.311   5.369  20.131  0.00  0.00    +0.000 OA
ENDROOT
BRANCH   1  10
ATOM      2  C   UNL     1       7.254   7.124  17.529  0.00  0.00    +0.000 C 
ATOM      3  C   UNL     1       6.177   6.161  17.141  0.00  0.00    +0.000 A 
ATOM      4  C   UNL     1       6.252   5.412  15.980  0.00  0.00    +0.000 A 
ATOM      5  C   UNL     1       5.286   4.434  15.761  0.00  0.00    +0.000 A 
ATOM      6  C   UNL     1       4.311   4.181  16.738  0.00  0.00    +0.000 A 
ATOM      7  C   UNL     1       3.361   3.155  16.574  0.00  0.00    +0.000 A 
ATOM      8  C   UNL     1       2.430   2.884  17.575  0.00  0.00    +0.000 A 
ATOM      9  C   UNL     1       2.449   3.622  18.753  0.00  0.00    +0.000 A 
ATOM     10  C   UNL     1       3.399   4.641  18.914  0.00  0.00    +0.000 A 
ATOM     11  C   UNL     1       4.316   4.973  17.903  0.00  0.00    +0.000 A 
ATOM     12  N   UNL     1       5.188   5.993  18.045  0.00  0.00    +0.000 NA
ENDBRANCH   1  10
BRANCH   1  13
ATOM     13  C   UNL     1       2.143   6.092  20.382  0.00  0.00    +0.000 C 
ATOM     14  O   UNL     1       1.087   5.617  20.783  0.00  0.00    +0.000 OA
ATOM     15  N   UNL     1       2.317   7.413  20.023  0.00  0.00    +0.000 N 
ATOM     16  H   UNL     1       2.720   7.533  19.105  0.00  0.00    +0.000 HD
BRANCH  15  17
ATOM     17  C   UNL     1       1.481   8.409  20.552  0.00  0.00    +0.000 A 
ATOM     18  C   UNL     1       0.846   9.301  19.677  0.00  0.00    +0.000 A 
ATOM     19  C   UNL     1       0.019  10.308  20.173  0.00  0.00    +0.000 A 
ATOM     20  C   UNL     1      -0.149  10.438  21.548  0.00  0.00    +0.000 A 
ATOM     21 BR   UNL     1      -1.193  11.857  22.232  0.00  0.00    +0.000 Br
ATOM     22  C   UNL     1       0.459   9.535  22.424  0.00  0.00    +0.000 A 
ATOM     23  C   UNL     1       1.249   8.495  21.922  0.00  0.00    +0.000 A 
ENDBRANCH  15  17
ENDBRANCH   1  13
TORSDOF 3
ENDMDL
MODEL 9
REMARK VINA RESULT:      -7.1      1.184      1.714
REMARK  Name = 
REMARK  4 active torsions:
REMARK  status: ('A' for Active; 'I' for Inactive)
REMARK    1  A    between atoms: C_1  and  C_2
REMARK    2  A    between atoms: C_9  and  O_10
REMARK    3  A    between atoms: O_10  and  C_11
REMARK    4  A    between atoms: N_13  and  C_14
REMARK                            x       y       z     vdW  Elec       q    Type
REMARK                         _______ _______ _______ _____ _____    ______ ____
ROOT
ATOM      1  O   UNL     1       2.789   6.101  20.284  0.00  0.00    +0.000 OA
ENDROOT
BRANCH   1  10
ATOM      2  C   UNL     1       7.431   6.075  18.321  0.00  0.00    +0.000 C 
ATOM      3  C   UNL     1       6.162   5.446  17.839  0.00  0.00    +0.000 A 
ATOM      4  C   UNL     1       6.151   4.527  16.805  0.00  0.00    +0.000 A 
ATOM      5  C   UNL     1       4.956   3.877  16.511  0.00  0.00    +0.000 A 
ATOM      6  C   UNL     1       3.820   4.109  17.301  0.00  0.00    +0.000 A 
ATOM      7  C   UNL     1       2.615   3.418  17.070  0.00  0.00    +0.000 A 
ATOM      8  C   UNL     1       1.510   3.623  17.895  0.00  0.00    +0.000 A 
ATOM      9  C   UNL     1       1.603   4.505  18.965  0.00  0.00    +0.000 A 
ATOM     10  C   UNL     1       2.806   5.189  19.195  0.00  0.00    +0.000 A 
ATOM     11  C   UNL     1       3.919   5.043  18.351  0.00  0.00    +0.000 A 
ATOM     12  N   UNL     1       5.052   5.749  18.547  0.00  0.00    +0.000 NA
ENDBRANCH   1  10
BRANCH   1  13
ATOM     13  C   UNL     1       2.198   7.350  20.087  0.00  0.00    +0.000 C 
ATOM     14  O   UNL     1       2.042   7.898  19.002  0.00  0.00    +0.000 OA
ATOM     15  N   UNL     1       1.897   7.929  21.303  0.00  0.00    +0.000 N 
ATOM     16  H   UNL     1       2.659   7.903  21.964  0.00  0.00    +0.000 HD
BRANCH  15  17
ATOM     17  C   UNL     1       0.941   8.953  21.384  0.00  0.00    +0.000 A 
ATOM     18  C   UNL     1       0.473   9.544  20.203  0.00  0.00    +0.000 A 
ATOM     19  C   UNL     1      -0.468  10.572  20.251  0.00  0.00    +0.000 A 
ATOM     20  C   UNL     1      -0.919  11.026  21.486  0.00  0.00    +0.000 A 
ATOM     21 BR   UNL     1      -2.123  12.482  21.563  0.00  0.00    +0.000 Br
ATOM     22  C   UNL     1      -0.477  10.424  22.667  0.00  0.00    +0.000 A 
ATOM     23  C   UNL     1       0.430   9.359  22.614  0.00  0.00    +0.000 A 
ENDBRANCH  15  17
ENDBRANCH   1  13
TORSDOF 3
ENDMDL
