MODEL 1
REMARK VINA RESULT:      -9.0      0.000      0.000
REMARK  Name = 
REMARK  5 active torsions:
REMARK  status: ('A' for Active; 'I' for Inactive)
REMARK    1  A    between atoms: C_1  and  O_2
REMARK    2  A    between atoms: O_2  and  C_3
REMARK    3  A    between atoms: C_8  and  N_9
REMARK    4  A    between atoms: C_10  and  C_12
REMARK    5  A    between atoms: C_15  and  N_16
REMARK                            x       y       z     vdW  Elec       q    Type
REMARK                         _______ _______ _______ _____ _____    ______ ____
ROOT
ATOM      1  C   UNL     1       1.378   9.264  19.403  0.00  0.00    +0.000 A 
ATOM      2  C   UNL     1       1.835   8.989  18.117  0.00  0.00    +0.000 A 
ATOM      3  C   UNL     1       2.334   7.720  17.809  0.00  0.00    +0.000 A 
ATOM      4  C   UNL     1       2.391   6.695  18.768  0.00  0.00    +0.000 A 
ATOM      5  C   UNL     1       1.946   7.004  20.066  0.00  0.00    +0.000 A 
ATOM      6  C   UNL     1       1.453   8.277  20.384  0.00  0.00    +0.000 A 
ENDROOT
BRANCH   4   7
ATOM      7  N   UNL     1       2.872   5.394  18.426  0.00  0.00    +0.000 N 
ATOM      8  C   UNL     1       4.123   4.920  18.782  0.00  0.00    +0.000 C 
ATOM      9  O   UNL     1       4.997   5.453  19.455  0.00  0.00    +0.000 OA
ATOM     10  C   UNL     1       4.299   3.536  18.243  0.00  0.00    +0.000 C 
ATOM     11  C   UNL     1       4.348   2.410  19.295  0.00  0.00    +0.000 C 
ATOM     12  C   UNL     1       3.177   2.514  20.250  0.00  0.00    +0.000 C 
ATOM     13  C   UNL     1       2.067   2.217  19.556  0.00  0.00    +0.000 C 
ATOM     14  C   UNL     1       2.495   1.939  18.133  0.00  0.00    +0.000 C 
ATOM     15  C   UNL     1       3.830   1.245  18.439  0.00  0.00    +0.000 C 
ATOM     16  C   UNL     1       3.000   3.242  17.479  0.00  0.00    +0.000 C 
ATOM     17  C   UNL     1       2.146   4.458  17.710  0.00  0.00    +0.000 C 
ATOM     18  O   UNL     1       1.011   4.534  17.258  0.00  0.00    +0.000 OA
ENDBRANCH   4   7
BRANCH   1  20
ATOM     19  N   UNL     1      -0.385  10.572  20.429  0.00  0.00    +0.000 N 
ATOM     20  C   UNL     1       0.819  10.593  19.751  0.00  0.00    +0.000 C 
ATOM     21  O   UNL     1       1.443  11.602  19.474  0.00  0.00    +0.000 OA
ATOM     22  H   UNL     1      -0.784   9.687  20.708  0.00  0.00    +0.000 HD
BRANCH  19  28
ATOM     23  C   UNL     1      -1.706  11.574  22.330  0.00  0.00    +0.000 C 
ATOM     24  C   UNL     1      -2.499  12.822  22.745  0.00  0.00    +0.000 C 
ATOM     25  C   UNL     1      -3.469  13.293  21.676  0.00  0.00    +0.000 C 
ATOM     26  C   UNL     1      -2.745  13.580  20.371  0.00  0.00    +0.000 C 
ATOM     27  C   UNL     1      -2.013  12.338  19.885  0.00  0.00    +0.000 C 
ATOM     28  C   UNL     1      -1.041  11.780  20.937  0.00  0.00    +0.000 C 
BRANCH  23  30
ATOM     29  C   UNL     1      -0.357   9.954  23.465  0.00  0.00    +0.000 C 
ATOM     30  O   UNL     1      -0.670  11.335  23.306  0.00  0.00    +0.000 OA
ENDBRANCH  23  30
ENDBRANCH  19  28
ENDBRANCH   1  20
TORSDOF 4
ENDMDL
MODEL 2
REMARK VINA RESULT:      -8.8      1.866      2.720
REMARK  Name = 
REMARK  5 active torsions:
REMARK  status: ('A' for Active; 'I' for Inactive)
REMARK    1  A    between atoms: C_1  and  O_2
REMARK    2  A    between atoms: O_2  and  C_3
REMARK    3  A    between atoms: C_8  and  N_9
REMARK    4  A    between atoms: C_10  and  C_12
REMARK    5  A    between atoms: C_15  and  N_16
REMARK                            x       y       z     vdW  Elec       q    Type
REMARK                         _______ _______ _______ _____ _____    ______ ____
ROOT
ATOM      1  C   UNL     1       1.370   9.247  19.825  0.00  0.00    +0.000 A 
ATOM      2  C   UNL     1       1.379   8.179  20.717  0.00  0.00    +0.000 A 
ATOM      3  C   UNL     1       1.844   6.927  20.305  0.00  0.00    +0.000 A 
ATOM      4  C   UNL     1       2.310   6.705  18.999  0.00  0.00    +0.000 A 
ATOM      5  C   UNL     1       2.269   7.793  18.108  0.00  0.00    +0.000 A 
ATOM      6  C   UNL     1       1.796   9.049  18.512  0.00  0.00    +0.000 A 
ENDROOT
BRANCH   4   7
ATOM      7  N   UNL     1       2.813   5.428  18.605  0.00  0.00    +0.000 N 
ATOM      8  C   UNL     1       4.050   4.938  18.989  0.00  0.00    +0.000 C 
ATOM      9  O   UNL     1       4.891   5.434  19.729  0.00  0.00    +0.000 OA
ATOM     10  C   UNL     1       4.257   3.587  18.379  0.00  0.00    +0.000 C 
ATOM     11  C   UNL     1       4.266   2.403  19.367  0.00  0.00    +0.000 C 
ATOM     12  C   UNL     1       3.054   2.449  20.274  0.00  0.00    +0.000 C 
ATOM     13  C   UNL     1       1.977   2.188  19.515  0.00  0.00    +0.000 C 
ATOM     14  C   UNL     1       2.469   1.993  18.098  0.00  0.00    +0.000 C 
ATOM     15  C   UNL     1       3.794   1.287  18.424  0.00  0.00    +0.000 C 
ATOM     16  C   UNL     1       2.995   3.333  17.543  0.00  0.00    +0.000 C 
ATOM     17  C   UNL     1       2.124   4.531  17.805  0.00  0.00    +0.000 C 
ATOM     18  O   UNL     1       1.010   4.630  17.308  0.00  0.00    +0.000 OA
ENDBRANCH   4   7
BRANCH   1  20
ATOM     19  N   UNL     1       1.352  11.644  19.462  0.00  0.00    +0.000 N 
ATOM     20  C   UNL     1       0.909  10.593  20.242  0.00  0.00    +0.000 C 
ATOM     21  O   UNL     1       0.152  10.704  21.192  0.00  0.00    +0.000 OA
ATOM     22  H   UNL     1       1.894  11.451  18.631  0.00  0.00    +0.000 HD
BRANCH  19  28
ATOM     23  C   UNL     1      -0.055  13.534  18.563  0.00  0.00    +0.000 C 
ATOM     24  C   UNL     1      -0.352  15.030  18.741  0.00  0.00    +0.000 C 
ATOM     25  C   UNL     1       0.903  15.876  18.867  0.00  0.00    +0.000 C 
ATOM     26  C   UNL     1       1.766  15.402  20.025  0.00  0.00    +0.000 C 
ATOM     27  C   UNL     1       2.150  13.942  19.840  0.00  0.00    +0.000 C 
ATOM     28  C   UNL     1       0.924  13.030  19.663  0.00  0.00    +0.000 C 
BRANCH  23  30
ATOM     29  C   UNL     1      -1.992  13.051  19.884  0.00  0.00    +0.000 C 
ATOM     30  O   UNL     1      -1.290  12.797  18.670  0.00  0.00    +0.000 OA
ENDBRANCH  23  30
ENDBRANCH  19  28
ENDBRANCH   1  20
TORSDOF 4
ENDMDL
MODEL 3
REMARK VINA RESULT:      -8.8      0.974      1.211
REMARK  Name = 
REMARK  5 active torsions:
REMARK  status: ('A' for Active; 'I' for Inactive)
REMARK    1  A    between atoms: C_1  and  O_2
REMARK    2  A    between atoms: O_2  and  C_3
REMARK    3  A    between atoms: C_8  and  N_9
REMARK    4  A    between atoms: C_10  and  C_12
REMARK    5  A    between atoms: C_15  and  N_16
REMARK                            x       y       z     vdW  Elec       q    Type
REMARK                         _______ _______ _______ _____ _____    ______ ____
ROOT
ATOM      1  C   UNL     1       1.472   9.420  19.054  0.00  0.00    +0.000 A 
ATOM      2  C   UNL     1       1.988   9.025  17.823  0.00  0.00    +0.000 A 
ATOM      3  C   UNL     1       2.469   7.723  17.652  0.00  0.00    +0.000 A 
ATOM      4  C   UNL     1       2.449   6.785  18.696  0.00  0.00    +0.000 A 
ATOM      5  C   UNL     1       1.945   7.214  19.937  0.00  0.00    +0.000 A 
ATOM      6  C   UNL     1       1.470   8.520  20.119  0.00  0.00    +0.000 A 
ENDROOT
BRANCH   4   7
ATOM      7  N   UNL     1       2.913   5.449  18.492  0.00  0.00    +0.000 N 
ATOM      8  C   UNL     1       4.129   4.979  18.960  0.00  0.00    +0.000 C 
ATOM      9  O   UNL     1       4.978   5.547  19.636  0.00  0.00    +0.000 OA
ATOM     10  C   UNL     1       4.297   3.550  18.549  0.00  0.00    +0.000 C 
ATOM     11  C   UNL     1       4.255   2.516  19.693  0.00  0.00    +0.000 C 
ATOM     12  C   UNL     1       3.036   2.728  20.566  0.00  0.00    +0.000 C 
ATOM     13  C   UNL     1       1.959   2.397  19.835  0.00  0.00    +0.000 C 
ATOM     14  C   UNL     1       2.459   1.990  18.467  0.00  0.00    +0.000 C 
ATOM     15  C   UNL     1       3.756   1.295  18.908  0.00  0.00    +0.000 C 
ATOM     16  C   UNL     1       3.035   3.221  17.737  0.00  0.00    +0.000 C 
ATOM     17  C   UNL     1       2.203   4.471  17.816  0.00  0.00    +0.000 C 
ATOM     18  O   UNL     1       1.098   4.534  17.293  0.00  0.00    +0.000 OA
ENDBRANCH   4   7
BRANCH   1  20
ATOM     19  N   UNL     1      -0.224  10.861  20.014  0.00  0.00    +0.000 N 
ATOM     20  C   UNL     1       0.930  10.785  19.257  0.00  0.00    +0.000 C 
ATOM     21  O   UNL     1       1.528  11.746  18.803  0.00  0.00    +0.000 OA
ATOM     22  H   UNL     1      -0.596  10.023  20.438  0.00  0.00    +0.000 HD
BRANCH  19  28
ATOM     23  C   UNL     1      -0.460  12.593  21.832  0.00  0.00    +0.000 C 
ATOM     24  C   UNL     1      -1.255  13.843  22.236  0.00  0.00    +0.000 C 
ATOM     25  C   UNL     1      -2.753  13.686  22.038  0.00  0.00    +0.000 C 
ATOM     26  C   UNL     1      -3.078  13.338  20.595  0.00  0.00    +0.000 C 
ATOM     27  C   UNL     1      -2.371  12.055  20.184  0.00  0.00    +0.000 C 
ATOM     28  C   UNL     1      -0.850  12.129  20.399  0.00  0.00    +0.000 C 
BRANCH  23  30
ATOM     29  C   UNL     1       1.237  14.207  21.335  0.00  0.00    +0.000 C 
ATOM     30  O   UNL     1       0.948  12.910  21.849  0.00  0.00    +0.000 OA
ENDBRANCH  23  30
ENDBRANCH  19  28
ENDBRANCH   1  20
TORSDOF 4
ENDMDL
MODEL 4
REMARK VINA RESULT:      -8.7      1.993      9.600
REMARK  Name = 
REMARK  5 active torsions:
REMARK  status: ('A' for Active; 'I' for Inactive)
REMARK    1  A    between atoms: C_1  and  O_2
REMARK    2  A    between atoms: O_2  and  C_3
REMARK    3  A    between atoms: C_8  and  N_9
REMARK    4  A    between atoms: C_10  and  C_12
REMARK    5  A    between atoms: C_15  and  N_16
REMARK                            x       y       z     vdW  Elec       q    Type
REMARK                         _______ _______ _______ _____ _____    ______ ____
ROOT
ATOM      1  C   UNL     1       2.110   8.036  18.681  0.00  0.00    +0.000 A 
ATOM      2  C   UNL     1       1.616   8.128  19.979  0.00  0.00    +0.000 A 
ATOM      3  C   UNL     1       0.971   9.295  20.400  0.00  0.00    +0.000 A 
ATOM      4  C   UNL     1       0.803  10.396  19.545  0.00  0.00    +0.000 A 
ATOM      5  C   UNL     1       1.332  10.289  18.246  0.00  0.00    +0.000 A 
ATOM      6  C   UNL     1       1.987   9.125  17.820  0.00  0.00    +0.000 A 
ENDROOT
BRANCH   4   7
ATOM      7  N   UNL     1       0.111  11.567  19.982  0.00  0.00    +0.000 N 
ATOM      8  C   UNL     1      -1.202  11.853  19.649  0.00  0.00    +0.000 C 
ATOM      9  O   UNL     1      -2.004  11.193  19.000  0.00  0.00    +0.000 OA
ATOM     10  C   UNL     1      -1.592  13.163  20.258  0.00  0.00    +0.000 C 
ATOM     11  C   UNL     1      -2.635  13.087  21.392  0.00  0.00    +0.000 C 
ATOM     12  C   UNL     1      -2.229  12.063  22.431  0.00  0.00    +0.000 C 
ATOM     13  C   UNL     1      -1.146  12.544  23.063  0.00  0.00    +0.000 C 
ATOM     14  C   UNL     1      -0.815  13.876  22.428  0.00  0.00    +0.000 C 
ATOM     15  C   UNL     1      -2.252  14.354  22.169  0.00  0.00    +0.000 C 
ATOM     16  C   UNL     1      -0.329  13.654  20.980  0.00  0.00    +0.000 C 
ATOM     17  C   UNL     1       0.666  12.543  20.793  0.00  0.00    +0.000 C 
ATOM     18  O   UNL     1       1.787  12.602  21.283  0.00  0.00    +0.000 OA
ENDBRANCH   4   7
BRANCH   1  20
ATOM     19  N   UNL     1       3.987   6.986  17.562  0.00  0.00    +0.000 N 
ATOM     20  C   UNL     1       2.774   6.800  18.198  0.00  0.00    +0.000 C 
ATOM     21  O   UNL     1       2.261   5.715  18.414  0.00  0.00    +0.000 OA
ATOM     22  H   UNL     1       4.388   7.912  17.517  0.00  0.00    +0.000 HD
BRANCH  19  28
ATOM     23  C   UNL     1       6.059   5.624  18.025  0.00  0.00    +0.000 C 
ATOM     24  C   UNL     1       6.983   4.557  17.421  0.00  0.00    +0.000 C 
ATOM     25  C   UNL     1       7.358   4.843  15.977  0.00  0.00    +0.000 C 
ATOM     26  C   UNL     1       6.119   4.976  15.107  0.00  0.00    +0.000 C 
ATOM     27  C   UNL     1       5.218   6.083  15.630  0.00  0.00    +0.000 C 
ATOM     28  C   UNL     1       4.831   5.879  17.104  0.00  0.00    +0.000 C 
BRANCH  23  30
ATOM     29  C   UNL     1       5.006   3.860  19.255  0.00  0.00    +0.000 C 
ATOM     30  O   UNL     1       5.587   5.160  19.308  0.00  0.00    +0.000 OA
ENDBRANCH  23  30
ENDBRANCH  19  28
ENDBRANCH   1  20
TORSDOF 4
ENDMDL
MODEL 5
REMARK VINA RESULT:      -8.6      1.104      1.833
REMARK  Name = 
REMARK  5 active torsions:
REMARK  status: ('A' for Active; 'I' for Inactive)
REMARK    1  A    between atoms: C_1  and  O_2
REMARK    2  A    between atoms: O_2  and  C_3
REMARK    3  A    between atoms: C_8  and  N_9
REMARK    4  A    between atoms: C_10  and  C_12
REMARK    5  A    between atoms: C_15  and  N_16
REMARK                            x       y       z     vdW  Elec       q    Type
REMARK                         _______ _______ _______ _____ _____    ______ ____
ROOT
ATOM      1  C   UNL     1       1.294   9.268  19.511  0.00  0.00    +0.000 A 
ATOM      2  C   UNL     1       1.799   9.022  18.237  0.00  0.00    +0.000 A 
ATOM      3  C   UNL     1       2.321   7.763  17.923  0.00  0.00    +0.000 A 
ATOM      4  C   UNL     1       2.354   6.721  18.864  0.00  0.00    +0.000 A 
ATOM      5  C   UNL     1       1.860   7.001  20.152  0.00  0.00    +0.000 A 
ATOM      6  C   UNL     1       1.344   8.264  20.475  0.00  0.00    +0.000 A 
ENDROOT
BRANCH   4   7
ATOM      7  N   UNL     1       2.859   5.431  18.515  0.00  0.00    +0.000 N 
ATOM      8  C   UNL     1       4.106   4.967  18.897  0.00  0.00    +0.000 C 
ATOM      9  O   UNL     1       4.956   5.499  19.600  0.00  0.00    +0.000 OA
ATOM     10  C   UNL     1       4.312   3.593  18.341  0.00  0.00    +0.000 C 
ATOM     11  C   UNL     1       4.347   2.451  19.378  0.00  0.00    +0.000 C 
ATOM     12  C   UNL     1       3.152   2.528  20.304  0.00  0.00    +0.000 C 
ATOM     13  C   UNL     1       2.063   2.228  19.577  0.00  0.00    +0.000 C 
ATOM     14  C   UNL     1       2.531   1.977  18.161  0.00  0.00    +0.000 C 
ATOM     15  C   UNL     1       3.867   1.294  18.492  0.00  0.00    +0.000 C 
ATOM     16  C   UNL     1       3.037   3.295  17.540  0.00  0.00    +0.000 C 
ATOM     17  C   UNL     1       2.162   4.497  17.767  0.00  0.00    +0.000 C 
ATOM     18  O   UNL     1       1.039   4.567  17.287  0.00  0.00    +0.000 OA
ENDBRANCH   4   7
BRANCH   1  20
ATOM     19  N   UNL     1      -0.492  10.540  20.543  0.00  0.00    +0.000 N 
ATOM     20  C   UNL     1       0.710  10.585  19.863  0.00  0.00    +0.000 C 
ATOM     21  O   UNL     1       1.315  11.607  19.589  0.00  0.00    +0.000 OA
ATOM     22  H   UNL     1      -0.873   9.646  20.820  0.00  0.00    +0.000 HD
BRANCH  19  28
ATOM     23  C   UNL     1      -1.626  12.708  19.931  0.00  0.00    +0.000 C 
ATOM     24  C   UNL     1      -2.195  14.003  20.529  0.00  0.00    +0.000 C 
ATOM     25  C   UNL     1      -1.270  14.645  21.548  0.00  0.00    +0.000 C 
ATOM     26  C   UNL     1      -0.947  13.679  22.676  0.00  0.00    +0.000 C 
ATOM     27  C   UNL     1      -0.303  12.416  22.127  0.00  0.00    +0.000 C 
ATOM     28  C   UNL     1      -1.170  11.733  21.056  0.00  0.00    +0.000 C 
BRANCH  23  30
ATOM     29  C   UNL     1      -2.242  11.763  17.819  0.00  0.00    +0.000 C 
ATOM     30  O   UNL     1      -2.654  12.064  19.149  0.00  0.00    +0.000 OA
ENDBRANCH  23  30
ENDBRANCH  19  28
ENDBRANCH   1  20
TORSDOF 4
ENDMDL
MODEL 6
REMARK VINA RESULT:      -8.6      1.392      1.528
REMARK  Name = 
REMARK  5 active torsions:
REMARK  status: ('A' for Active; 'I' for Inactive)
REMARK    1  A    between atoms: C_1  and  O_2
REMARK    2  A    between atoms: O_2  and  C_3
REMARK    3  A    between atoms: C_8  and  N_9
REMARK    4  A    between atoms: C_10  and  C_12
REMARK    5  A    between atoms: C_15  and  N_16
REMARK                            x       y       z     vdW  Elec       q    Type
REMARK                         _______ _______ _______ _____ _____    ______ ____
ROOT
ATOM      1  C   UNL     1       1.203   9.316  19.501  0.00  0.00    +0.000 A 
ATOM      2  C   UNL     1       1.725   9.056  18.238  0.00  0.00    +0.000 A 
ATOM      3  C   UNL     1       2.268   7.800  17.950  0.00  0.00    +0.000 A 
ATOM      4  C   UNL     1       2.306   6.775  18.909  0.00  0.00    +0.000 A 
ATOM      5  C   UNL     1       1.795   7.069  20.187  0.00  0.00    +0.000 A 
ATOM      6  C   UNL     1       1.258   8.329  20.484  0.00  0.00    +0.000 A 
ENDROOT
BRANCH   4   7
ATOM      7  N   UNL     1       2.833   5.486  18.588  0.00  0.00    +0.000 N 
ATOM      8  C   UNL     1       4.070   5.034  19.017  0.00  0.00    +0.000 C 
ATOM      9  O   UNL     1       4.890   5.578  19.745  0.00  0.00    +0.000 OA
ATOM     10  C   UNL     1       4.306   3.658  18.478  0.00  0.00    +0.000 C 
ATOM     11  C   UNL     1       4.314   2.524  19.523  0.00  0.00    +0.000 C 
ATOM     12  C   UNL     1       3.086   2.597  20.406  0.00  0.00    +0.000 C 
ATOM     13  C   UNL     1       2.026   2.284  19.643  0.00  0.00    +0.000 C 
ATOM     14  C   UNL     1       2.545   2.027  18.246  0.00  0.00    +0.000 C 
ATOM     15  C   UNL     1       3.874   1.357  18.629  0.00  0.00    +0.000 C 
ATOM     16  C   UNL     1       3.062   3.345  17.634  0.00  0.00    +0.000 C 
ATOM     17  C   UNL     1       2.171   4.542  17.822  0.00  0.00    +0.000 C 
ATOM     18  O   UNL     1       1.064   4.599  17.301  0.00  0.00    +0.000 OA
ENDBRANCH   4   7
BRANCH   1  20
ATOM     19  N   UNL     1       1.379  11.476  20.588  0.00  0.00    +0.000 N 
ATOM     20  C   UNL     1       0.596  10.630  19.826  0.00  0.00    +0.000 C 
ATOM     21  O   UNL     1      -0.505  10.912  19.385  0.00  0.00    +0.000 OA
ATOM     22  H   UNL     1       2.322  11.201  20.825  0.00  0.00    +0.000 HD
BRANCH  19  28
ATOM     23  C   UNL     1      -0.419  12.933  21.590  0.00  0.00    +0.000 C 
ATOM     24  C   UNL     1      -0.839  14.397  21.787  0.00  0.00    +0.000 C 
ATOM     25  C   UNL     1      -0.715  15.228  20.522  0.00  0.00    +0.000 C 
ATOM     26  C   UNL     1       0.706  15.190  19.981  0.00  0.00    +0.000 C 
ATOM     27  C   UNL     1       1.127  13.757  19.695  0.00  0.00    +0.000 C 
ATOM     28  C   UNL     1       0.987  12.846  20.927  0.00  0.00    +0.000 C 
BRANCH  23  30
ATOM     29  C   UNL     1      -1.309  11.230  23.018  0.00  0.00    +0.000 C 
ATOM     30  O   UNL     1      -0.363  12.287  22.879  0.00  0.00    +0.000 OA
ENDBRANCH  23  30
ENDBRANCH  19  28
ENDBRANCH   1  20
TORSDOF 4
ENDMDL
MODEL 7
REMARK VINA RESULT:      -8.5      1.883      2.439
REMARK  Name = 
REMARK  5 active torsions:
REMARK  status: ('A' for Active; 'I' for Inactive)
REMARK    1  A    between atoms: C_1  and  O_2
REMARK    2  A    between atoms: O_2  and  C_3
REMARK    3  A    between atoms: C_8  and  N_9
REMARK    4  A    between atoms: C_10  and  C_12
REMARK    5  A    between atoms: C_15  and  N_16
REMARK                            x       y       z     vdW  Elec       q    Type
REMARK                         _______ _______ _______ _____ _____    ______ ____
ROOT
ATOM      1  C   UNL     1       1.406   9.365  19.463  0.00  0.00    +0.000 A 
ATOM      2  C   UNL     1       1.416   8.356  20.422  0.00  0.00    +0.000 A 
ATOM      3  C   UNL     1       1.868   7.076  20.085  0.00  0.00    +0.000 A 
ATOM      4  C   UNL     1       2.320   6.769  18.792  0.00  0.00    +0.000 A 
ATOM      5  C   UNL     1       2.277   7.798  17.833  0.00  0.00    +0.000 A 
ATOM      6  C   UNL     1       1.817   9.080  18.162  0.00  0.00    +0.000 A 
ENDROOT
BRANCH   4   7
ATOM      7  N   UNL     1       2.810   5.464  18.475  0.00  0.00    +0.000 N 
ATOM      8  C   UNL     1       4.053   4.996  18.866  0.00  0.00    +0.000 C 
ATOM      9  O   UNL     1       4.911   5.537  19.552  0.00  0.00    +0.000 OA
ATOM     10  C   UNL     1       4.242   3.606  18.345  0.00  0.00    +0.000 C 
ATOM     11  C   UNL     1       4.268   2.491  19.411  0.00  0.00    +0.000 C 
ATOM     12  C   UNL     1       3.076   2.605  20.338  0.00  0.00    +0.000 C 
ATOM     13  C   UNL     1       1.982   2.298  19.622  0.00  0.00    +0.000 C 
ATOM     14  C   UNL     1       2.442   2.006  18.212  0.00  0.00    +0.000 C 
ATOM     15  C   UNL     1       3.772   1.316  18.557  0.00  0.00    +0.000 C 
ATOM     16  C   UNL     1       2.961   3.302  17.555  0.00  0.00    +0.000 C 
ATOM     17  C   UNL     1       2.101   4.519  17.754  0.00  0.00    +0.000 C 
ATOM     18  O   UNL     1       0.976   4.589  17.275  0.00  0.00    +0.000 OA
ENDBRANCH   4   7
BRANCH   1  20
ATOM     19  N   UNL     1       1.712  11.760  19.254  0.00  0.00    +0.000 N 
ATOM     20  C   UNL     1       0.958  10.738  19.798  0.00  0.00    +0.000 C 
ATOM     21  O   UNL     1      -0.043  10.899  20.476  0.00  0.00    +0.000 OA
ATOM     22  H   UNL     1       2.467  11.538  18.620  0.00  0.00    +0.000 HD
BRANCH  19  28
ATOM     23  C   UNL     1       1.269  13.635  20.881  0.00  0.00    +0.000 C 
ATOM     24  C   UNL     1       0.763  15.083  20.973  0.00  0.00    +0.000 C 
ATOM     25  C   UNL     1      -0.511  15.319  20.181  0.00  0.00    +0.000 C 
ATOM     26  C   UNL     1      -0.320  14.954  18.718  0.00  0.00    +0.000 C 
ATOM     27  C   UNL     1       0.102  13.499  18.584  0.00  0.00    +0.000 C 
ATOM     28  C   UNL     1       1.367  13.177  19.397  0.00  0.00    +0.000 C 
BRANCH  23  30
ATOM     29  C   UNL     1       3.522  14.447  20.874  0.00  0.00    +0.000 C 
ATOM     30  O   UNL     1       2.582  13.562  21.476  0.00  0.00    +0.000 OA
ENDBRANCH  23  30
ENDBRANCH  19  28
ENDBRANCH   1  20
TORSDOF 4
ENDMDL
MODEL 8
REMARK VINA RESULT:      -8.4      1.962      2.658
REMARK  Name = 
REMARK  5 active torsions:
REMARK  status: ('A' for Active; 'I' for Inactive)
REMARK    1  A    between atoms: C_1  and  O_2
REMARK    2  A    between atoms: O_2  and  C_3
REMARK    3  A    between atoms: C_8  and  N_9
REMARK    4  A    between atoms: C_10  and  C_12
REMARK    5  A    between atoms: C_15  and  N_16
REMARK                            x       y       z     vdW  Elec       q    Type
REMARK                         _______ _______ _______ _____ _____    ______ ____
ROOT
ATOM      1  C   UNL     1       1.339   9.346  19.076  0.00  0.00    +0.000 A 
ATOM      2  C   UNL     1       1.857   8.972  17.840  0.00  0.00    +0.000 A 
ATOM      3  C   UNL     1       2.387   7.689  17.662  0.00  0.00    +0.000 A 
ATOM      4  C   UNL     1       2.414   6.751  18.706  0.00  0.00    +0.000 A 
ATOM      5  C   UNL     1       1.907   7.160  19.953  0.00  0.00    +0.000 A 
ATOM      6  C   UNL     1       1.384   8.447  20.140  0.00  0.00    +0.000 A 
ENDROOT
BRANCH   4   7
ATOM      7  N   UNL     1       2.928   5.434  18.497  0.00  0.00    +0.000 N 
ATOM      8  C   UNL     1       4.154   5.004  18.975  0.00  0.00    +0.000 C 
ATOM      9  O   UNL     1       4.975   5.596  19.665  0.00  0.00    +0.000 OA
ATOM     10  C   UNL     1       4.377   3.585  18.554  0.00  0.00    +0.000 C 
ATOM     11  C   UNL     1       4.360   2.541  19.689  0.00  0.00    +0.000 C 
ATOM     12  C   UNL     1       3.125   2.702  20.550  0.00  0.00    +0.000 C 
ATOM     13  C   UNL     1       2.068   2.340  19.805  0.00  0.00    +0.000 C 
ATOM     14  C   UNL     1       2.597   1.962  18.439  0.00  0.00    +0.000 C 
ATOM     15  C   UNL     1       3.913   1.309  18.890  0.00  0.00    +0.000 C 
ATOM     16  C   UNL     1       3.137   3.219  17.726  0.00  0.00    +0.000 C 
ATOM     17  C   UNL     1       2.260   4.438  17.805  0.00  0.00    +0.000 C 
ATOM     18  O   UNL     1       1.160   4.466  17.270  0.00  0.00    +0.000 OA
ENDBRANCH   4   7
BRANCH   1  20
ATOM     19  N   UNL     1       1.433  11.514  20.156  0.00  0.00    +0.000 N 
ATOM     20  C   UNL     1       0.747  10.689  19.285  0.00  0.00    +0.000 C 
ATOM     21  O   UNL     1      -0.256  11.010  18.669  0.00  0.00    +0.000 OA
ATOM     22  H   UNL     1       2.313  11.203  20.545  0.00  0.00    +0.000 HD
BRANCH  19  28
ATOM     23  C   UNL     1       2.275  13.860  20.540  0.00  0.00    +0.000 C 
ATOM     24  C   UNL     1       1.827  15.269  20.953  0.00  0.00    +0.000 C 
ATOM     25  C   UNL     1       0.928  15.273  22.177  0.00  0.00    +0.000 C 
ATOM     26  C   UNL     1      -0.302  14.408  21.953  0.00  0.00    +0.000 C 
ATOM     27  C   UNL     1       0.104  12.980  21.622  0.00  0.00    +0.000 C 
ATOM     28  C   UNL     1       1.052  12.905  20.414  0.00  0.00    +0.000 C 
BRANCH  23  30
ATOM     29  C   UNL     1       2.675  15.156  18.566  0.00  0.00    +0.000 C 
ATOM     30  O   UNL     1       2.935  13.938  19.259  0.00  0.00    +0.000 OA
ENDBRANCH  23  30
ENDBRANCH  19  28
ENDBRANCH   1  20
TORSDOF 4
ENDMDL
MODEL 9
REMARK VINA RESULT:      -8.3      1.488      2.424
REMARK  Name = 
REMARK  5 active torsions:
REMARK  status: ('A' for Active; 'I' for Inactive)
REMARK    1  A    between atoms: C_1  and  O_2
REMARK    2  A    between atoms: O_2  and  C_3
REMARK    3  A    between atoms: C_8  and  N_9
REMARK    4  A    between atoms: C_10  and  C_12
REMARK    5  A    between atoms: C_15  and  N_16
REMARK                            x       y       z     vdW  Elec       q    Type
REMARK                         _______ _______ _______ _____ _____    ______ ____
ROOT
ATOM      1  C   UNL     1       1.346   9.324  19.707  0.00  0.00    +0.000 A 
ATOM      2  C   UNL     1       1.383   8.289  20.637  0.00  0.00    +0.000 A 
ATOM      3  C   UNL     1       1.854   7.027  20.261  0.00  0.00    +0.000 A 
ATOM      4  C   UNL     1       2.297   6.763  18.955  0.00  0.00    +0.000 A 
ATOM      5  C   UNL     1       2.228   7.818  18.026  0.00  0.00    +0.000 A 
ATOM      6  C   UNL     1       1.749   9.082  18.395  0.00  0.00    +0.000 A 
ENDROOT
BRANCH   4   7
ATOM      7  N   UNL     1       2.807   5.477  18.598  0.00  0.00    +0.000 N 
ATOM      8  C   UNL     1       4.041   5.000  19.005  0.00  0.00    +0.000 C 
ATOM      9  O   UNL     1       4.874   5.516  19.740  0.00  0.00    +0.000 OA
ATOM     10  C   UNL     1       4.256   3.635  18.431  0.00  0.00    +0.000 C 
ATOM     11  C   UNL     1       4.259   2.475  19.447  0.00  0.00    +0.000 C 
ATOM     12  C   UNL     1       3.038   2.541  20.342  0.00  0.00    +0.000 C 
ATOM     13  C   UNL     1       1.969   2.259  19.581  0.00  0.00    +0.000 C 
ATOM     14  C   UNL     1       2.474   2.031  18.173  0.00  0.00    +0.000 C 
ATOM     15  C   UNL     1       3.797   1.336  18.528  0.00  0.00    +0.000 C 
ATOM     16  C   UNL     1       3.002   3.357  17.590  0.00  0.00    +0.000 C 
ATOM     17  C   UNL     1       2.127   4.560  17.814  0.00  0.00    +0.000 C 
ATOM     18  O   UNL     1       1.017   4.643  17.305  0.00  0.00    +0.000 OA
ENDBRANCH   4   7
BRANCH   1  20
ATOM     19  N   UNL     1       0.200  11.371  19.100  0.00  0.00    +0.000 N 
ATOM     20  C   UNL     1       0.878  10.679  20.085  0.00  0.00    +0.000 C 
ATOM     21  O   UNL     1       1.065  11.088  21.219  0.00  0.00    +0.000 OA
ATOM     22  H   UNL     1       0.000  10.916  18.220  0.00  0.00    +0.000 HD
BRANCH  19  28
ATOM     23  C   UNL     1       0.617  13.795  19.659  0.00  0.00    +0.000 C 
ATOM     24  C   UNL     1      -0.094  15.107  20.021  0.00  0.00    +0.000 C 
ATOM     25  C   UNL     1      -1.164  14.931  21.084  0.00  0.00    +0.000 C 
ATOM     26  C   UNL     1      -2.203  13.910  20.648  0.00  0.00    +0.000 C 
ATOM     27  C   UNL     1      -1.543  12.570  20.360  0.00  0.00    +0.000 C 
ATOM     28  C   UNL     1      -0.417  12.682  19.319  0.00  0.00    +0.000 C 
BRANCH  23  30
ATOM     29  C   UNL     1       2.419  15.047  18.701  0.00  0.00    +0.000 C 
ATOM     30  O   UNL     1       1.451  14.021  18.503  0.00  0.00    +0.000 OA
ENDBRANCH  23  30
ENDBRANCH  19  28
ENDBRANCH   1  20
TORSDOF 4
ENDMDL
