MODEL 1
REMARK VINA RESULT:      -8.7      0.000      0.000
REMARK  Name = 
REMARK  7 active torsions:
REMARK  status: ('A' for Active; 'I' for Inactive)
REMARK    1  A    between atoms: C_1  and  C_2
REMARK    2  A    between atoms: C_8  and  C_9
REMARK    3  A    between atoms: C_9  and  O_10
REMARK    4  A    between atoms: C_9  and  C_11
REMARK    5  A    between atoms: C_9  and  C_13
REMARK    6  A    between atoms: C_11  and  O_12
REMARK    7  A    between atoms: C_23  and  O_24
REMARK                            x       y       z     vdW  Elec       q    Type
REMARK                         _______ _______ _______ _____ _____    ______ ____
ROOT
ATOM      1  C   UNL     1       2.030   3.137  21.669  0.00  0.00    +0.000 C 
ATOM      2  C   UNL     1       2.212   4.372  20.820  0.00  0.00    +0.000 A 
ATOM      3  C   UNL     1       1.484   5.517  21.162  0.00  0.00    +0.000 A 
ATOM      4  C   UNL     1       1.603   6.692  20.409  0.00  0.00    +0.000 A 
ATOM      5  C   UNL     1       2.484   6.757  19.330  0.00  0.00    +0.000 A 
ATOM      6  C   UNL     1       3.247   5.619  18.994  0.00  0.00    +0.000 A 
ATOM      7  O   UNL     1       4.159   5.725  17.963  0.00  0.00    +0.000 OA
ATOM      8  C   UNL     1       4.809   4.595  17.496  0.00  0.00    +0.000 A 
ATOM      9  C   UNL     1       4.623   3.378  18.028  0.00  0.00    +0.000 A 
ATOM     10  C   UNL     1       3.802   3.221  19.229  0.00  0.00    +0.000 A 
ATOM     11  O   UNL     1       3.732   2.124  19.767  0.00  0.00    +0.000 OA
ATOM     12  C   UNL     1       3.081   4.420  19.709  0.00  0.00    +0.000 A 
ATOM     13  C   UNL     1       2.553   8.016  18.541  0.00  0.00    +0.000 C 
ATOM     14  O   UNL     1       3.271   8.105  17.547  0.00  0.00    +0.000 OA
ATOM     15  C   UNL     1       1.725   9.182  18.928  0.00  0.00    +0.000 A 
ATOM     16  C   UNL     1       1.774  10.383  18.204  0.00  0.00    +0.000 A 
ATOM     17  C   UNL     1       0.985  11.474  18.573  0.00  0.00    +0.000 A 
ATOM     18  C   UNL     1       0.130  11.379  19.669  0.00  0.00    +0.000 A 
ATOM     19  C   UNL     1       0.067  10.190  20.393  0.00  0.00    +0.000 A 
ATOM     20  C   UNL     1       0.864   9.095  20.021  0.00  0.00    +0.000 A 
ATOM     21  C   UNL     1       0.772   7.851  20.797  0.00  0.00    +0.000 C 
ATOM     22  O   UNL     1       0.008   7.773  21.752  0.00  0.00    +0.000 OA
ENDROOT
BRANCH  16  23
ATOM     23  O   UNL     1       2.575  10.568  17.110  0.00  0.00    +0.000 OA
ATOM     24  H   UNL     1       2.929  11.484  17.132  0.00  0.00    +0.000 HD
ENDBRANCH  16  23
BRANCH   8  25
ATOM     25  C   UNL     1       5.796   4.813  16.337  0.00  0.00    +0.000 C 
BRANCH  25  26
ATOM     26  C   UNL     1       7.164   5.341  16.746  0.00  0.00    +0.000 C 
ATOM     27  C   UNL     1       7.571   5.543  18.187  0.00  0.00    +0.000 C 
ATOM     28  O   UNL     1       8.040   4.424  17.424  0.00  0.00    +0.000 OA
ENDBRANCH  25  26
BRANCH  25  29
ATOM     29  O   UNL     1       6.043   3.516  15.741  0.00  0.00    +0.000 OA
ATOM     30  H   UNL     1       5.279   3.298  15.180  0.00  0.00    +0.000 HD
ENDBRANCH  25  29
BRANCH  25  31
ATOM     31  C   UNL     1       5.233   5.696  15.182  0.00  0.00    +0.000 C 
BRANCH  31  32
ATOM     32  O   UNL     1       5.113   7.080  15.494  0.00  0.00    +0.000 OA
ATOM     33  H   UNL     1       5.723   7.574  14.903  0.00  0.00    +0.000 HD
ENDBRANCH  31  32
ENDBRANCH  25  31
ENDBRANCH   8  25
TORSDOF 6
ENDMDL
MODEL 2
REMARK VINA RESULT:      -8.5      0.933      1.406
REMARK  Name = 
REMARK  7 active torsions:
REMARK  status: ('A' for Active; 'I' for Inactive)
REMARK    1  A    between atoms: C_1  and  C_2
REMARK    2  A    between atoms: C_8  and  C_9
REMARK    3  A    between atoms: C_9  and  O_10
REMARK    4  A    between atoms: C_9  and  C_11
REMARK    5  A    between atoms: C_9  and  C_13
REMARK    6  A    between atoms: C_11  and  O_12
REMARK    7  A    between atoms: C_23  and  O_24
REMARK                            x       y       z     vdW  Elec       q    Type
REMARK                         _______ _______ _______ _____ _____    ______ ____
ROOT
ATOM      1  C   UNL     1       2.195   3.345  21.538  0.00  0.00    +0.000 C 
ATOM      2  C   UNL     1       2.301   4.636  20.765  0.00  0.00    +0.000 A 
ATOM      3  C   UNL     1       1.449   5.687  21.121  0.00  0.00    +0.000 A 
ATOM      4  C   UNL     1       1.494   6.908  20.437  0.00  0.00    +0.000 A 
ATOM      5  C   UNL     1       2.420   7.117  19.416  0.00  0.00    +0.000 A 
ATOM      6  C   UNL     1       3.306   6.075  19.068  0.00  0.00    +0.000 A 
ATOM      7  O   UNL     1       4.257   6.323  18.098  0.00  0.00    +0.000 OA
ATOM      8  C   UNL     1       5.038   5.288  17.614  0.00  0.00    +0.000 A 
ATOM      9  C   UNL     1       4.942   4.030  18.072  0.00  0.00    +0.000 A 
ATOM     10  C   UNL     1       4.078   3.730  19.214  0.00  0.00    +0.000 A 
ATOM     11  O   UNL     1       4.086   2.604  19.690  0.00  0.00    +0.000 OA
ATOM     12  C   UNL     1       3.220   4.828  19.711  0.00  0.00    +0.000 A 
ATOM     13  C   UNL     1       2.409   8.418  18.697  0.00  0.00    +0.000 C 
ATOM     14  O   UNL     1       3.167   8.630  17.753  0.00  0.00    +0.000 OA
ATOM     15  C   UNL     1       1.452   9.478  19.094  0.00  0.00    +0.000 A 
ATOM     16  C   UNL     1       1.424  10.717  18.435  0.00  0.00    +0.000 A 
ATOM     17  C   UNL     1       0.514  11.707  18.813  0.00  0.00    +0.000 A 
ATOM     18  C   UNL     1      -0.384  11.471  19.851  0.00  0.00    +0.000 A 
ATOM     19  C   UNL     1      -0.371  10.243  20.508  0.00  0.00    +0.000 A 
ATOM     20  C   UNL     1       0.547   9.250  20.129  0.00  0.00    +0.000 A 
ATOM     21  C   UNL     1       0.535   7.961  20.834  0.00  0.00    +0.000 C 
ATOM     22  O   UNL     1      -0.268   7.758  21.738  0.00  0.00    +0.000 OA
ENDROOT
BRANCH  16  23
ATOM     23  O   UNL     1       2.260  11.037  17.401  0.00  0.00    +0.000 OA
ATOM     24  H   UNL     1       1.810  11.692  16.824  0.00  0.00    +0.000 HD
ENDBRANCH  16  23
BRANCH   8  25
ATOM     25  C   UNL     1       6.059   5.662  16.527  0.00  0.00    +0.000 C 
BRANCH  25  26
ATOM     26  C   UNL     1       6.626   4.485  15.745  0.00  0.00    +0.000 C 
ATOM     27  C   UNL     1       6.261   4.200  14.307  0.00  0.00    +0.000 C 
ATOM     28  O   UNL     1       7.517   4.794  14.659  0.00  0.00    +0.000 OA
ENDBRANCH  25  26
BRANCH  25  29
ATOM     29  O   UNL     1       5.363   6.476  15.552  0.00  0.00    +0.000 OA
ATOM     30  H   UNL     1       4.458   6.128  15.468  0.00  0.00    +0.000 HD
ENDBRANCH  25  29
BRANCH  25  31
ATOM     31  C   UNL     1       7.235   6.548  17.039  0.00  0.00    +0.000 C 
BRANCH  31  32
ATOM     32  O   UNL     1       6.914   7.925  17.210  0.00  0.00    +0.000 OA
ATOM     33  H   UNL     1       6.334   8.192  16.463  0.00  0.00    +0.000 HD
ENDBRANCH  31  32
ENDBRANCH  25  31
ENDBRANCH   8  25
TORSDOF 6
ENDMDL
MODEL 3
REMARK VINA RESULT:      -8.2      0.772      1.016
REMARK  Name = 
REMARK  7 active torsions:
REMARK  status: ('A' for Active; 'I' for Inactive)
REMARK    1  A    between atoms: C_1  and  C_2
REMARK    2  A    between atoms: C_8  and  C_9
REMARK    3  A    between atoms: C_9  and  O_10
REMARK    4  A    between atoms: C_9  and  C_11
REMARK    5  A    between atoms: C_9  and  C_13
REMARK    6  A    between atoms: C_11  and  O_12
REMARK    7  A    between atoms: C_23  and  O_24
REMARK                            x       y       z     vdW  Elec       q    Type
REMARK                         _______ _______ _______ _____ _____    ______ ____
ROOT
ATOM      1  C   UNL     1       1.878   3.117  21.646  0.00  0.00    +0.000 C 
ATOM      2  C   UNL     1       2.077   4.373  20.835  0.00  0.00    +0.000 A 
ATOM      3  C   UNL     1       1.321   5.501  21.173  0.00  0.00    +0.000 A 
ATOM      4  C   UNL     1       1.454   6.694  20.453  0.00  0.00    +0.000 A 
ATOM      5  C   UNL     1       2.377   6.797  19.413  0.00  0.00    +0.000 A 
ATOM      6  C   UNL     1       3.168   5.677  19.082  0.00  0.00    +0.000 A 
ATOM      7  O   UNL     1       4.120   5.819  18.092  0.00  0.00    +0.000 OA
ATOM      8  C   UNL     1       4.805   4.710  17.626  0.00  0.00    +0.000 A 
ATOM      9  C   UNL     1       4.613   3.477  18.121  0.00  0.00    +0.000 A 
ATOM     10  C   UNL     1       3.747   3.282  19.284  0.00  0.00    +0.000 A 
ATOM     11  O   UNL     1       3.670   2.172  19.793  0.00  0.00    +0.000 OA
ATOM     12  C   UNL     1       2.990   4.459  19.762  0.00  0.00    +0.000 A 
ATOM     13  C   UNL     1       2.460   8.075  18.656  0.00  0.00    +0.000 C 
ATOM     14  O   UNL     1       3.217   8.197  17.695  0.00  0.00    +0.000 OA
ATOM     15  C   UNL     1       1.601   9.221  19.036  0.00  0.00    +0.000 A 
ATOM     16  C   UNL     1       1.663  10.439  18.342  0.00  0.00    +0.000 A 
ATOM     17  C   UNL     1       0.844  11.510  18.704  0.00  0.00    +0.000 A 
ATOM     18  C   UNL     1      -0.053  11.379  19.762  0.00  0.00    +0.000 A 
ATOM     19  C   UNL     1      -0.129  10.172  20.454  0.00  0.00    +0.000 A 
ATOM     20  C   UNL     1       0.697   9.097  20.091  0.00  0.00    +0.000 A 
ATOM     21  C   UNL     1       0.592   7.833  20.833  0.00  0.00    +0.000 C 
ATOM     22  O   UNL     1      -0.209   7.723  21.754  0.00  0.00    +0.000 OA
ENDROOT
BRANCH  16  23
ATOM     23  O   UNL     1       2.505  10.660  17.287  0.00  0.00    +0.000 OA
ATOM     24  H   UNL     1       2.342   9.972  16.606  0.00  0.00    +0.000 HD
ENDBRANCH  16  23
BRANCH   8  25
ATOM     25  C   UNL     1       5.834   4.967  16.514  0.00  0.00    +0.000 C 
BRANCH  25  26
ATOM     26  C   UNL     1       6.321   6.406  16.408  0.00  0.00    +0.000 C 
ATOM     27  C   UNL     1       7.166   7.070  17.470  0.00  0.00    +0.000 C 
ATOM     28  O   UNL     1       7.735   6.604  16.240  0.00  0.00    +0.000 OA
ENDBRANCH  25  26
BRANCH  25  29
ATOM     29  O   UNL     1       7.010   4.183  16.834  0.00  0.00    +0.000 OA
ATOM     30  H   UNL     1       6.798   3.250  16.662  0.00  0.00    +0.000 HD
ENDBRANCH  25  29
BRANCH  25  31
ATOM     31  C   UNL     1       5.383   4.477  15.105  0.00  0.00    +0.000 C 
BRANCH  31  32
ATOM     32  O   UNL     1       6.241   3.511  14.506  0.00  0.00    +0.000 OA
ATOM     33  H   UNL     1       6.808   3.978  13.854  0.00  0.00    +0.000 HD
ENDBRANCH  31  32
ENDBRANCH  25  31
ENDBRANCH   8  25
TORSDOF 6
ENDMDL
MODEL 4
REMARK VINA RESULT:      -7.0      1.542      4.721
REMARK  Name = 
REMARK  7 active torsions:
REMARK  status: ('A' for Active; 'I' for Inactive)
REMARK    1  A    between atoms: C_1  and  C_2
REMARK    2  A    between atoms: C_8  and  C_9
REMARK    3  A    between atoms: C_9  and  O_10
REMARK    4  A    between atoms: C_9  and  C_11
REMARK    5  A    between atoms: C_9  and  C_13
REMARK    6  A    between atoms: C_11  and  O_12
REMARK    7  A    between atoms: C_23  and  O_24
REMARK                            x       y       z     vdW  Elec       q    Type
REMARK                         _______ _______ _______ _____ _____    ______ ____
ROOT
ATOM      1  C   UNL     1       5.279   6.821  15.762  0.00  0.00    +0.000 C 
ATOM      2  C   UNL     1       4.301   6.977  16.901  0.00  0.00    +0.000 A 
ATOM      3  C   UNL     1       3.659   8.212  17.050  0.00  0.00    +0.000 A 
ATOM      4  C   UNL     1       2.746   8.423  18.091  0.00  0.00    +0.000 A 
ATOM      5  C   UNL     1       2.425   7.392  18.973  0.00  0.00    +0.000 A 
ATOM      6  C   UNL     1       3.041   6.133  18.815  0.00  0.00    +0.000 A 
ATOM      7  O   UNL     1       2.662   5.108  19.658  0.00  0.00    +0.000 OA
ATOM      8  C   UNL     1       3.352   3.908  19.644  0.00  0.00    +0.000 A 
ATOM      9  C   UNL     1       4.374   3.668  18.809  0.00  0.00    +0.000 A 
ATOM     10  C   UNL     1       4.720   4.644  17.774  0.00  0.00    +0.000 A 
ATOM     11  O   UNL     1       5.579   4.363  16.951  0.00  0.00    +0.000 OA
ATOM     12  C   UNL     1       4.005   5.939  17.809  0.00  0.00    +0.000 A 
ATOM     13  C   UNL     1       1.474   7.672  20.082  0.00  0.00    +0.000 C 
ATOM     14  O   UNL     1       1.202   6.814  20.919  0.00  0.00    +0.000 OA
ATOM     15  C   UNL     1       0.859   9.014  20.212  0.00  0.00    +0.000 A 
ATOM     16  C   UNL     1      -0.044   9.303  21.246  0.00  0.00    +0.000 A 
ATOM     17  C   UNL     1      -0.613  10.573  21.364  0.00  0.00    +0.000 A 
ATOM     18  C   UNL     1      -0.284  11.574  20.453  0.00  0.00    +0.000 A 
ATOM     19  C   UNL     1       0.617  11.301  19.426  0.00  0.00    +0.000 A 
ATOM     20  C   UNL     1       1.186  10.022  19.307  0.00  0.00    +0.000 A 
ATOM     21  C   UNL     1       2.138   9.764  18.219  0.00  0.00    +0.000 C 
ATOM     22  O   UNL     1       2.432  10.654  17.430  0.00  0.00    +0.000 OA
ENDROOT
BRANCH  16  23
ATOM     23  O   UNL     1      -0.422   8.389  22.192  0.00  0.00    +0.000 OA
ATOM     24  H   UNL     1      -0.577   7.526  21.750  0.00  0.00    +0.000 HD
ENDBRANCH  16  23
BRANCH   8  25
ATOM     25  C   UNL     1       2.862   2.834  20.629  0.00  0.00    +0.000 C 
BRANCH  25  26
ATOM     26  C   UNL     1       1.942   1.781  20.028  0.00  0.00    +0.000 C 
ATOM     27  C   UNL     1       0.820   2.116  19.073  0.00  0.00    +0.000 C 
ATOM     28  O   UNL     1       2.053   1.549  18.613  0.00  0.00    +0.000 OA
ENDBRANCH  25  26
BRANCH  25  29
ATOM     29  O   UNL     1       4.032   2.111  21.085  0.00  0.00    +0.000 OA
ATOM     30  H   UNL     1       4.555   1.870  20.301  0.00  0.00    +0.000 HD
ENDBRANCH  25  29
BRANCH  25  31
ATOM     31  C   UNL     1       2.205   3.409  21.920  0.00  0.00    +0.000 C 
BRANCH  31  32
ATOM     32  O   UNL     1       1.219   2.569  22.512  0.00  0.00    +0.000 OA
ATOM     33  H   UNL     1       0.644   3.133  23.075  0.00  0.00    +0.000 HD
ENDBRANCH  31  32
ENDBRANCH  25  31
ENDBRANCH   8  25
TORSDOF 6
ENDMDL
MODEL 5
REMARK VINA RESULT:      -6.6      1.447      4.663
REMARK  Name = 
REMARK  7 active torsions:
REMARK  status: ('A' for Active; 'I' for Inactive)
REMARK    1  A    between atoms: C_1  and  C_2
REMARK    2  A    between atoms: C_8  and  C_9
REMARK    3  A    between atoms: C_9  and  O_10
REMARK    4  A    between atoms: C_9  and  C_11
REMARK    5  A    between atoms: C_9  and  C_13
REMARK    6  A    between atoms: C_11  and  O_12
REMARK    7  A    between atoms: C_23  and  O_24
REMARK                            x       y       z     vdW  Elec       q    Type
REMARK                         _______ _______ _______ _____ _____    ______ ____
ROOT
ATOM      1  C   UNL     1       5.222   6.885  15.433  0.00  0.00    +0.000 C 
ATOM      2  C   UNL     1       4.316   6.949  16.638  0.00  0.00    +0.000 A 
ATOM      3  C   UNL     1       3.605   8.133  16.863  0.00  0.00    +0.000 A 
ATOM      4  C   UNL     1       2.755   8.259  17.968  0.00  0.00    +0.000 A 
ATOM      5  C   UNL     1       2.564   7.189  18.843  0.00  0.00    +0.000 A 
ATOM      6  C   UNL     1       3.251   5.979  18.610  0.00  0.00    +0.000 A 
ATOM      7  O   UNL     1       3.000   4.912  19.450  0.00  0.00    +0.000 OA
ATOM      8  C   UNL     1       3.766   3.763  19.357  0.00  0.00    +0.000 A 
ATOM      9  C   UNL     1       4.742   3.612  18.449  0.00  0.00    +0.000 A 
ATOM     10  C   UNL     1       4.949   4.631  17.420  0.00  0.00    +0.000 A 
ATOM     11  O   UNL     1       5.767   4.428  16.533  0.00  0.00    +0.000 OA
ATOM     12  C   UNL     1       4.154   5.873  17.537  0.00  0.00    +0.000 A 
ATOM     13  C   UNL     1       1.676   7.379  20.020  0.00  0.00    +0.000 C 
ATOM     14  O   UNL     1       1.520   6.486  20.850  0.00  0.00    +0.000 OA
ATOM     15  C   UNL     1       0.983   8.672  20.227  0.00  0.00    +0.000 A 
ATOM     16  C   UNL     1       0.136   8.877  21.327  0.00  0.00    +0.000 A 
ATOM     17  C   UNL     1      -0.507  10.102  21.516  0.00  0.00    +0.000 A 
ATOM     18  C   UNL     1      -0.309  11.142  20.611  0.00  0.00    +0.000 A 
ATOM     19  C   UNL     1       0.535  10.954  19.519  0.00  0.00    +0.000 A 
ATOM     20  C   UNL     1       1.178   9.721  19.329  0.00  0.00    +0.000 A 
ATOM     21  C   UNL     1       2.069   9.552  18.173  0.00  0.00    +0.000 C 
ATOM     22  O   UNL     1       2.247  10.477  17.389  0.00  0.00    +0.000 OA
ENDROOT
BRANCH  16  23
ATOM     23  O   UNL     1      -0.114   7.919  22.271  0.00  0.00    +0.000 OA
ATOM     24  H   UNL     1      -0.062   8.333  23.160  0.00  0.00    +0.000 HD
ENDBRANCH  16  23
BRANCH   8  25
ATOM     25  C   UNL     1       3.419   2.637  20.344  0.00  0.00    +0.000 C 
BRANCH  25  26
ATOM     26  C   UNL     1       2.535   3.053  21.511  0.00  0.00    +0.000 C 
ATOM     27  C   UNL     1       1.032   2.904  21.501  0.00  0.00    +0.000 C 
ATOM     28  O   UNL     1       1.871   2.002  22.233  0.00  0.00    +0.000 OA
ENDBRANCH  25  26
BRANCH  25  29
ATOM     29  O   UNL     1       2.651   1.650  19.610  0.00  0.00    +0.000 OA
ATOM     30  H   UNL     1       2.780   1.823  18.661  0.00  0.00    +0.000 HD
ENDBRANCH  25  29
BRANCH  25  31
ATOM     31  C   UNL     1       4.660   1.868  20.892  0.00  0.00    +0.000 C 
BRANCH  31  32
ATOM     32  O   UNL     1       5.237   0.940  19.980  0.00  0.00    +0.000 OA
ATOM     33  H   UNL     1       4.525   0.627  19.380  0.00  0.00    +0.000 HD
ENDBRANCH  31  32
ENDBRANCH  25  31
ENDBRANCH   8  25
TORSDOF 6
ENDMDL
MODEL 6
REMARK VINA RESULT:      -6.5      5.974     11.629
REMARK  Name = 
REMARK  7 active torsions:
REMARK  status: ('A' for Active; 'I' for Inactive)
REMARK    1  A    between atoms: C_1  and  C_2
REMARK    2  A    between atoms: C_8  and  C_9
REMARK    3  A    between atoms: C_9  and  O_10
REMARK    4  A    between atoms: C_9  and  C_11
REMARK    5  A    between atoms: C_9  and  C_13
REMARK    6  A    between atoms: C_11  and  O_12
REMARK    7  A    between atoms: C_23  and  O_24
REMARK                            x       y       z     vdW  Elec       q    Type
REMARK                         _______ _______ _______ _____ _____    ______ ____
ROOT
ATOM      1  C   UNL     1      -6.846  12.519  17.369  0.00  0.00    +0.000 C 
ATOM      2  C   UNL     1      -5.609  12.344  18.215  0.00  0.00    +0.000 A 
ATOM      3  C   UNL     1      -4.500  11.717  17.636  0.00  0.00    +0.000 A 
ATOM      4  C   UNL     1      -3.325  11.518  18.371  0.00  0.00    +0.000 A 
ATOM      5  C   UNL     1      -3.221  11.982  19.682  0.00  0.00    +0.000 A 
ATOM      6  C   UNL     1      -4.321  12.643  20.268  0.00  0.00    +0.000 A 
ATOM      7  O   UNL     1      -4.175  13.151  21.544  0.00  0.00    +0.000 OA
ATOM      8  C   UNL     1      -5.272  13.663  22.214  0.00  0.00    +0.000 A 
ATOM      9  C   UNL     1      -6.495  13.726  21.665  0.00  0.00    +0.000 A 
ATOM     10  C   UNL     1      -6.686  13.364  20.260  0.00  0.00    +0.000 A 
ATOM     11  O   UNL     1      -7.782  13.533  19.744  0.00  0.00    +0.000 OA
ATOM     12  C   UNL     1      -5.523  12.787  19.552  0.00  0.00    +0.000 A 
ATOM     13  C   UNL     1      -1.965  11.720  20.434  0.00  0.00    +0.000 C 
ATOM     14  O   UNL     1      -1.845  12.058  21.610  0.00  0.00    +0.000 OA
ATOM     15  C   UNL     1      -0.840  11.012  19.778  0.00  0.00    +0.000 A 
ATOM     16  C   UNL     1       0.357  10.756  20.463  0.00  0.00    +0.000 A 
ATOM     17  C   UNL     1       1.409  10.082  19.838  0.00  0.00    +0.000 A 
ATOM     18  C   UNL     1       1.277   9.651  18.520  0.00  0.00    +0.000 A 
ATOM     19  C   UNL     1       0.091   9.893  17.831  0.00  0.00    +0.000 A 
ATOM     20  C   UNL     1      -0.964  10.573  18.461  0.00  0.00    +0.000 A 
ATOM     21  C   UNL     1      -2.207  10.808  17.714  0.00  0.00    +0.000 C 
ATOM     22  O   UNL     1      -2.319  10.414  16.559  0.00  0.00    +0.000 OA
ENDROOT
BRANCH  16  23
ATOM     23  O   UNL     1       0.577  11.133  21.760  0.00  0.00    +0.000 OA
ATOM     24  H   UNL     1       1.310  11.786  21.777  0.00  0.00    +0.000 HD
ENDBRANCH  16  23
BRANCH   8  25
ATOM     25  C   UNL     1      -5.011  14.191  23.634  0.00  0.00    +0.000 C 
BRANCH  25  26
ATOM     26  C   UNL     1      -4.500  15.623  23.704  0.00  0.00    +0.000 C 
ATOM     27  C   UNL     1      -5.317  16.812  23.255  0.00  0.00    +0.000 C 
ATOM     28  O   UNL     1      -5.146  16.501  24.643  0.00  0.00    +0.000 OA
ENDBRANCH  25  26
BRANCH  25  29
ATOM     29  O   UNL     1      -6.285  14.201  24.325  0.00  0.00    +0.000 OA
ATOM     30  H   UNL     1      -6.780  14.981  24.021  0.00  0.00    +0.000 HD
ENDBRANCH  25  29
BRANCH  25  31
ATOM     31  C   UNL     1      -4.084  13.277  24.492  0.00  0.00    +0.000 C 
BRANCH  31  32
ATOM     32  O   UNL     1      -4.195  11.885  24.212  0.00  0.00    +0.000 OA
ATOM     33  H   UNL     1      -3.914  11.744  23.281  0.00  0.00    +0.000 HD
ENDBRANCH  31  32
ENDBRANCH  25  31
ENDBRANCH   8  25
TORSDOF 6
ENDMDL
MODEL 7
REMARK VINA RESULT:      -6.5      7.209     11.040
REMARK  Name = 
REMARK  7 active torsions:
REMARK  status: ('A' for Active; 'I' for Inactive)
REMARK    1  A    between atoms: C_1  and  C_2
REMARK    2  A    between atoms: C_8  and  C_9
REMARK    3  A    between atoms: C_9  and  O_10
REMARK    4  A    between atoms: C_9  and  C_11
REMARK    5  A    between atoms: C_9  and  C_13
REMARK    6  A    between atoms: C_11  and  O_12
REMARK    7  A    between atoms: C_23  and  O_24
REMARK                            x       y       z     vdW  Elec       q    Type
REMARK                         _______ _______ _______ _____ _____    ______ ____
ROOT
ATOM      1  C   UNL     1       0.045  11.318  18.373  0.00  0.00    +0.000 C 
ATOM      2  C   UNL     1      -0.950  11.934  19.325  0.00  0.00    +0.000 A 
ATOM      3  C   UNL     1      -0.456  12.663  20.412  0.00  0.00    +0.000 A 
ATOM      4  C   UNL     1      -1.328  13.252  21.335  0.00  0.00    +0.000 A 
ATOM      5  C   UNL     1      -2.710  13.161  21.165  0.00  0.00    +0.000 A 
ATOM      6  C   UNL     1      -3.221  12.454  20.056  0.00  0.00    +0.000 A 
ATOM      7  O   UNL     1      -4.589  12.430  19.870  0.00  0.00    +0.000 OA
ATOM      8  C   UNL     1      -5.141  11.620  18.893  0.00  0.00    +0.000 A 
ATOM      9  C   UNL     1      -4.397  10.863  18.072  0.00  0.00    +0.000 A 
ATOM     10  C   UNL     1      -2.938  10.969  18.099  0.00  0.00    +0.000 A 
ATOM     11  O   UNL     1      -2.279  10.357  17.270  0.00  0.00    +0.000 OA
ATOM     12  C   UNL     1      -2.347  11.809  19.163  0.00  0.00    +0.000 A 
ATOM     13  C   UNL     1      -3.597  13.776  22.188  0.00  0.00    +0.000 C 
ATOM     14  O   UNL     1      -4.820  13.674  22.113  0.00  0.00    +0.000 OA
ATOM     15  C   UNL     1      -3.012  14.500  23.340  0.00  0.00    +0.000 A 
ATOM     16  C   UNL     1      -3.826  15.093  24.317  0.00  0.00    +0.000 A 
ATOM     17  C   UNL     1      -3.264  15.768  25.403  0.00  0.00    +0.000 A 
ATOM     18  C   UNL     1      -1.880  15.856  25.531  0.00  0.00    +0.000 A 
ATOM     19  C   UNL     1      -1.060  15.266  24.571  0.00  0.00    +0.000 A 
ATOM     20  C   UNL     1      -1.628  14.590  23.479  0.00  0.00    +0.000 A 
ATOM     21  C   UNL     1      -0.740  13.971  22.485  0.00  0.00    +0.000 C 
ATOM     22  O   UNL     1       0.476  14.043  22.612  0.00  0.00    +0.000 OA
ENDROOT
BRANCH  16  23
ATOM     23  O   UNL     1      -5.193  15.052  24.282  0.00  0.00    +0.000 OA
ATOM     24  H   UNL     1      -5.475  14.758  23.388  0.00  0.00    +0.000 HD
ENDBRANCH  16  23
BRANCH   8  25
ATOM     25  C   UNL     1      -6.673  11.652  18.773  0.00  0.00    +0.000 C 
BRANCH  25  26
ATOM     26  C   UNL     1      -7.212  12.507  17.635  0.00  0.00    +0.000 C 
ATOM     27  C   UNL     1      -7.690  13.927  17.827  0.00  0.00    +0.000 C 
ATOM     28  O   UNL     1      -6.418  13.637  17.236  0.00  0.00    +0.000 OA
ENDBRANCH  25  26
BRANCH  25  29
ATOM     29  O   UNL     1      -7.105  10.300  18.480  0.00  0.00    +0.000 OA
ATOM     30  H   UNL     1      -6.393   9.697  18.755  0.00  0.00    +0.000 HD
ENDBRANCH  25  29
BRANCH  25  31
ATOM     31  C   UNL     1      -7.406  12.041  20.094  0.00  0.00    +0.000 C 
BRANCH  31  32
ATOM     32  O   UNL     1      -6.799  11.542  21.281  0.00  0.00    +0.000 OA
ATOM     33  H   UNL     1      -7.035  10.592  21.362  0.00  0.00    +0.000 HD
ENDBRANCH  31  32
ENDBRANCH  25  31
ENDBRANCH   8  25
TORSDOF 6
ENDMDL
MODEL 8
REMARK VINA RESULT:      -6.4      5.728     11.258
REMARK  Name = 
REMARK  7 active torsions:
REMARK  status: ('A' for Active; 'I' for Inactive)
REMARK    1  A    between atoms: C_1  and  C_2
REMARK    2  A    between atoms: C_8  and  C_9
REMARK    3  A    between atoms: C_9  and  O_10
REMARK    4  A    between atoms: C_9  and  C_11
REMARK    5  A    between atoms: C_9  and  C_13
REMARK    6  A    between atoms: C_11  and  O_12
REMARK    7  A    between atoms: C_23  and  O_24
REMARK                            x       y       z     vdW  Elec       q    Type
REMARK                         _______ _______ _______ _____ _____    ______ ____
ROOT
ATOM      1  C   UNL     1      -6.776  12.419  17.401  0.00  0.00    +0.000 C 
ATOM      2  C   UNL     1      -5.477  12.253  18.150  0.00  0.00    +0.000 A 
ATOM      3  C   UNL     1      -4.449  11.534  17.529  0.00  0.00    +0.000 A 
ATOM      4  C   UNL     1      -3.222  11.338  18.175  0.00  0.00    +0.000 A 
ATOM      5  C   UNL     1      -2.984  11.895  19.431  0.00  0.00    +0.000 A 
ATOM      6  C   UNL     1      -4.001  12.648  20.055  0.00  0.00    +0.000 A 
ATOM      7  O   UNL     1      -3.723  13.243  21.269  0.00  0.00    +0.000 OA
ATOM      8  C   UNL     1      -4.736  13.853  21.988  0.00  0.00    +0.000 A 
ATOM      9  C   UNL     1      -5.999  13.930  21.542  0.00  0.00    +0.000 A 
ATOM     10  C   UNL     1      -6.328  13.472  20.192  0.00  0.00    +0.000 A 
ATOM     11  O   UNL     1      -7.458  13.651  19.759  0.00  0.00    +0.000 OA
ATOM     12  C   UNL     1      -5.255  12.791  19.435  0.00  0.00    +0.000 A 
ATOM     13  C   UNL     1      -1.677  11.633  20.092  0.00  0.00    +0.000 C 
ATOM     14  O   UNL     1      -1.440  12.053  21.222  0.00  0.00    +0.000 OA
ATOM     15  C   UNL     1      -0.643  10.828  19.400  0.00  0.00    +0.000 A 
ATOM     16  C   UNL     1       0.600  10.571  19.999  0.00  0.00    +0.000 A 
ATOM     17  C   UNL     1       1.565   9.805  19.341  0.00  0.00    +0.000 A 
ATOM     18  C   UNL     1       1.300   9.282  18.078  0.00  0.00    +0.000 A 
ATOM     19  C   UNL     1       0.068   9.524  17.476  0.00  0.00    +0.000 A 
ATOM     20  C   UNL     1      -0.900  10.297  18.137  0.00  0.00    +0.000 A 
ATOM     21  C   UNL     1      -2.195  10.531  17.483  0.00  0.00    +0.000 C 
ATOM     22  O   UNL     1      -2.423  10.056  16.377  0.00  0.00    +0.000 OA
ENDROOT
BRANCH  16  23
ATOM     23  O   UNL     1       0.948  11.035  21.238  0.00  0.00    +0.000 OA
ATOM     24  H   UNL     1       0.945  12.016  21.217  0.00  0.00    +0.000 HD
ENDBRANCH  16  23
BRANCH   8  25
ATOM     25  C   UNL     1      -4.331  14.475  23.334  0.00  0.00    +0.000 C 
BRANCH  25  26
ATOM     26  C   UNL     1      -3.934  13.476  24.412  0.00  0.00    +0.000 C 
ATOM     27  C   UNL     1      -4.840  12.357  24.871  0.00  0.00    +0.000 C 
ATOM     28  O   UNL     1      -3.732  12.114  23.996  0.00  0.00    +0.000 OA
ENDBRANCH  25  26
BRANCH  25  29
ATOM     29  O   UNL     1      -3.146  15.275  23.093  0.00  0.00    +0.000 OA
ATOM     30  H   UNL     1      -2.770  14.996  22.240  0.00  0.00    +0.000 HD
ENDBRANCH  25  29
BRANCH  25  31
ATOM     31  C   UNL     1      -5.383  15.465  23.919  0.00  0.00    +0.000 C 
BRANCH  31  32
ATOM     32  O   UNL     1      -4.896  16.308  24.958  0.00  0.00    +0.000 OA
ATOM     33  H   UNL     1      -4.135  15.853  25.381  0.00  0.00    +0.000 HD
ENDBRANCH  31  32
ENDBRANCH  25  31
ENDBRANCH   8  25
TORSDOF 6
ENDMDL
MODEL 9
REMARK VINA RESULT:      -6.3      5.490      9.185
REMARK  Name = 
REMARK  7 active torsions:
REMARK  status: ('A' for Active; 'I' for Inactive)
REMARK    1  A    between atoms: C_1  and  C_2
REMARK    2  A    between atoms: C_8  and  C_9
REMARK    3  A    between atoms: C_9  and  O_10
REMARK    4  A    between atoms: C_9  and  C_11
REMARK    5  A    between atoms: C_9  and  C_13
REMARK    6  A    between atoms: C_11  and  O_12
REMARK    7  A    between atoms: C_23  and  O_24
REMARK                            x       y       z     vdW  Elec       q    Type
REMARK                         _______ _______ _______ _____ _____    ______ ____
ROOT
ATOM      1  C   UNL     1      -6.092  11.692  17.849  0.00  0.00    +0.000 C 
ATOM      2  C   UNL     1      -5.081  12.150  18.871  0.00  0.00    +0.000 A 
ATOM      3  C   UNL     1      -5.526  12.972  19.913  0.00  0.00    +0.000 A 
ATOM      4  C   UNL     1      -4.636  13.437  20.888  0.00  0.00    +0.000 A 
ATOM      5  C   UNL     1      -3.295  13.052  20.867  0.00  0.00    +0.000 A 
ATOM      6  C   UNL     1      -2.840  12.198  19.840  0.00  0.00    +0.000 A 
ATOM      7  O   UNL     1      -1.526  11.778  19.873  0.00  0.00    +0.000 OA
ATOM      8  C   UNL     1      -0.997  11.074  18.805  0.00  0.00    +0.000 A 
ATOM      9  C   UNL     1      -1.721  10.739  17.726  0.00  0.00    +0.000 A 
ATOM     10  C   UNL     1      -3.160  11.002  17.699  0.00  0.00    +0.000 A 
ATOM     11  O   UNL     1      -3.825  10.591  16.758  0.00  0.00    +0.000 OA
ATOM     12  C   UNL     1      -3.720  11.782  18.824  0.00  0.00    +0.000 A 
ATOM     13  C   UNL     1      -2.380  13.596  21.905  0.00  0.00    +0.000 C 
ATOM     14  O   UNL     1      -1.180  13.333  21.896  0.00  0.00    +0.000 OA
ATOM     15  C   UNL     1      -2.904  14.497  22.958  0.00  0.00    +0.000 A 
ATOM     16  C   UNL     1      -2.063  15.021  23.953  0.00  0.00    +0.000 A 
ATOM     17  C   UNL     1      -2.565  15.875  24.937  0.00  0.00    +0.000 A 
ATOM     18  C   UNL     1      -3.914  16.222  24.939  0.00  0.00    +0.000 A 
ATOM     19  C   UNL     1      -4.758  15.715  23.953  0.00  0.00    +0.000 A 
ATOM     20  C   UNL     1      -4.251  14.854  22.966  0.00  0.00    +0.000 A 
ATOM     21  C   UNL     1      -5.161  14.339  21.934  0.00  0.00    +0.000 C 
ATOM     22  O   UNL     1      -6.344  14.660  21.937  0.00  0.00    +0.000 OA
ENDROOT
BRANCH  16  23
ATOM     23  O   UNL     1      -0.725  14.744  24.028  0.00  0.00    +0.000 OA
ATOM     24  H   UNL     1      -0.224  15.536  23.736  0.00  0.00    +0.000 HD
ENDBRANCH  16  23
BRANCH   8  25
ATOM     25  C   UNL     1       0.479  10.662  18.931  0.00  0.00    +0.000 C 
BRANCH  25  26
ATOM     26  C   UNL     1       0.765   9.606  19.989  0.00  0.00    +0.000 C 
ATOM     27  C   UNL     1       0.748   9.900  21.471  0.00  0.00    +0.000 C 
ATOM     28  O   UNL     1      -0.332   9.211  20.829  0.00  0.00    +0.000 OA
ENDBRANCH  25  26
BRANCH  25  29
ATOM     29  O   UNL     1       0.861  10.060  17.669  0.00  0.00    +0.000 OA
ATOM     30  H   UNL     1       0.285   9.290  17.523  0.00  0.00    +0.000 HD
ENDBRANCH  25  29
BRANCH  25  31
ATOM     31  C   UNL     1       1.458  11.860  19.128  0.00  0.00    +0.000 C 
BRANCH  31  32
ATOM     32  O   UNL     1       0.886  13.000  19.760  0.00  0.00    +0.000 OA
ATOM     33  H   UNL     1       0.069  12.708  20.222  0.00  0.00    +0.000 HD
ENDBRANCH  31  32
ENDBRANCH  25  31
ENDBRANCH   8  25
TORSDOF 6
ENDMDL
