MODEL 1
REMARK VINA RESULT:      -7.9      0.000      0.000
REMARK  Name = 
REMARK  4 active torsions:
REMARK  status: ('A' for Active; 'I' for Inactive)
REMARK    1  A    between atoms: C_1  and  S_2
REMARK    2  A    between atoms: S_2  and  N_5
REMARK    3  A    between atoms: N_12  and  C_13
REMARK    4  A    between atoms: C_19  and  C_20
REMARK                            x       y       z     vdW  Elec       q    Type
REMARK                         _______ _______ _______ _____ _____    ______ ____
ROOT
ATOM      1  N   UNL     1       3.323  15.483  19.461  0.00  0.00    +0.000 NA
ATOM      2  C   UNL     1       3.092  15.174  20.909  0.00  0.00    +0.000 C 
ATOM      3  C   UNL     1       1.785  14.407  21.159  0.00  0.00    +0.000 C 
ATOM      4  N   UNL     1       1.740  13.199  20.333  0.00  0.00    +0.000 N 
ATOM      5  C   UNL     1       1.054  12.092  20.769  0.00  0.00    +0.000 A 
ATOM      6  N   UNL     1       0.073  12.284  21.721  0.00  0.00    +0.000 NA
ATOM      7  C   UNL     1      -0.539  11.259  22.240  0.00  0.00    +0.000 A 
ATOM      8  N   UNL     1      -1.551  11.344  23.180  0.00  0.00    +0.000 N 
ATOM      9  N   UNL     1      -0.144   9.983  21.821  0.00  0.00    +0.000 N 
ATOM     10  N   UNL     1      -0.635   8.823  22.319  0.00  0.00    +0.000 NA
ATOM     11  C   UNL     1       0.081   7.899  21.658  0.00  0.00    +0.000 A 
ATOM     12  C   UNL     1       0.980   8.466  20.718  0.00  0.00    +0.000 A 
ATOM     13  C   UNL     1       0.804   9.827  20.852  0.00  0.00    +0.000 A 
ATOM     14  N   UNL     1       1.381  10.920  20.288  0.00  0.00    +0.000 NA
ATOM     15  C   UNL     1       1.964  13.423  18.896  0.00  0.00    +0.000 C 
ATOM     16  C   UNL     1       3.279  14.193  18.668  0.00  0.00    +0.000 C 
ATOM     17  H   UNL     1      -1.970  10.447  23.422  0.00  0.00    +0.000 HD
ENDROOT
BRANCH  12  18
ATOM     18  C   UNL     1       1.897   7.791  19.851  0.00  0.00    +0.000 C 
ATOM     19  C   UNL     1       2.334   6.533  19.978  0.00  0.00    +0.000 C 
ATOM     20  N   UNL     1       2.014   5.635  20.955  0.00  0.00    +0.000 N 
ATOM     21  C   UNL     1       2.617   4.420  20.710  0.00  0.00    +0.000 C 
ATOM     22  O   UNL     1       2.458   3.399  21.356  0.00  0.00    +0.000 OA
ATOM     23  N   UNL     1       3.396   4.566  19.593  0.00  0.00    +0.000 N 
ATOM     24  C   UNL     1       3.260   5.815  19.052  0.00  0.00    +0.000 C 
ATOM     25  O   UNL     1       3.752   6.249  18.028  0.00  0.00    +0.000 OA
ATOM     26  H   UNL     1       1.310   5.792  21.669  0.00  0.00    +0.000 HD
ATOM     27  H   UNL     1       3.915   3.815  19.173  0.00  0.00    +0.000 HD
ENDBRANCH  12  18
BRANCH   1  29
ATOM     28  C   UNL     1       2.325  17.975  20.027  0.00  0.00    +0.000 C 
ATOM     29  S   UNL     1       2.426  16.737  18.750  0.00  0.00    +0.000 S 
ATOM     30  O   UNL     1       1.087  16.250  18.502  0.00  0.00    +0.000 OA
ATOM     31  O   UNL     1       3.226  17.276  17.672  0.00  0.00    +0.000 OA
ENDBRANCH   1  29
BRANCH   8  32
ATOM     32  C   UNL     1      -2.368  12.556  23.214  0.00  0.00    +0.000 C 
ATOM     33  C   UNL     1      -3.663  12.656  22.455  0.00  0.00    +0.000 C 
ATOM     34  C   UNL     1      -3.674  12.575  23.955  0.00  0.00    +0.000 C 
ENDBRANCH   8  32
TORSDOF 3
ENDMDL
MODEL 2
REMARK VINA RESULT:      -7.7      0.831      1.055
REMARK  Name = 
REMARK  4 active torsions:
REMARK  status: ('A' for Active; 'I' for Inactive)
REMARK    1  A    between atoms: C_1  and  S_2
REMARK    2  A    between atoms: S_2  and  N_5
REMARK    3  A    between atoms: N_12  and  C_13
REMARK    4  A    between atoms: C_19  and  C_20
REMARK                            x       y       z     vdW  Elec       q    Type
REMARK                         _______ _______ _______ _____ _____    ______ ____
ROOT
ATOM      1  N   UNL     1       2.897  15.806  19.300  0.00  0.00    +0.000 NA
ATOM      2  C   UNL     1       2.672  15.524  20.754  0.00  0.00    +0.000 C 
ATOM      3  C   UNL     1       1.403  14.699  21.018  0.00  0.00    +0.000 C 
ATOM      4  N   UNL     1       1.423  13.470  20.223  0.00  0.00    +0.000 N 
ATOM      5  C   UNL     1       0.791  12.342  20.685  0.00  0.00    +0.000 A 
ATOM      6  N   UNL     1      -0.205  12.509  21.627  0.00  0.00    +0.000 NA
ATOM      7  C   UNL     1      -0.769  11.469  22.169  0.00  0.00    +0.000 A 
ATOM      8  N   UNL     1      -1.789  11.527  23.102  0.00  0.00    +0.000 N 
ATOM      9  N   UNL     1      -0.308  10.204  21.786  0.00  0.00    +0.000 N 
ATOM     10  N   UNL     1      -0.743   9.034  22.311  0.00  0.00    +0.000 NA
ATOM     11  C   UNL     1       0.022   8.130  21.678  0.00  0.00    +0.000 A 
ATOM     12  C   UNL     1       0.898   8.716  20.729  0.00  0.00    +0.000 A 
ATOM     13  C   UNL     1       0.653  10.070  20.826  0.00  0.00    +0.000 A 
ATOM     14  N   UNL     1       1.178  11.176  20.236  0.00  0.00    +0.000 NA
ATOM     15  C   UNL     1       1.645  13.668  18.782  0.00  0.00    +0.000 C 
ATOM     16  C   UNL     1       2.921  14.497  18.541  0.00  0.00    +0.000 C 
ATOM     17  H   UNL     1      -2.165  10.617  23.365  0.00  0.00    +0.000 HD
ENDROOT
BRANCH  12  18
ATOM     18  C   UNL     1       1.852   8.066  19.884  0.00  0.00    +0.000 C 
ATOM     19  C   UNL     1       2.279   6.802  19.991  0.00  0.00    +0.000 C 
ATOM     20  N   UNL     1       1.910   5.875  20.921  0.00  0.00    +0.000 N 
ATOM     21  C   UNL     1       2.520   4.665  20.665  0.00  0.00    +0.000 C 
ATOM     22  O   UNL     1       2.327   3.624  21.268  0.00  0.00    +0.000 OA
ATOM     23  N   UNL     1       3.352   4.844  19.592  0.00  0.00    +0.000 N 
ATOM     24  C   UNL     1       3.246   6.111  19.085  0.00  0.00    +0.000 C 
ATOM     25  O   UNL     1       3.787   6.576  18.101  0.00  0.00    +0.000 OA
ATOM     26  H   UNL     1       1.174   6.012  21.605  0.00  0.00    +0.000 HD
ATOM     27  H   UNL     1       3.887   4.104  19.172  0.00  0.00    +0.000 HD
ENDBRANCH  12  18
BRANCH   1  29
ATOM     28  C   UNL     1       2.632  17.137  16.915  0.00  0.00    +0.000 C 
ATOM     29  S   UNL     1       1.943  16.996  18.552  0.00  0.00    +0.000 S 
ATOM     30  O   UNL     1       2.169  18.251  19.234  0.00  0.00    +0.000 OA
ATOM     31  O   UNL     1       0.607  16.455  18.427  0.00  0.00    +0.000 OA
ENDBRANCH   1  29
BRANCH   8  32
ATOM     32  C   UNL     1      -2.665  12.698  23.099  0.00  0.00    +0.000 C 
ATOM     33  C   UNL     1      -3.578  13.003  24.256  0.00  0.00    +0.000 C 
ATOM     34  C   UNL     1      -2.378  13.867  23.997  0.00  0.00    +0.000 C 
ENDBRANCH   8  32
TORSDOF 3
ENDMDL
MODEL 3
REMARK VINA RESULT:      -7.4      5.009      8.458
REMARK  Name = 
REMARK  4 active torsions:
REMARK  status: ('A' for Active; 'I' for Inactive)
REMARK    1  A    between atoms: C_1  and  S_2
REMARK    2  A    between atoms: S_2  and  N_5
REMARK    3  A    between atoms: N_12  and  C_13
REMARK    4  A    between atoms: C_19  and  C_20
REMARK                            x       y       z     vdW  Elec       q    Type
REMARK                         _______ _______ _______ _____ _____    ______ ____
ROOT
ATOM      1  N   UNL     1       0.811  14.339  20.691  0.00  0.00    +0.000 NA
ATOM      2  C   UNL     1       0.068  14.798  19.473  0.00  0.00    +0.000 C 
ATOM      3  C   UNL     1      -0.759  13.682  18.817  0.00  0.00    +0.000 C 
ATOM      4  N   UNL     1      -1.655  13.070  19.800  0.00  0.00    +0.000 N 
ATOM      5  C   UNL     1      -2.853  12.533  19.398  0.00  0.00    +0.000 A 
ATOM      6  N   UNL     1      -2.978  12.175  18.070  0.00  0.00    +0.000 NA
ATOM      7  C   UNL     1      -4.122  11.753  17.616  0.00  0.00    +0.000 A 
ATOM      8  N   UNL     1      -4.347  11.348  16.312  0.00  0.00    +0.000 N 
ATOM      9  N   UNL     1      -5.202  11.709  18.507  0.00  0.00    +0.000 N 
ATOM     10  N   UNL     1      -6.466  11.362  18.168  0.00  0.00    +0.000 NA
ATOM     11  C   UNL     1      -7.130  11.527  19.323  0.00  0.00    +0.000 A 
ATOM     12  C   UNL     1      -6.289  11.928  20.392  0.00  0.00    +0.000 A 
ATOM     13  C   UNL     1      -5.038  12.035  19.822  0.00  0.00    +0.000 A 
ATOM     14  N   UNL     1      -3.815  12.414  20.277  0.00  0.00    +0.000 NA
ATOM     15  C   UNL     1      -0.996  12.599  21.029  0.00  0.00    +0.000 C 
ATOM     16  C   UNL     1      -0.173  13.733  21.669  0.00  0.00    +0.000 C 
ATOM     17  H   UNL     1      -5.281  10.975  16.147  0.00  0.00    +0.000 HD
ENDROOT
BRANCH  12  18
ATOM     18  C   UNL     1      -6.650  12.202  21.749  0.00  0.00    +0.000 C 
ATOM     19  C   UNL     1      -6.368  13.313  22.439  0.00  0.00    +0.000 C 
ATOM     20  N   UNL     1      -5.675  14.408  22.008  0.00  0.00    +0.000 N 
ATOM     21  C   UNL     1      -5.646  15.376  22.988  0.00  0.00    +0.000 C 
ATOM     22  O   UNL     1      -5.175  16.495  22.875  0.00  0.00    +0.000 OA
ATOM     23  N   UNL     1      -6.269  14.862  24.094  0.00  0.00    +0.000 N 
ATOM     24  C   UNL     1      -6.779  13.617  23.843  0.00  0.00    +0.000 C 
ATOM     25  O   UNL     1      -7.446  12.914  24.578  0.00  0.00    +0.000 OA
ATOM     26  H   UNL     1      -5.366  14.549  21.052  0.00  0.00    +0.000 HD
ATOM     27  H   UNL     1      -6.421  15.381  24.941  0.00  0.00    +0.000 HD
ENDBRANCH  12  18
BRANCH   1  29
ATOM     28  C   UNL     1       3.139  14.280  19.239  0.00  0.00    +0.000 C 
ATOM     29  S   UNL     1       2.209  13.399  20.477  0.00  0.00    +0.000 S 
ATOM     30  O   UNL     1       1.816  12.128  19.911  0.00  0.00    +0.000 OA
ATOM     31  O   UNL     1       2.954  13.455  21.716  0.00  0.00    +0.000 OA
ENDBRANCH   1  29
BRANCH   8  32
ATOM     32  C   UNL     1      -3.216  10.832  15.541  0.00  0.00    +0.000 C 
ATOM     33  C   UNL     1      -2.921   9.359  15.463  0.00  0.00    +0.000 C 
ATOM     34  C   UNL     1      -3.446  10.086  14.258  0.00  0.00    +0.000 C 
ENDBRANCH   8  32
TORSDOF 3
ENDMDL
MODEL 4
REMARK VINA RESULT:      -7.3      4.197      7.337
REMARK  Name = 
REMARK  4 active torsions:
REMARK  status: ('A' for Active; 'I' for Inactive)
REMARK    1  A    between atoms: C_1  and  S_2
REMARK    2  A    between atoms: S_2  and  N_5
REMARK    3  A    between atoms: N_12  and  C_13
REMARK    4  A    between atoms: C_19  and  C_20
REMARK                            x       y       z     vdW  Elec       q    Type
REMARK                         _______ _______ _______ _____ _____    ______ ____
ROOT
ATOM      1  N   UNL     1       0.793  16.532  20.957  0.00  0.00    +0.000 NA
ATOM      2  C   UNL     1       1.161  15.954  19.624  0.00  0.00    +0.000 C 
ATOM      3  C   UNL     1       0.992  14.428  19.563  0.00  0.00    +0.000 C 
ATOM      4  N   UNL     1      -0.366  14.052  19.961  0.00  0.00    +0.000 N 
ATOM      5  C   UNL     1      -0.947  12.922  19.442  0.00  0.00    +0.000 A 
ATOM      6  N   UNL     1      -0.109  11.949  18.935  0.00  0.00    +0.000 NA
ATOM      7  C   UNL     1      -0.610  10.903  18.343  0.00  0.00    +0.000 A 
ATOM      8  N   UNL     1       0.140   9.863  17.823  0.00  0.00    +0.000 N 
ATOM      9  N   UNL     1      -2.002  10.828  18.219  0.00  0.00    +0.000 N 
ATOM     10  N   UNL     1      -2.666   9.843  17.568  0.00  0.00    +0.000 NA
ATOM     11  C   UNL     1      -3.944  10.238  17.673  0.00  0.00    +0.000 A 
ATOM     12  C   UNL     1      -4.094  11.434  18.420  0.00  0.00    +0.000 A 
ATOM     13  C   UNL     1      -2.806  11.788  18.762  0.00  0.00    +0.000 A 
ATOM     14  N   UNL     1      -2.253  12.837  19.426  0.00  0.00    +0.000 NA
ATOM     15  C   UNL     1      -0.801  14.589  21.261  0.00  0.00    +0.000 C 
ATOM     16  C   UNL     1      -0.622  16.118  21.300  0.00  0.00    +0.000 C 
ATOM     17  H   UNL     1      -0.416   9.089  17.462  0.00  0.00    +0.000 HD
ENDROOT
BRANCH  12  18
ATOM     18  C   UNL     1      -5.298  12.143  18.725  0.00  0.00    +0.000 C 
ATOM     19  C   UNL     1      -5.757  12.448  19.945  0.00  0.00    +0.000 C 
ATOM     20  N   UNL     1      -5.187  12.144  21.148  0.00  0.00    +0.000 N 
ATOM     21  C   UNL     1      -5.924  12.683  22.180  0.00  0.00    +0.000 C 
ATOM     22  O   UNL     1      -5.629  12.654  23.362  0.00  0.00    +0.000 OA
ATOM     23  N   UNL     1      -7.026  13.282  21.629  0.00  0.00    +0.000 N 
ATOM     24  C   UNL     1      -6.993  13.223  20.263  0.00  0.00    +0.000 C 
ATOM     25  O   UNL     1      -7.774  13.714  19.469  0.00  0.00    +0.000 OA
ATOM     26  H   UNL     1      -4.272  11.720  21.257  0.00  0.00    +0.000 HD
ATOM     27  H   UNL     1      -7.711  13.789  22.163  0.00  0.00    +0.000 HD
ENDBRANCH  12  18
BRANCH   1  29
ATOM     28  C   UNL     1       0.986  16.956  23.661  0.00  0.00    +0.000 C 
ATOM     29  S   UNL     1       1.879  16.338  22.248  0.00  0.00    +0.000 S 
ATOM     30  O   UNL     1       3.008  17.214  22.024  0.00  0.00    +0.000 OA
ATOM     31  O   UNL     1       2.073  14.917  22.433  0.00  0.00    +0.000 OA
ENDBRANCH   1  29
BRANCH   8  32
ATOM     32  C   UNL     1       1.456   9.598  18.404  0.00  0.00    +0.000 C 
ATOM     33  C   UNL     1       1.786   8.274  19.037  0.00  0.00    +0.000 C 
ATOM     34  C   UNL     1       2.413   8.658  17.728  0.00  0.00    +0.000 C 
ENDBRANCH   8  32
TORSDOF 3
ENDMDL
MODEL 5
REMARK VINA RESULT:      -7.2      4.640      6.238
REMARK  Name = 
REMARK  4 active torsions:
REMARK  status: ('A' for Active; 'I' for Inactive)
REMARK    1  A    between atoms: C_1  and  S_2
REMARK    2  A    between atoms: S_2  and  N_5
REMARK    3  A    between atoms: N_12  and  C_13
REMARK    4  A    between atoms: C_19  and  C_20
REMARK                            x       y       z     vdW  Elec       q    Type
REMARK                         _______ _______ _______ _____ _____    ______ ____
ROOT
ATOM      1  N   UNL     1       0.443  14.045  21.667  0.00  0.00    +0.000 NA
ATOM      2  C   UNL     1      -0.319  13.059  22.498  0.00  0.00    +0.000 C 
ATOM      3  C   UNL     1      -1.835  13.310  22.492  0.00  0.00    +0.000 C 
ATOM      4  N   UNL     1      -2.334  13.361  21.116  0.00  0.00    +0.000 N 
ATOM      5  C   UNL     1      -3.621  12.972  20.837  0.00  0.00    +0.000 A 
ATOM      6  N   UNL     1      -4.530  12.983  21.876  0.00  0.00    +0.000 NA
ATOM      7  C   UNL     1      -5.737  12.531  21.689  0.00  0.00    +0.000 A 
ATOM      8  N   UNL     1      -6.728  12.520  22.654  0.00  0.00    +0.000 N 
ATOM      9  N   UNL     1      -6.052  12.017  20.426  0.00  0.00    +0.000 N 
ATOM     10  N   UNL     1      -7.238  11.449  20.099  0.00  0.00    +0.000 NA
ATOM     11  C   UNL     1      -7.036  11.070  18.827  0.00  0.00    +0.000 A 
ATOM     12  C   UNL     1      -5.755  11.435  18.338  0.00  0.00    +0.000 A 
ATOM     13  C   UNL     1      -5.143  12.053  19.408  0.00  0.00    +0.000 A 
ATOM     14  N   UNL     1      -3.911  12.586  19.621  0.00  0.00    +0.000 NA
ATOM     15  C   UNL     1      -1.629  14.305  20.236  0.00  0.00    +0.000 C 
ATOM     16  C   UNL     1      -0.112  14.036  20.258  0.00  0.00    +0.000 C 
ATOM     17  H   UNL     1      -7.635  12.202  22.316  0.00  0.00    +0.000 HD
ENDROOT
BRANCH  12  18
ATOM     18  C   UNL     1      -5.198  11.190  17.044  0.00  0.00    +0.000 C 
ATOM     19  C   UNL     1      -3.954  10.776  16.778  0.00  0.00    +0.000 C 
ATOM     20  N   UNL     1      -2.956  10.512  17.671  0.00  0.00    +0.000 N 
ATOM     21  C   UNL     1      -1.835  10.048  17.017  0.00  0.00    +0.000 C 
ATOM     22  O   UNL     1      -0.811   9.650  17.546  0.00  0.00    +0.000 OA
ATOM     23  N   UNL     1      -2.097  10.084  15.673  0.00  0.00    +0.000 N 
ATOM     24  C   UNL     1      -3.384  10.481  15.429  0.00  0.00    +0.000 C 
ATOM     25  O   UNL     1      -3.959  10.554  14.359  0.00  0.00    +0.000 OA
ATOM     26  H   UNL     1      -3.075  10.508  18.678  0.00  0.00    +0.000 HD
ATOM     27  H   UNL     1      -1.457   9.758  14.970  0.00  0.00    +0.000 HD
ENDBRANCH  12  18
BRANCH   1  29
ATOM     28  C   UNL     1       2.449  15.803  22.308  0.00  0.00    +0.000 C 
ATOM     29  S   UNL     1       0.679  15.609  22.283  0.00  0.00    +0.000 S 
ATOM     30  O   UNL     1       0.215  15.630  23.653  0.00  0.00    +0.000 OA
ATOM     31  O   UNL     1       0.144  16.537  21.311  0.00  0.00    +0.000 OA
ENDBRANCH   1  29
BRANCH   8  32
ATOM     32  C   UNL     1      -6.664  13.514  23.726  0.00  0.00    +0.000 C 
ATOM     33  C   UNL     1      -7.301  14.869  23.584  0.00  0.00    +0.000 C 
ATOM     34  C   UNL     1      -7.891  13.856  24.522  0.00  0.00    +0.000 C 
ENDBRANCH   8  32
TORSDOF 3
ENDMDL
MODEL 6
REMARK VINA RESULT:      -7.1      4.913      7.711
REMARK  Name = 
REMARK  4 active torsions:
REMARK  status: ('A' for Active; 'I' for Inactive)
REMARK    1  A    between atoms: C_1  and  S_2
REMARK    2  A    between atoms: S_2  and  N_5
REMARK    3  A    between atoms: N_12  and  C_13
REMARK    4  A    between atoms: C_19  and  C_20
REMARK                            x       y       z     vdW  Elec       q    Type
REMARK                         _______ _______ _______ _____ _____    ______ ____
ROOT
ATOM      1  N   UNL     1      -1.434  16.286  22.661  0.00  0.00    +0.000 NA
ATOM      2  C   UNL     1      -0.330  15.784  21.780  0.00  0.00    +0.000 C 
ATOM      3  C   UNL     1      -0.366  14.261  21.580  0.00  0.00    +0.000 C 
ATOM      4  N   UNL     1      -1.682  13.845  21.092  0.00  0.00    +0.000 N 
ATOM      5  C   UNL     1      -1.799  12.735  20.292  0.00  0.00    +0.000 A 
ATOM      6  N   UNL     1      -0.782  11.802  20.342  0.00  0.00    +0.000 NA
ATOM      7  C   UNL     1      -0.795  10.781  19.534  0.00  0.00    +0.000 A 
ATOM      8  N   UNL     1       0.160   9.781  19.520  0.00  0.00    +0.000 N 
ATOM      9  N   UNL     1      -1.845  10.692  18.613  0.00  0.00    +0.000 N 
ATOM     10  N   UNL     1      -1.959   9.732  17.664  0.00  0.00    +0.000 NA
ATOM     11  C   UNL     1      -3.071  10.102  17.011  0.00  0.00    +0.000 A 
ATOM     12  C   UNL     1      -3.682  11.255  17.567  0.00  0.00    +0.000 A 
ATOM     13  C   UNL     1      -2.855  11.611  18.612  0.00  0.00    +0.000 A 
ATOM     14  N   UNL     1      -2.842  12.631  19.509  0.00  0.00    +0.000 NA
ATOM     15  C   UNL     1      -2.818  14.306  21.904  0.00  0.00    +0.000 C 
ATOM     16  C   UNL     1      -2.763  15.834  22.092  0.00  0.00    +0.000 C 
ATOM     17  H   UNL     1      -0.045   9.018  18.875  0.00  0.00    +0.000 HD
ENDROOT
BRANCH  12  18
ATOM     18  C   UNL     1      -4.865  11.930  17.129  0.00  0.00    +0.000 C 
ATOM     19  C   UNL     1      -5.893  12.314  17.895  0.00  0.00    +0.000 C 
ATOM     20  N   UNL     1      -6.038  12.139  19.241  0.00  0.00    +0.000 N 
ATOM     21  C   UNL     1      -7.205  12.728  19.680  0.00  0.00    +0.000 C 
ATOM     22  O   UNL     1      -7.571  12.812  20.839  0.00  0.00    +0.000 OA
ATOM     23  N   UNL     1      -7.853  13.225  18.581  0.00  0.00    +0.000 N 
ATOM     24  C   UNL     1      -7.110  13.053  17.445  0.00  0.00    +0.000 C 
ATOM     25  O   UNL     1      -7.358  13.438  16.318  0.00  0.00    +0.000 OA
ATOM     26  H   UNL     1      -5.317  11.770  19.851  0.00  0.00    +0.000 HD
ATOM     27  H   UNL     1      -8.714  13.742  18.627  0.00  0.00    +0.000 HD
ENDBRANCH  12  18
BRANCH   1  29
ATOM     28  C   UNL     1      -0.055  17.203  24.848  0.00  0.00    +0.000 C 
ATOM     29  S   UNL     1      -1.305  16.041  24.336  0.00  0.00    +0.000 S 
ATOM     30  O   UNL     1      -0.786  14.710  24.560  0.00  0.00    +0.000 OA
ATOM     31  O   UNL     1      -2.560  16.451  24.925  0.00  0.00    +0.000 OA
ENDBRANCH   1  29
BRANCH   8  32
ATOM     32  C   UNL     1       0.895   9.505  20.755  0.00  0.00    +0.000 C 
ATOM     33  C   UNL     1       0.288   8.700  21.871  0.00  0.00    +0.000 C 
ATOM     34  C   UNL     1       1.402   8.122  21.047  0.00  0.00    +0.000 C 
ENDBRANCH   8  32
TORSDOF 3
ENDMDL
MODEL 7
REMARK VINA RESULT:      -6.9      4.534      8.333
REMARK  Name = 
REMARK  4 active torsions:
REMARK  status: ('A' for Active; 'I' for Inactive)
REMARK    1  A    between atoms: C_1  and  S_2
REMARK    2  A    between atoms: S_2  and  N_5
REMARK    3  A    between atoms: N_12  and  C_13
REMARK    4  A    between atoms: C_19  and  C_20
REMARK                            x       y       z     vdW  Elec       q    Type
REMARK                         _______ _______ _______ _____ _____    ______ ____
ROOT
ATOM      1  N   UNL     1       0.719  10.153  19.971  0.00  0.00    +0.000 NA
ATOM      2  C   UNL     1       1.216  11.413  20.612  0.00  0.00    +0.000 C 
ATOM      3  C   UNL     1       0.506  12.673  20.093  0.00  0.00    +0.000 C 
ATOM      4  N   UNL     1      -0.945  12.530  20.230  0.00  0.00    +0.000 N 
ATOM      5  C   UNL     1      -1.730  13.639  20.424  0.00  0.00    +0.000 A 
ATOM      6  N   UNL     1      -1.215  14.861  20.036  0.00  0.00    +0.000 NA
ATOM      7  C   UNL     1      -1.876  15.954  20.287  0.00  0.00    +0.000 A 
ATOM      8  N   UNL     1      -1.461  17.222  19.920  0.00  0.00    +0.000 N 
ATOM      9  N   UNL     1      -3.088  15.839  20.978  0.00  0.00    +0.000 N 
ATOM     10  N   UNL     1      -3.852  16.886  21.373  0.00  0.00    +0.000 NA
ATOM     11  C   UNL     1      -4.853  16.281  22.031  0.00  0.00    +0.000 A 
ATOM     12  C   UNL     1      -4.751  14.867  22.014  0.00  0.00    +0.000 A 
ATOM     13  C   UNL     1      -3.588  14.615  21.316  0.00  0.00    +0.000 A 
ATOM     14  N   UNL     1      -2.902  13.490  20.987  0.00  0.00    +0.000 NA
ATOM     15  C   UNL     1      -1.506  11.310  19.629  0.00  0.00    +0.000 C 
ATOM     16  C   UNL     1      -0.780  10.061  20.163  0.00  0.00    +0.000 C 
ATOM     17  H   UNL     1      -2.136  17.957  20.128  0.00  0.00    +0.000 HD
ENDROOT
BRANCH  12  18
ATOM     18  C   UNL     1      -5.626  13.908  22.614  0.00  0.00    +0.000 C 
ATOM     19  C   UNL     1      -6.270  12.916  21.989  0.00  0.00    +0.000 C 
ATOM     20  N   UNL     1      -6.238  12.612  20.658  0.00  0.00    +0.000 N 
ATOM     21  C   UNL     1      -6.982  11.480  20.404  0.00  0.00    +0.000 C 
ATOM     22  O   UNL     1      -7.080  10.914  19.330  0.00  0.00    +0.000 OA
ATOM     23  N   UNL     1      -7.560  11.094  21.585  0.00  0.00    +0.000 N 
ATOM     24  C   UNL     1      -7.153  11.890  22.621  0.00  0.00    +0.000 C 
ATOM     25  O   UNL     1      -7.418  11.781  23.803  0.00  0.00    +0.000 OA
ATOM     26  H   UNL     1      -5.629  13.061  19.983  0.00  0.00    +0.000 HD
ATOM     27  H   UNL     1      -8.123  10.268  21.687  0.00  0.00    +0.000 HD
ENDBRANCH  12  18
BRANCH   1  29
ATOM     28  C   UNL     1       2.095   8.263  18.536  0.00  0.00    +0.000 C 
ATOM     29  S   UNL     1       1.215   9.804  18.385  0.00  0.00    +0.000 S 
ATOM     30  O   UNL     1       2.165  10.815  17.976  0.00  0.00    +0.000 OA
ATOM     31  O   UNL     1       0.019   9.559  17.609  0.00  0.00    +0.000 OA
ENDBRANCH   1  29
BRANCH   8  32
ATOM     32  C   UNL     1      -0.581  17.356  18.760  0.00  0.00    +0.000 C 
ATOM     33  C   UNL     1      -0.917  18.274  17.616  0.00  0.00    +0.000 C 
ATOM     34  C   UNL     1       0.213  18.613  18.546  0.00  0.00    +0.000 C 
ENDBRANCH   8  32
TORSDOF 3
ENDMDL
MODEL 8
REMARK VINA RESULT:      -6.9      2.953      5.361
REMARK  Name = 
REMARK  4 active torsions:
REMARK  status: ('A' for Active; 'I' for Inactive)
REMARK    1  A    between atoms: C_1  and  S_2
REMARK    2  A    between atoms: S_2  and  N_5
REMARK    3  A    between atoms: N_12  and  C_13
REMARK    4  A    between atoms: C_19  and  C_20
REMARK                            x       y       z     vdW  Elec       q    Type
REMARK                         _______ _______ _______ _____ _____    ______ ____
ROOT
ATOM      1  N   UNL     1      -3.030  12.770  22.872  0.00  0.00    +0.000 NA
ATOM      2  C   UNL     1      -3.017  13.099  21.410  0.00  0.00    +0.000 C 
ATOM      3  C   UNL     1      -1.598  13.196  20.828  0.00  0.00    +0.000 C 
ATOM      4  N   UNL     1      -0.848  11.972  21.116  0.00  0.00    +0.000 N 
ATOM      5  C   UNL     1       0.135  11.549  20.256  0.00  0.00    +0.000 A 
ATOM      6  N   UNL     1       0.696  12.491  19.416  0.00  0.00    +0.000 NA
ATOM      7  C   UNL     1       1.561  12.126  18.514  0.00  0.00    +0.000 A 
ATOM      8  N   UNL     1       2.196  12.991  17.642  0.00  0.00    +0.000 N 
ATOM      9  N   UNL     1       1.865  10.763  18.418  0.00  0.00    +0.000 N 
ATOM     10  N   UNL     1       2.689  10.221  17.488  0.00  0.00    +0.000 NA
ATOM     11  C   UNL     1       2.614   8.910  17.765  0.00  0.00    +0.000 A 
ATOM     12  C   UNL     1       1.792   8.627  18.886  0.00  0.00    +0.000 A 
ATOM     13  C   UNL     1       1.323   9.861  19.286  0.00  0.00    +0.000 A 
ATOM     14  N   UNL     1       0.469  10.284  20.255  0.00  0.00    +0.000 NA
ATOM     15  C   UNL     1      -0.821  11.581  22.534  0.00  0.00    +0.000 C 
ATOM     16  C   UNL     1      -2.253  11.490  23.096  0.00  0.00    +0.000 C 
ATOM     17  H   UNL     1       2.900  12.546  17.053  0.00  0.00    +0.000 HD
ENDROOT
BRANCH  12  18
ATOM     18  C   UNL     1       1.480   7.354  19.457  0.00  0.00    +0.000 C 
ATOM     19  C   UNL     1       2.308   6.308  19.572  0.00  0.00    +0.000 C 
ATOM     20  N   UNL     1       3.609   6.228  19.166  0.00  0.00    +0.000 N 
ATOM     21  C   UNL     1       4.148   5.008  19.515  0.00  0.00    +0.000 C 
ATOM     22  O   UNL     1       5.308   4.669  19.363  0.00  0.00    +0.000 OA
ATOM     23  N   UNL     1       3.150   4.267  20.091  0.00  0.00    +0.000 N 
ATOM     24  C   UNL     1       1.995   4.991  20.204  0.00  0.00    +0.000 C 
ATOM     25  O   UNL     1       0.948   4.661  20.728  0.00  0.00    +0.000 OA
ATOM     26  H   UNL     1       4.145   7.009  18.804  0.00  0.00    +0.000 HD
ATOM     27  H   UNL     1       3.288   3.348  20.474  0.00  0.00    +0.000 HD
ENDBRANCH  12  18
BRANCH   1  29
ATOM     28  C   UNL     1      -3.214  15.489  23.196  0.00  0.00    +0.000 C 
ATOM     29  S   UNL     1      -2.637  13.996  23.979  0.00  0.00    +0.000 S 
ATOM     30  O   UNL     1      -1.196  14.076  24.070  0.00  0.00    +0.000 OA
ATOM     31  O   UNL     1      -3.439  13.776  25.162  0.00  0.00    +0.000 OA
ENDBRANCH   1  29
BRANCH   8  32
ATOM     32  C   UNL     1       2.373  14.384  18.051  0.00  0.00    +0.000 C 
ATOM     33  C   UNL     1       3.534  14.815  18.904  0.00  0.00    +0.000 C 
ATOM     34  C   UNL     1       3.472  15.219  17.460  0.00  0.00    +0.000 C 
ENDBRANCH   8  32
TORSDOF 3
ENDMDL
MODEL 9
REMARK VINA RESULT:      -6.9      3.592      4.844
REMARK  Name = 
REMARK  4 active torsions:
REMARK  status: ('A' for Active; 'I' for Inactive)
REMARK    1  A    between atoms: C_1  and  S_2
REMARK    2  A    between atoms: S_2  and  N_5
REMARK    3  A    between atoms: N_12  and  C_13
REMARK    4  A    between atoms: C_19  and  C_20
REMARK                            x       y       z     vdW  Elec       q    Type
REMARK                         _______ _______ _______ _____ _____    ______ ____
ROOT
ATOM      1  N   UNL     1       4.401  15.570  19.926  0.00  0.00    +0.000 NA
ATOM      2  C   UNL     1       4.195  14.872  21.235  0.00  0.00    +0.000 C 
ATOM      3  C   UNL     1       2.871  15.251  21.918  0.00  0.00    +0.000 C 
ATOM      4  N   UNL     1       1.749  15.031  21.003  0.00  0.00    +0.000 N 
ATOM      5  C   UNL     1       0.511  14.707  21.500  0.00  0.00    +0.000 A 
ATOM      6  N   UNL     1       0.244  15.037  22.814  0.00  0.00    +0.000 NA
ATOM      7  C   UNL     1      -0.876  14.665  23.363  0.00  0.00    +0.000 A 
ATOM      8  N   UNL     1      -1.250  14.964  24.661  0.00  0.00    +0.000 N 
ATOM      9  N   UNL     1      -1.762  13.907  22.589  0.00  0.00    +0.000 N 
ATOM     10  N   UNL     1      -2.930  13.389  23.039  0.00  0.00    +0.000 NA
ATOM     11  C   UNL     1      -3.378  12.713  21.970  0.00  0.00    +0.000 A 
ATOM     12  C   UNL     1      -2.529  12.840  20.840  0.00  0.00    +0.000 A 
ATOM     13  C   UNL     1      -1.487  13.627  21.282  0.00  0.00    +0.000 A 
ATOM     14  N   UNL     1      -0.335  14.082  20.721  0.00  0.00    +0.000 NA
ATOM     15  C   UNL     1       1.883  15.683  19.691  0.00  0.00    +0.000 C 
ATOM     16  C   UNL     1       3.216  15.289  19.026  0.00  0.00    +0.000 C 
ATOM     17  H   UNL     1      -2.192  14.660  24.904  0.00  0.00    +0.000 HD
ENDROOT
BRANCH  12  18
ATOM     18  C   UNL     1      -2.686  12.256  19.544  0.00  0.00    +0.000 C 
ATOM     19  C   UNL     1      -1.817  11.449  18.923  0.00  0.00    +0.000 C 
ATOM     20  N   UNL     1      -0.605  11.021  19.382  0.00  0.00    +0.000 N 
ATOM     21  C   UNL     1      -0.030  10.149  18.483  0.00  0.00    +0.000 C 
ATOM     22  O   UNL     1       1.011   9.536  18.646  0.00  0.00    +0.000 OA
ATOM     23  N   UNL     1      -0.858  10.074  17.395  0.00  0.00    +0.000 N 
ATOM     24  C   UNL     1      -1.998  10.806  17.587  0.00  0.00    +0.000 C 
ATOM     25  O   UNL     1      -2.965  10.900  16.855  0.00  0.00    +0.000 OA
ATOM     26  H   UNL     1      -0.253  11.195  20.317  0.00  0.00    +0.000 HD
ATOM     27  H   UNL     1      -0.692   9.472  16.607  0.00  0.00    +0.000 HD
ENDBRANCH  12  18
BRANCH   1  29
ATOM     28  C   UNL     1       5.949  17.336  21.344  0.00  0.00    +0.000 C 
ATOM     29  S   UNL     1       4.854  17.206  19.945  0.00  0.00    +0.000 S 
ATOM     30  O   UNL     1       3.678  17.998  20.231  0.00  0.00    +0.000 OA
ATOM     31  O   UNL     1       5.632  17.448  18.749  0.00  0.00    +0.000 OA
ENDBRANCH   1  29
BRANCH   8  32
ATOM     32  C   UNL     1      -0.696  16.166  25.284  0.00  0.00    +0.000 C 
ATOM     33  C   UNL     1      -1.544  17.084  26.121  0.00  0.00    +0.000 C 
ATOM     34  C   UNL     1      -0.492  16.231  26.770  0.00  0.00    +0.000 C 
ENDBRANCH   8  32
TORSDOF 3
ENDMDL
