MODEL 1
REMARK VINA RESULT:      -9.1      0.000      0.000
REMARK  Name = 
REMARK  7 active torsions:
REMARK  status: ('A' for Active; 'I' for Inactive)
REMARK    1  A    between atoms: C_2  and  C_3
REMARK    2  A    between atoms: C_4  and  C_5
REMARK    3  A    between atoms: C_10  and  C_11
REMARK    4  A    between atoms: N_14  and  C_15
REMARK    5  A    between atoms: N_19  and  C_20
REMARK    6  A    between atoms: C_23  and  C_24
REMARK    7  A    between atoms: C_24  and  N_25
REMARK                            x       y       z     vdW  Elec       q    Type
REMARK                         _______ _______ _______ _____ _____    ______ ____
ROOT
ATOM      1  O   UNL     1       2.189   9.754  17.667  0.00  0.00    +0.000 OA
ATOM      2  C   UNL     1       2.420   8.645  18.128  0.00  0.00    +0.000 C 
ATOM      3  N   UNL     1       2.075   8.177  19.382  0.00  0.00    +0.000 N 
ATOM      4  H   UNL     1       2.385   7.245  19.625  0.00  0.00    +0.000 HD
ENDROOT
BRANCH   3   5
ATOM      5  C   UNL     1       1.204   8.778  20.325  0.00  0.00    +0.000 A 
ATOM      6  C   UNL     1       1.205   8.521  21.698  0.00  0.00    +0.000 A 
ATOM      7  C   UNL     1       0.414   9.292  22.574  0.00  0.00    +0.000 A 
ATOM      8  C   UNL     1      -0.398  10.330  22.095  0.00  0.00    +0.000 A 
ATOM      9  C   UNL     1      -0.473  10.505  20.707  0.00  0.00    +0.000 A 
ATOM     10  C   UNL     1       0.322   9.748  19.837  0.00  0.00    +0.000 A 
BRANCH   8  11
ATOM     11  C   UNL     1      -1.212  11.215  23.018  0.00  0.00    +0.000 C 
BRANCH  11  12
ATOM     12  N   UNL     1      -1.807  12.451  22.493  0.00  0.00    +0.000 NA
ATOM     13  C   UNL     1      -1.124  13.717  22.779  0.00  0.00    +0.000 C 
ATOM     14  C   UNL     1      -1.580  14.412  24.075  0.00  0.00    +0.000 C 
ATOM     15  O   UNL     1      -3.003  14.570  24.118  0.00  0.00    +0.000 OA
ATOM     16  C   UNL     1      -3.665  13.308  23.971  0.00  0.00    +0.000 C 
ATOM     17  C   UNL     1      -3.255  12.610  22.668  0.00  0.00    +0.000 C 
ENDBRANCH  11  12
ENDBRANCH   8  11
ENDBRANCH   3   5
BRANCH   2  18
ATOM     18  C   UNL     1       3.115   7.599  17.302  0.00  0.00    +0.000 C 
ATOM     19  C   UNL     1       4.173   6.936  17.805  0.00  0.00    +0.000 C 
BRANCH  19  20
ATOM     20  C   UNL     1       5.006   6.007  17.025  0.00  0.00    +0.000 A 
ATOM     21  C   UNL     1       6.108   6.511  16.336  0.00  0.00    +0.000 A 
ATOM     22  N   UNL     1       6.945   5.774  15.561  0.00  0.00    +0.000 NA
ATOM     23  C   UNL     1       6.668   4.463  15.454  0.00  0.00    +0.000 A 
ATOM     24  C   UNL     1       5.601   3.853  16.091  0.00  0.00    +0.000 A 
ATOM     25  C   UNL     1       4.750   4.625  16.897  0.00  0.00    +0.000 A 
BRANCH  25  26
ATOM     26  C   UNL     1       3.614   3.971  17.535  0.00  0.00    +0.000 A 
ATOM     27  C   UNL     1       2.319   3.667  17.051  0.00  0.00    +0.000 A 
ATOM     28  N   UNL     1       1.562   3.039  17.952  0.00  0.00    +0.000 NA
ATOM     29  N   UNL     1       2.368   2.926  19.017  0.00  0.00    +0.000 N 
ATOM     30  C   UNL     1       3.610   3.460  18.820  0.00  0.00    +0.000 A 
BRANCH  29  31
ATOM     31  C   UNL     1       1.957   2.271  20.240  0.00  0.00    +0.000 C 
ATOM     32  C   UNL     1       2.542   2.675  21.582  0.00  0.00    +0.000 C 
ATOM     33  C   UNL     1       1.126   3.014  21.275  0.00  0.00    +0.000 C 
ENDBRANCH  29  31
ENDBRANCH  25  26
ENDBRANCH  19  20
ENDBRANCH   2  18
TORSDOF 7
ENDMDL
MODEL 2
REMARK VINA RESULT:      -8.7      0.711      1.034
REMARK  Name = 
REMARK  7 active torsions:
REMARK  status: ('A' for Active; 'I' for Inactive)
REMARK    1  A    between atoms: C_2  and  C_3
REMARK    2  A    between atoms: C_4  and  C_5
REMARK    3  A    between atoms: C_10  and  C_11
REMARK    4  A    between atoms: N_14  and  C_15
REMARK    5  A    between atoms: N_19  and  C_20
REMARK    6  A    between atoms: C_23  and  C_24
REMARK    7  A    between atoms: C_24  and  N_25
REMARK                            x       y       z     vdW  Elec       q    Type
REMARK                         _______ _______ _______ _____ _____    ______ ____
ROOT
ATOM      1  O   UNL     1       2.311   9.453  17.668  0.00  0.00    +0.000 OA
ATOM      2  C   UNL     1       2.404   8.322  18.126  0.00  0.00    +0.000 C 
ATOM      3  N   UNL     1       1.996   7.894  19.375  0.00  0.00    +0.000 N 
ATOM      4  H   UNL     1       2.189   6.931  19.616  0.00  0.00    +0.000 HD
ENDROOT
BRANCH   3   5
ATOM      5  C   UNL     1       1.197   8.593  20.316  0.00  0.00    +0.000 A 
ATOM      6  C   UNL     1       1.278   8.450  21.703  0.00  0.00    +0.000 A 
ATOM      7  C   UNL     1       0.558   9.310  22.557  0.00  0.00    +0.000 A 
ATOM      8  C   UNL     1      -0.261  10.324  22.043  0.00  0.00    +0.000 A 
ATOM      9  C   UNL     1      -0.419  10.385  20.652  0.00  0.00    +0.000 A 
ATOM     10  C   UNL     1       0.305   9.541  19.802  0.00  0.00    +0.000 A 
BRANCH   8  11
ATOM     11  C   UNL     1      -1.000  11.302  22.936  0.00  0.00    +0.000 C 
BRANCH  11  12
ATOM     12  N   UNL     1      -1.523  12.549  22.362  0.00  0.00    +0.000 NA
ATOM     13  C   UNL     1      -0.855  13.804  22.724  0.00  0.00    +0.000 C 
ATOM     14  C   UNL     1      -1.430  14.497  23.973  0.00  0.00    +0.000 C 
ATOM     15  O   UNL     1      -2.848  14.675  23.875  0.00  0.00    +0.000 OA
ATOM     16  C   UNL     1      -3.509  13.423  23.653  0.00  0.00    +0.000 C 
ATOM     17  C   UNL     1      -2.979  12.726  22.393  0.00  0.00    +0.000 C 
ENDBRANCH  11  12
ENDBRANCH   8  11
ENDBRANCH   3   5
BRANCH   2  18
ATOM     18  C   UNL     1       2.974   7.203  17.300  0.00  0.00    +0.000 C 
ATOM     19  C   UNL     1       4.274   6.878  17.412  0.00  0.00    +0.000 C 
BRANCH  19  20
ATOM     20  C   UNL     1       4.954   5.904  16.543  0.00  0.00    +0.000 A 
ATOM     21  C   UNL     1       5.530   6.351  15.355  0.00  0.00    +0.000 A 
ATOM     22  N   UNL     1       6.165   5.560  14.452  0.00  0.00    +0.000 NA
ATOM     23  C   UNL     1       6.224   4.249  14.737  0.00  0.00    +0.000 A 
ATOM     24  C   UNL     1       5.688   3.691  15.885  0.00  0.00    +0.000 A 
ATOM     25  C   UNL     1       5.043   4.521  16.815  0.00  0.00    +0.000 A 
BRANCH  25  26
ATOM     26  C   UNL     1       4.456   3.912  18.003  0.00  0.00    +0.000 A 
ATOM     27  C   UNL     1       5.011   3.611  19.269  0.00  0.00    +0.000 A 
ATOM     28  N   UNL     1       4.130   3.063  20.106  0.00  0.00    +0.000 NA
ATOM     29  N   UNL     1       2.999   3.018  19.387  0.00  0.00    +0.000 N 
ATOM     30  C   UNL     1       3.136   3.521  18.124  0.00  0.00    +0.000 A 
BRANCH  29  31
ATOM     31  C   UNL     1       1.754   2.512  19.923  0.00  0.00    +0.000 C 
ATOM     32  C   UNL     1       1.408   2.678  21.394  0.00  0.00    +0.000 C 
ATOM     33  C   UNL     1       0.660   3.467  20.377  0.00  0.00    +0.000 C 
ENDBRANCH  29  31
ENDBRANCH  25  26
ENDBRANCH  19  20
ENDBRANCH   2  18
TORSDOF 7
ENDMDL
MODEL 3
REMARK VINA RESULT:      -8.5      1.443      1.996
REMARK  Name = 
REMARK  7 active torsions:
REMARK  status: ('A' for Active; 'I' for Inactive)
REMARK    1  A    between atoms: C_2  and  C_3
REMARK    2  A    between atoms: C_4  and  C_5
REMARK    3  A    between atoms: C_10  and  C_11
REMARK    4  A    between atoms: N_14  and  C_15
REMARK    5  A    between atoms: N_19  and  C_20
REMARK    6  A    between atoms: C_23  and  C_24
REMARK    7  A    between atoms: C_24  and  N_25
REMARK                            x       y       z     vdW  Elec       q    Type
REMARK                         _______ _______ _______ _____ _____    ______ ____
ROOT
ATOM      1  O   UNL     1       2.034   8.400  19.779  0.00  0.00    +0.000 OA
ATOM      2  C   UNL     1       1.978   8.500  18.562  0.00  0.00    +0.000 C 
ATOM      3  N   UNL     1       1.194   9.376  17.835  0.00  0.00    +0.000 N 
ATOM      4  H   UNL     1       1.231   9.298  16.827  0.00  0.00    +0.000 HD
ENDROOT
BRANCH   3   5
ATOM      5  C   UNL     1       0.453  10.485  18.317  0.00  0.00    +0.000 A 
ATOM      6  C   UNL     1      -0.934  10.514  18.483  0.00  0.00    +0.000 A 
ATOM      7  C   UNL     1      -1.558  11.603  19.125  0.00  0.00    +0.000 A 
ATOM      8  C   UNL     1      -0.811  12.686  19.607  0.00  0.00    +0.000 A 
ATOM      9  C   UNL     1       0.564  12.696  19.336  0.00  0.00    +0.000 A 
ATOM     10  C   UNL     1       1.187  11.610  18.710  0.00  0.00    +0.000 A 
BRANCH   8  11
ATOM     11  C   UNL     1      -1.446  13.842  20.354  0.00  0.00    +0.000 C 
BRANCH  11  12
ATOM     12  N   UNL     1      -1.466  13.827  21.823  0.00  0.00    +0.000 NA
ATOM     13  C   UNL     1      -0.722  12.766  22.509  0.00  0.00    +0.000 C 
ATOM     14  C   UNL     1      -1.540  11.492  22.791  0.00  0.00    +0.000 C 
ATOM     15  O   UNL     1      -2.765  11.788  23.471  0.00  0.00    +0.000 OA
ATOM     16  C   UNL     1      -3.550  12.729  22.729  0.00  0.00    +0.000 C 
ATOM     17  C   UNL     1      -2.771  14.023  22.465  0.00  0.00    +0.000 C 
ENDBRANCH  11  12
ENDBRANCH   8  11
ENDBRANCH   3   5
BRANCH   2  18
ATOM     18  C   UNL     1       2.846   7.648  17.679  0.00  0.00    +0.000 C 
ATOM     19  C   UNL     1       3.853   6.933  18.213  0.00  0.00    +0.000 C 
BRANCH  19  20
ATOM     20  C   UNL     1       4.845   6.191  17.418  0.00  0.00    +0.000 A 
ATOM     21  C   UNL     1       5.904   6.893  16.844  0.00  0.00    +0.000 A 
ATOM     22  N   UNL     1       6.874   6.340  16.069  0.00  0.00    +0.000 NA
ATOM     23  C   UNL     1       6.783   5.019  15.842  0.00  0.00    +0.000 A 
ATOM     24  C   UNL     1       5.776   4.222  16.359  0.00  0.00    +0.000 A 
ATOM     25  C   UNL     1       4.786   4.804  17.166  0.00  0.00    +0.000 A 
BRANCH  25  26
ATOM     26  C   UNL     1       3.715   3.955  17.676  0.00  0.00    +0.000 A 
ATOM     27  C   UNL     1       2.667   3.274  17.013  0.00  0.00    +0.000 A 
ATOM     28  N   UNL     1       1.891   2.578  17.845  0.00  0.00    +0.000 NA
ATOM     29  N   UNL     1       2.442   2.798  19.047  0.00  0.00    +0.000 N 
ATOM     30  C   UNL     1       3.541   3.609  19.003  0.00  0.00    +0.000 A 
BRANCH  29  31
ATOM     31  C   UNL     1       1.928   2.201  20.261  0.00  0.00    +0.000 C 
ATOM     32  C   UNL     1       2.417   2.654  21.627  0.00  0.00    +0.000 C 
ATOM     33  C   UNL     1       1.033   2.999  21.198  0.00  0.00    +0.000 C 
ENDBRANCH  29  31
ENDBRANCH  25  26
ENDBRANCH  19  20
ENDBRANCH   2  18
TORSDOF 7
ENDMDL
MODEL 4
REMARK VINA RESULT:      -8.4      1.685      4.019
REMARK  Name = 
REMARK  7 active torsions:
REMARK  status: ('A' for Active; 'I' for Inactive)
REMARK    1  A    between atoms: C_2  and  C_3
REMARK    2  A    between atoms: C_4  and  C_5
REMARK    3  A    between atoms: C_10  and  C_11
REMARK    4  A    between atoms: N_14  and  C_15
REMARK    5  A    between atoms: N_19  and  C_20
REMARK    6  A    between atoms: C_23  and  C_24
REMARK    7  A    between atoms: C_24  and  N_25
REMARK                            x       y       z     vdW  Elec       q    Type
REMARK                         _______ _______ _______ _____ _____    ______ ____
ROOT
ATOM      1  O   UNL     1       1.836   8.530  18.861  0.00  0.00    +0.000 OA
ATOM      2  C   UNL     1       1.938   7.830  19.858  0.00  0.00    +0.000 C 
ATOM      3  N   UNL     1       1.607   8.175  21.154  0.00  0.00    +0.000 N 
ATOM      4  H   UNL     1       1.798   7.491  21.875  0.00  0.00    +0.000 HD
ENDROOT
BRANCH   3   5
ATOM      5  C   UNL     1       0.886   9.314  21.594  0.00  0.00    +0.000 A 
ATOM      6  C   UNL     1       0.781  10.518  20.895  0.00  0.00    +0.000 A 
ATOM      7  C   UNL     1      -0.095  11.532  21.335  0.00  0.00    +0.000 A 
ATOM      8  C   UNL     1      -0.877  11.364  22.486  0.00  0.00    +0.000 A 
ATOM      9  C   UNL     1      -0.681  10.198  23.238  0.00  0.00    +0.000 A 
ATOM     10  C   UNL     1       0.179   9.186  22.795  0.00  0.00    +0.000 A 
BRANCH   8  11
ATOM     11  C   UNL     1      -1.872  12.410  22.951  0.00  0.00    +0.000 C 
BRANCH  11  12
ATOM     12  N   UNL     1      -2.491  13.305  21.964  0.00  0.00    +0.000 NA
ATOM     13  C   UNL     1      -2.850  14.660  22.398  0.00  0.00    +0.000 C 
ATOM     14  C   UNL     1      -4.278  14.793  22.960  0.00  0.00    +0.000 C 
ATOM     15  O   UNL     1      -5.255  14.262  22.057  0.00  0.00    +0.000 OA
ATOM     16  C   UNL     1      -4.971  12.894  21.740  0.00  0.00    +0.000 C 
ATOM     17  C   UNL     1      -3.567  12.736  21.144  0.00  0.00    +0.000 C 
ENDBRANCH  11  12
ENDBRANCH   8  11
ENDBRANCH   3   5
BRANCH   2  18
ATOM     18  C   UNL     1       2.431   6.414  19.755  0.00  0.00    +0.000 C 
ATOM     19  C   UNL     1       2.324   5.746  18.592  0.00  0.00    +0.000 C 
BRANCH  19  20
ATOM     20  C   UNL     1       2.638   4.317  18.434  0.00  0.00    +0.000 A 
ATOM     21  C   UNL     1       1.790   3.375  19.014  0.00  0.00    +0.000 A 
ATOM     22  N   UNL     1       1.973   2.030  18.967  0.00  0.00    +0.000 NA
ATOM     23  C   UNL     1       3.064   1.593  18.317  0.00  0.00    +0.000 A 
ATOM     24  C   UNL     1       3.977   2.434  17.704  0.00  0.00    +0.000 A 
ATOM     25  C   UNL     1       3.770   3.822  17.751  0.00  0.00    +0.000 A 
BRANCH  25  26
ATOM     26  C   UNL     1       4.758   4.695  17.127  0.00  0.00    +0.000 A 
ATOM     27  C   UNL     1       4.870   5.182  15.803  0.00  0.00    +0.000 A 
ATOM     28  N   UNL     1       5.923   5.982  15.631  0.00  0.00    +0.000 NA
ATOM     29  N   UNL     1       6.490   6.022  16.846  0.00  0.00    +0.000 N 
ATOM     30  C   UNL     1       5.828   5.276  17.781  0.00  0.00    +0.000 A 
BRANCH  29  31
ATOM     31  C   UNL     1       7.669   6.810  17.130  0.00  0.00    +0.000 C 
ATOM     32  C   UNL     1       7.556   8.216  17.696  0.00  0.00    +0.000 C 
ATOM     33  C   UNL     1       8.067   7.120  18.565  0.00  0.00    +0.000 C 
ENDBRANCH  29  31
ENDBRANCH  25  26
ENDBRANCH  19  20
ENDBRANCH   2  18
TORSDOF 7
ENDMDL
MODEL 5
REMARK VINA RESULT:      -8.3      2.548      3.007
REMARK  Name = 
REMARK  7 active torsions:
REMARK  status: ('A' for Active; 'I' for Inactive)
REMARK    1  A    between atoms: C_2  and  C_3
REMARK    2  A    between atoms: C_4  and  C_5
REMARK    3  A    between atoms: C_10  and  C_11
REMARK    4  A    between atoms: N_14  and  C_15
REMARK    5  A    between atoms: N_19  and  C_20
REMARK    6  A    between atoms: C_23  and  C_24
REMARK    7  A    between atoms: C_24  and  N_25
REMARK                            x       y       z     vdW  Elec       q    Type
REMARK                         _______ _______ _______ _____ _____    ______ ____
ROOT
ATOM      1  O   UNL     1       2.038   7.941  19.747  0.00  0.00    +0.000 OA
ATOM      2  C   UNL     1       2.230   8.140  18.555  0.00  0.00    +0.000 C 
ATOM      3  N   UNL     1       1.828   9.238  17.820  0.00  0.00    +0.000 N 
ATOM      4  H   UNL     1       2.029   9.225  16.828  0.00  0.00    +0.000 HD
ENDROOT
BRANCH   3   5
ATOM      5  C   UNL     1       1.302  10.463  18.302  0.00  0.00    +0.000 A 
ATOM      6  C   UNL     1       2.017  11.658  18.413  0.00  0.00    +0.000 A 
ATOM      7  C   UNL     1       1.360  12.860  18.747  0.00  0.00    +0.000 A 
ATOM      8  C   UNL     1      -0.021  12.891  18.982  0.00  0.00    +0.000 A 
ATOM      9  C   UNL     1      -0.706  11.669  18.975  0.00  0.00    +0.000 A 
ATOM     10  C   UNL     1      -0.058  10.477  18.632  0.00  0.00    +0.000 A 
BRANCH   8  11
ATOM     11  C   UNL     1      -0.764  14.178  19.282  0.00  0.00    +0.000 C 
BRANCH  11  12
ATOM     12  N   UNL     1      -0.003  15.402  19.565  0.00  0.00    +0.000 NA
ATOM     13  C   UNL     1      -0.148  16.009  20.892  0.00  0.00    +0.000 C 
ATOM     14  C   UNL     1      -1.276  17.053  20.997  0.00  0.00    +0.000 C 
ATOM     15  O   UNL     1      -1.168  18.055  19.978  0.00  0.00    +0.000 OA
ATOM     16  C   UNL     1      -1.159  17.462  18.674  0.00  0.00    +0.000 C 
ATOM     17  C   UNL     1      -0.022  16.442  18.530  0.00  0.00    +0.000 C 
ENDBRANCH  11  12
ENDBRANCH   8  11
ENDBRANCH   3   5
BRANCH   2  18
ATOM     18  C   UNL     1       3.013   7.158  17.730  0.00  0.00    +0.000 C 
ATOM     19  C   UNL     1       4.263   6.817  18.093  0.00  0.00    +0.000 C 
BRANCH  19  20
ATOM     20  C   UNL     1       5.158   5.985  17.274  0.00  0.00    +0.000 A 
ATOM     21  C   UNL     1       6.263   6.582  16.669  0.00  0.00    +0.000 A 
ATOM     22  N   UNL     1       7.154   5.940  15.870  0.00  0.00    +0.000 NA
ATOM     23  C   UNL     1       6.933   4.633  15.650  0.00  0.00    +0.000 A 
ATOM     24  C   UNL     1       5.869   3.935  16.196  0.00  0.00    +0.000 A 
ATOM     25  C   UNL     1       4.961   4.609  17.028  0.00  0.00    +0.000 A 
BRANCH  25  26
ATOM     26  C   UNL     1       3.830   3.866  17.569  0.00  0.00    +0.000 A 
ATOM     27  C   UNL     1       2.675   3.337  16.945  0.00  0.00    +0.000 A 
ATOM     28  N   UNL     1       1.871   2.698  17.795  0.00  0.00    +0.000 NA
ATOM     29  N   UNL     1       2.509   2.802  18.970  0.00  0.00    +0.000 N 
ATOM     30  C   UNL     1       3.690   3.484  18.891  0.00  0.00    +0.000 A 
BRANCH  29  31
ATOM     31  C   UNL     1       1.996   2.215  20.189  0.00  0.00    +0.000 C 
ATOM     32  C   UNL     1       2.463   2.702  21.551  0.00  0.00    +0.000 C 
ATOM     33  C   UNL     1       1.076   3.010  21.105  0.00  0.00    +0.000 C 
ENDBRANCH  29  31
ENDBRANCH  25  26
ENDBRANCH  19  20
ENDBRANCH   2  18
TORSDOF 7
ENDMDL
MODEL 6
REMARK VINA RESULT:      -8.3      1.813      2.350
REMARK  Name = 
REMARK  7 active torsions:
REMARK  status: ('A' for Active; 'I' for Inactive)
REMARK    1  A    between atoms: C_2  and  C_3
REMARK    2  A    between atoms: C_4  and  C_5
REMARK    3  A    between atoms: C_10  and  C_11
REMARK    4  A    between atoms: N_14  and  C_15
REMARK    5  A    between atoms: N_19  and  C_20
REMARK    6  A    between atoms: C_23  and  C_24
REMARK    7  A    between atoms: C_24  and  N_25
REMARK                            x       y       z     vdW  Elec       q    Type
REMARK                         _______ _______ _______ _____ _____    ______ ____
ROOT
ATOM      1  O   UNL     1       1.619   8.773  19.804  0.00  0.00    +0.000 OA
ATOM      2  C   UNL     1       1.630   8.848  18.583  0.00  0.00    +0.000 C 
ATOM      3  N   UNL     1       0.702   9.483  17.780  0.00  0.00    +0.000 N 
ATOM      4  H   UNL     1       0.835   9.412  16.780  0.00  0.00    +0.000 HD
ENDROOT
BRANCH   3   5
ATOM      5  C   UNL     1      -0.340  10.358  18.179  0.00  0.00    +0.000 A 
ATOM      6  C   UNL     1      -1.658  10.301  17.721  0.00  0.00    +0.000 A 
ATOM      7  C   UNL     1      -2.657  11.108  18.303  0.00  0.00    +0.000 A 
ATOM      8  C   UNL     1      -2.356  11.993  19.348  0.00  0.00    +0.000 A 
ATOM      9  C   UNL     1      -1.012  12.121  19.722  0.00  0.00    +0.000 A 
ATOM     10  C   UNL     1      -0.022  11.310  19.154  0.00  0.00    +0.000 A 
BRANCH   8  11
ATOM     11  C   UNL     1      -3.419  12.829  20.034  0.00  0.00    +0.000 C 
BRANCH  11  12
ATOM     12  N   UNL     1      -3.138  13.414  21.352  0.00  0.00    +0.000 NA
ATOM     13  C   UNL     1      -3.718  12.762  22.530  0.00  0.00    +0.000 C 
ATOM     14  C   UNL     1      -5.107  13.289  22.933  0.00  0.00    +0.000 C 
ATOM     15  O   UNL     1      -5.112  14.715  23.076  0.00  0.00    +0.000 OA
ATOM     16  C   UNL     1      -4.669  15.353  21.872  0.00  0.00    +0.000 C 
ATOM     17  C   UNL     1      -3.270  14.871  21.466  0.00  0.00    +0.000 C 
ENDBRANCH  11  12
ENDBRANCH   8  11
ENDBRANCH   3   5
BRANCH   2  18
ATOM     18  C   UNL     1       2.757   8.252  17.787  0.00  0.00    +0.000 C 
ATOM     19  C   UNL     1       3.219   7.024  18.088  0.00  0.00    +0.000 C 
BRANCH  19  20
ATOM     20  C   UNL     1       4.409   6.420  17.468  0.00  0.00    +0.000 A 
ATOM     21  C   UNL     1       5.399   7.259  16.957  0.00  0.00    +0.000 A 
ATOM     22  N   UNL     1       6.533   6.838  16.340  0.00  0.00    +0.000 NA
ATOM     23  C   UNL     1       6.691   5.510  16.212  0.00  0.00    +0.000 A 
ATOM     24  C   UNL     1       5.776   4.582  16.678  0.00  0.00    +0.000 A 
ATOM     25  C   UNL     1       4.613   5.031  17.324  0.00  0.00    +0.000 A 
BRANCH  25  26
ATOM     26  C   UNL     1       3.644   4.041  17.781  0.00  0.00    +0.000 A 
ATOM     27  C   UNL     1       2.769   3.190  17.065  0.00  0.00    +0.000 A 
ATOM     28  N   UNL     1       2.042   2.405  17.860  0.00  0.00    +0.000 NA
ATOM     29  N   UNL     1       2.452   2.738  19.093  0.00  0.00    +0.000 N 
ATOM     30  C   UNL     1       3.416   3.706  19.103  0.00  0.00    +0.000 A 
BRANCH  29  31
ATOM     31  C   UNL     1       1.936   2.100  20.284  0.00  0.00    +0.000 C 
ATOM     32  C   UNL     1       2.413   2.516  21.666  0.00  0.00    +0.000 C 
ATOM     33  C   UNL     1       1.028   2.861  21.239  0.00  0.00    +0.000 C 
ENDBRANCH  29  31
ENDBRANCH  25  26
ENDBRANCH  19  20
ENDBRANCH   2  18
TORSDOF 7
ENDMDL
MODEL 7
REMARK VINA RESULT:      -8.3      2.724      3.179
REMARK  Name = 
REMARK  7 active torsions:
REMARK  status: ('A' for Active; 'I' for Inactive)
REMARK    1  A    between atoms: C_2  and  C_3
REMARK    2  A    between atoms: C_4  and  C_5
REMARK    3  A    between atoms: C_10  and  C_11
REMARK    4  A    between atoms: N_14  and  C_15
REMARK    5  A    between atoms: N_19  and  C_20
REMARK    6  A    between atoms: C_23  and  C_24
REMARK    7  A    between atoms: C_24  and  N_25
REMARK                            x       y       z     vdW  Elec       q    Type
REMARK                         _______ _______ _______ _____ _____    ______ ____
ROOT
ATOM      1  O   UNL     1       2.154   7.870  19.718  0.00  0.00    +0.000 OA
ATOM      2  C   UNL     1       2.310   7.996  18.512  0.00  0.00    +0.000 C 
ATOM      3  N   UNL     1       1.908   9.060  17.727  0.00  0.00    +0.000 N 
ATOM      4  H   UNL     1       2.074   8.986  16.732  0.00  0.00    +0.000 HD
ENDROOT
BRANCH   3   5
ATOM      5  C   UNL     1       1.424  10.322  18.155  0.00  0.00    +0.000 A 
ATOM      6  C   UNL     1       0.151  10.560  18.678  0.00  0.00    +0.000 A 
ATOM      7  C   UNL     1      -0.176  11.816  19.229  0.00  0.00    +0.000 A 
ATOM      8  C   UNL     1       0.759  12.860  19.262  0.00  0.00    +0.000 A 
ATOM      9  C   UNL     1       1.994  12.643  18.636  0.00  0.00    +0.000 A 
ATOM     10  C   UNL     1       2.324  11.392  18.100  0.00  0.00    +0.000 A 
BRANCH   8  11
ATOM     11  C   UNL     1       0.457  14.200  19.903  0.00  0.00    +0.000 C 
BRANCH  11  12
ATOM     12  N   UNL     1       0.275  15.383  19.050  0.00  0.00    +0.000 NA
ATOM     13  C   UNL     1       1.468  16.147  18.672  0.00  0.00    +0.000 C 
ATOM     14  C   UNL     1       1.833  17.284  19.644  0.00  0.00    +0.000 C 
ATOM     15  O   UNL     1       0.719  18.151  19.888  0.00  0.00    +0.000 OA
ATOM     16  C   UNL     1      -0.405  17.415  20.384  0.00  0.00    +0.000 C 
ATOM     17  C   UNL     1      -0.813  16.296  19.416  0.00  0.00    +0.000 C 
ENDBRANCH  11  12
ENDBRANCH   8  11
ENDBRANCH   3   5
BRANCH   2  18
ATOM     18  C   UNL     1       3.044   6.951  17.719  0.00  0.00    +0.000 C 
ATOM     19  C   UNL     1       4.355   6.739  17.933  0.00  0.00    +0.000 C 
BRANCH  19  20
ATOM     20  C   UNL     1       5.188   5.849  17.110  0.00  0.00    +0.000 A 
ATOM     21  C   UNL     1       6.293   6.385  16.449  0.00  0.00    +0.000 A 
ATOM     22  N   UNL     1       7.131   5.685  15.641  0.00  0.00    +0.000 NA
ATOM     23  C   UNL     1       6.852   4.382  15.468  0.00  0.00    +0.000 A 
ATOM     24  C   UNL     1       5.782   3.743  16.071  0.00  0.00    +0.000 A 
ATOM     25  C   UNL     1       4.931   4.475  16.912  0.00  0.00    +0.000 A 
BRANCH  25  26
ATOM     26  C   UNL     1       3.791   3.793  17.514  0.00  0.00    +0.000 A 
ATOM     27  C   UNL     1       2.559   3.369  16.963  0.00  0.00    +0.000 A 
ATOM     28  N   UNL     1       1.775   2.756  17.851  0.00  0.00    +0.000 NA
ATOM     29  N   UNL     1       2.503   2.773  18.977  0.00  0.00    +0.000 N 
ATOM     30  C   UNL     1       3.721   3.374  18.830  0.00  0.00    +0.000 A 
BRANCH  29  31
ATOM     31  C   UNL     1       2.040   2.179  20.213  0.00  0.00    +0.000 C 
ATOM     32  C   UNL     1       2.560   2.660  21.558  0.00  0.00    +0.000 C 
ATOM     33  C   UNL     1       1.156   2.967  21.168  0.00  0.00    +0.000 C 
ENDBRANCH  29  31
ENDBRANCH  25  26
ENDBRANCH  19  20
ENDBRANCH   2  18
TORSDOF 7
ENDMDL
MODEL 8
REMARK VINA RESULT:      -8.2      1.666      2.069
REMARK  Name = 
REMARK  7 active torsions:
REMARK  status: ('A' for Active; 'I' for Inactive)
REMARK    1  A    between atoms: C_2  and  C_3
REMARK    2  A    between atoms: C_4  and  C_5
REMARK    3  A    between atoms: C_10  and  C_11
REMARK    4  A    between atoms: N_14  and  C_15
REMARK    5  A    between atoms: N_19  and  C_20
REMARK    6  A    between atoms: C_23  and  C_24
REMARK    7  A    between atoms: C_24  and  N_25
REMARK                            x       y       z     vdW  Elec       q    Type
REMARK                         _______ _______ _______ _____ _____    ______ ____
ROOT
ATOM      1  O   UNL     1       1.896   7.862  19.920  0.00  0.00    +0.000 OA
ATOM      2  C   UNL     1       1.979   8.298  18.780  0.00  0.00    +0.000 C 
ATOM      3  N   UNL     1       1.227   9.316  18.223  0.00  0.00    +0.000 N 
ATOM      4  H   UNL     1       1.390   9.525  17.247  0.00  0.00    +0.000 HD
ENDROOT
BRANCH   3   5
ATOM      5  C   UNL     1       0.357  10.217  18.886  0.00  0.00    +0.000 A 
ATOM      6  C   UNL     1       0.742  11.129  19.872  0.00  0.00    +0.000 A 
ATOM      7  C   UNL     1      -0.166  12.096  20.350  0.00  0.00    +0.000 A 
ATOM      8  C   UNL     1      -1.476  12.167  19.858  0.00  0.00    +0.000 A 
ATOM      9  C   UNL     1      -1.882  11.180  18.951  0.00  0.00    +0.000 A 
ATOM     10  C   UNL     1      -0.978  10.226  18.465  0.00  0.00    +0.000 A 
BRANCH   8  11
ATOM     11  C   UNL     1      -2.455  13.234  20.308  0.00  0.00    +0.000 C 
BRANCH  11  12
ATOM     12  N   UNL     1      -3.258  13.012  21.518  0.00  0.00    +0.000 NA
ATOM     13  C   UNL     1      -4.699  13.271  21.443  0.00  0.00    +0.000 C 
ATOM     14  C   UNL     1      -5.110  14.711  21.806  0.00  0.00    +0.000 C 
ATOM     15  O   UNL     1      -4.577  15.110  23.074  0.00  0.00    +0.000 OA
ATOM     16  C   UNL     1      -3.151  14.979  23.097  0.00  0.00    +0.000 C 
ATOM     17  C   UNL     1      -2.715  13.544  22.774  0.00  0.00    +0.000 C 
ENDBRANCH  11  12
ENDBRANCH   8  11
ENDBRANCH   3   5
BRANCH   2  18
ATOM     18  C   UNL     1       3.005   7.760  17.823  0.00  0.00    +0.000 C 
ATOM     19  C   UNL     1       3.260   6.439  17.782  0.00  0.00    +0.000 C 
BRANCH  19  20
ATOM     20  C   UNL     1       4.346   5.837  16.991  0.00  0.00    +0.000 A 
ATOM     21  C   UNL     1       5.029   6.634  16.074  0.00  0.00    +0.000 A 
ATOM     22  N   UNL     1       6.032   6.204  15.265  0.00  0.00    +0.000 NA
ATOM     23  C   UNL     1       6.370   4.908  15.362  0.00  0.00    +0.000 A 
ATOM     24  C   UNL     1       5.761   4.022  16.235  0.00  0.00    +0.000 A 
ATOM     25  C   UNL     1       4.733   4.483  17.074  0.00  0.00    +0.000 A 
BRANCH  25  26
ATOM     26  C   UNL     1       4.082   3.529  17.964  0.00  0.00    +0.000 A 
ATOM     27  C   UNL     1       3.636   2.204  17.749  0.00  0.00    +0.000 A 
ATOM     28  N   UNL     1       3.097   1.653  18.838  0.00  0.00    +0.000 NA
ATOM     29  N   UNL     1       3.203   2.617  19.763  0.00  0.00    +0.000 N 
ATOM     30  C   UNL     1       3.792   3.759  19.297  0.00  0.00    +0.000 A 
BRANCH  29  31
ATOM     31  C   UNL     1       2.759   2.438  21.128  0.00  0.00    +0.000 C 
ATOM     32  C   UNL     1       2.192   3.600  21.928  0.00  0.00    +0.000 C 
ATOM     33  C   UNL     1       1.280   2.512  21.478  0.00  0.00    +0.000 C 
ENDBRANCH  29  31
ENDBRANCH  25  26
ENDBRANCH  19  20
ENDBRANCH   2  18
TORSDOF 7
ENDMDL
MODEL 9
REMARK VINA RESULT:      -8.2      1.745      4.095
REMARK  Name = 
REMARK  7 active torsions:
REMARK  status: ('A' for Active; 'I' for Inactive)
REMARK    1  A    between atoms: C_2  and  C_3
REMARK    2  A    between atoms: C_4  and  C_5
REMARK    3  A    between atoms: C_10  and  C_11
REMARK    4  A    between atoms: N_14  and  C_15
REMARK    5  A    between atoms: N_19  and  C_20
REMARK    6  A    between atoms: C_23  and  C_24
REMARK    7  A    between atoms: C_24  and  N_25
REMARK                            x       y       z     vdW  Elec       q    Type
REMARK                         _______ _______ _______ _____ _____    ______ ____
ROOT
ATOM      1  O   UNL     1       2.183   9.133  17.511  0.00  0.00    +0.000 OA
ATOM      2  C   UNL     1       1.966   8.506  18.538  0.00  0.00    +0.000 C 
ATOM      3  N   UNL     1       1.256   8.937  19.642  0.00  0.00    +0.000 N 
ATOM      4  H   UNL     1       1.208   8.308  20.433  0.00  0.00    +0.000 HD
ENDROOT
BRANCH   3   5
ATOM      5  C   UNL     1       0.448  10.097  19.758  0.00  0.00    +0.000 A 
ATOM      6  C   UNL     1      -0.752  10.313  19.077  0.00  0.00    +0.000 A 
ATOM      7  C   UNL     1      -1.564  11.423  19.385  0.00  0.00    +0.000 A 
ATOM      8  C   UNL     1      -1.191  12.342  20.375  0.00  0.00    +0.000 A 
ATOM      9  C   UNL     1       0.065  12.175  20.973  0.00  0.00    +0.000 A 
ATOM     10  C   UNL     1       0.867  11.067  20.676  0.00  0.00    +0.000 A 
BRANCH   8  11
ATOM     11  C   UNL     1      -2.072  13.511  20.771  0.00  0.00    +0.000 C 
BRANCH  11  12
ATOM     12  N   UNL     1      -3.455  13.259  21.198  0.00  0.00    +0.000 NA
ATOM     13  C   UNL     1      -4.430  14.343  21.038  0.00  0.00    +0.000 C 
ATOM     14  C   UNL     1      -4.550  15.280  22.254  0.00  0.00    +0.000 C 
ATOM     15  O   UNL     1      -4.780  14.550  23.465  0.00  0.00    +0.000 OA
ATOM     16  C   UNL     1      -3.749  13.580  23.685  0.00  0.00    +0.000 C 
ATOM     17  C   UNL     1      -3.632  12.610  22.502  0.00  0.00    +0.000 C 
ENDBRANCH  11  12
ENDBRANCH   8  11
ENDBRANCH   3   5
BRANCH   2  18
ATOM     18  C   UNL     1       2.449   7.091  18.691  0.00  0.00    +0.000 C 
ATOM     19  C   UNL     1       2.114   6.162  17.777  0.00  0.00    +0.000 C 
BRANCH  19  20
ATOM     20  C   UNL     1       2.412   4.727  17.917  0.00  0.00    +0.000 A 
ATOM     21  C   UNL     1       1.449   3.895  18.486  0.00  0.00    +0.000 A 
ATOM     22  N   UNL     1       1.600   2.561  18.697  0.00  0.00    +0.000 NA
ATOM     23  C   UNL     1       2.776   2.024  18.333  0.00  0.00    +0.000 A 
ATOM     24  C   UNL     1       3.805   2.752  17.760  0.00  0.00    +0.000 A 
ATOM     25  C   UNL     1       3.631   4.127  17.538  0.00  0.00    +0.000 A 
BRANCH  25  26
ATOM     26  C   UNL     1       4.737   4.885  16.963  0.00  0.00    +0.000 A 
ATOM     27  C   UNL     1       5.035   5.231  15.624  0.00  0.00    +0.000 A 
ATOM     28  N   UNL     1       6.147   5.958  15.509  0.00  0.00    +0.000 NA
ATOM     29  N   UNL     1       6.566   6.092  16.776  0.00  0.00    +0.000 N 
ATOM     30  C   UNL     1       5.755   5.477  17.687  0.00  0.00    +0.000 A 
BRANCH  29  31
ATOM     31  C   UNL     1       7.749   6.848  17.129  0.00  0.00    +0.000 C 
ATOM     32  C   UNL     1       7.642   8.260  17.680  0.00  0.00    +0.000 C 
ATOM     33  C   UNL     1       8.065   7.156  18.585  0.00  0.00    +0.000 C 
ENDBRANCH  29  31
ENDBRANCH  25  26
ENDBRANCH  19  20
ENDBRANCH   2  18
TORSDOF 7
ENDMDL
