MODEL 1
REMARK VINA RESULT:      -8.5      0.000      0.000
REMARK  Name = 
REMARK  9 active torsions:
REMARK  status: ('A' for Active; 'I' for Inactive)
REMARK    1  A    between atoms: C_1  and  C_2
REMARK    2  A    between atoms: C_2  and  C_4
REMARK    3  A    between atoms: C_7  and  N_8
REMARK    4  A    between atoms: C_9  and  C_11
REMARK    5  A    between atoms: C_11  and  O_12
REMARK    6  A    between atoms: O_12  and  C_13
REMARK    7  A    between atoms: C_16  and  C_17
REMARK    8  A    between atoms: N_24  and  C_25
REMARK    9  A    between atoms: N_28  and  C_29
REMARK                            x       y       z     vdW  Elec       q    Type
REMARK                         _______ _______ _______ _____ _____    ______ ____
ROOT
ATOM      1  C   UNL     1       0.951   9.546  21.797  0.00  0.00    +0.000 A 
ATOM      2  C   UNL     1       0.777  10.734  21.091  0.00  0.00    +0.000 A 
ATOM      3  C   UNL     1      -0.158  11.679  21.525  0.00  0.00    +0.000 A 
ATOM      4  C   UNL     1      -0.954  11.448  22.657  0.00  0.00    +0.000 A 
ATOM      5  C   UNL     1      -0.772  10.245  23.354  0.00  0.00    +0.000 A 
ATOM      6  C   UNL     1       0.166   9.299  22.922  0.00  0.00    +0.000 A 
ENDROOT
BRANCH   4   7
ATOM      7  C   UNL     1      -2.012  12.395  23.032  0.00  0.00    +0.000 A 
ATOM      8  C   UNL     1      -3.303  12.178  23.505  0.00  0.00    +0.000 A 
ATOM      9  C   UNL     1      -3.994  13.412  23.456  0.00  0.00    +0.000 A 
ATOM     10  C   UNL     1      -3.104  14.364  23.058  0.00  0.00    +0.000 A 
ATOM     11  N   UNL     1      -1.889  13.765  22.879  0.00  0.00    +0.000 N 
ATOM     12  C   UNL     1      -3.439  15.732  22.836  0.00  0.00    +0.000 A 
ATOM     13  O   UNL     1      -2.603  16.561  22.490  0.00  0.00    +0.000 OA
ATOM     14  N   UNL     1      -4.794  15.996  23.028  0.00  0.00    +0.000 N 
ATOM     15  C   UNL     1      -5.279  17.333  22.748  0.00  0.00    +0.000 C 
ATOM     16  C   UNL     1      -5.756  15.061  23.453  0.00  0.00    +0.000 A 
ATOM     17  O   UNL     1      -6.936  15.391  23.607  0.00  0.00    +0.000 OA
ATOM     18  N   UNL     1      -5.320  13.747  23.683  0.00  0.00    +0.000 N 
ATOM     19  C   UNL     1      -6.287  12.745  24.100  0.00  0.00    +0.000 C 
ATOM     20  H   UNL     1      -1.054  14.258  22.587  0.00  0.00    +0.000 HD
ENDBRANCH   4   7
BRANCH   1  21
ATOM     21  O   UNL     1       1.837   8.560  21.458  0.00  0.00    +0.000 OA
BRANCH  21  22
ATOM     22  C   UNL     1       1.320   7.598  20.543  0.00  0.00    +0.000 C 
BRANCH  22  24
ATOM     23  N   UNL     1       2.792   6.272  19.113  0.00  0.00    +0.000 N 
ATOM     24  C   UNL     1       2.175   7.502  19.284  0.00  0.00    +0.000 C 
ATOM     25  O   UNL     1       2.261   8.480  18.546  0.00  0.00    +0.000 OA
ATOM     26  H   UNL     1       2.585   5.576  19.824  0.00  0.00    +0.000 HD
BRANCH  23  30
ATOM     27  C   UNL     1       5.441   5.240  15.980  0.00  0.00    +0.000 A 
ATOM     28  C   UNL     1       4.642   4.265  16.570  0.00  0.00    +0.000 A 
ATOM     29  C   UNL     1       3.765   4.600  17.602  0.00  0.00    +0.000 A 
ATOM     30  C   UNL     1       3.663   5.910  18.065  0.00  0.00    +0.000 A 
ATOM     31  C   UNL     1       4.453   6.898  17.465  0.00  0.00    +0.000 A 
ATOM     32  C   UNL     1       5.341   6.566  16.427  0.00  0.00    +0.000 A 
BRANCH  27  34
ATOM     33  C   UNL     1       5.910   3.976  13.781  0.00  0.00    +0.000 C 
ATOM     34  C   UNL     1       6.394   4.888  14.886  0.00  0.00    +0.000 C 
ATOM     35  O   UNL     1       7.530   5.343  14.896  0.00  0.00    +0.000 OA
ENDBRANCH  27  34
ENDBRANCH  23  30
ENDBRANCH  22  24
ENDBRANCH  21  22
ENDBRANCH   1  21
TORSDOF 6
ENDMDL
MODEL 2
REMARK VINA RESULT:      -8.4      1.275      1.945
REMARK  Name = 
REMARK  9 active torsions:
REMARK  status: ('A' for Active; 'I' for Inactive)
REMARK    1  A    between atoms: C_1  and  C_2
REMARK    2  A    between atoms: C_2  and  C_4
REMARK    3  A    between atoms: C_7  and  N_8
REMARK    4  A    between atoms: C_9  and  C_11
REMARK    5  A    between atoms: C_11  and  O_12
REMARK    6  A    between atoms: O_12  and  C_13
REMARK    7  A    between atoms: C_16  and  C_17
REMARK    8  A    between atoms: N_24  and  C_25
REMARK    9  A    between atoms: N_28  and  C_29
REMARK                            x       y       z     vdW  Elec       q    Type
REMARK                         _______ _______ _______ _____ _____    ______ ____
ROOT
ATOM      1  C   UNL     1       0.950   9.145  21.657  0.00  0.00    +0.000 A 
ATOM      2  C   UNL     1       0.418   9.380  22.923  0.00  0.00    +0.000 A 
ATOM      3  C   UNL     1      -0.547  10.375  23.106  0.00  0.00    +0.000 A 
ATOM      4  C   UNL     1      -0.983  11.171  22.037  0.00  0.00    +0.000 A 
ATOM      5  C   UNL     1      -0.434  10.928  20.770  0.00  0.00    +0.000 A 
ATOM      6  C   UNL     1       0.530   9.929  20.584  0.00  0.00    +0.000 A 
ENDROOT
BRANCH   4   7
ATOM      7  C   UNL     1      -1.908  12.289  22.267  0.00  0.00    +0.000 A 
ATOM      8  C   UNL     1      -1.960  13.234  23.288  0.00  0.00    +0.000 A 
ATOM      9  C   UNL     1      -3.194  13.917  23.182  0.00  0.00    +0.000 A 
ATOM     10  C   UNL     1      -3.822  13.458  22.063  0.00  0.00    +0.000 A 
ATOM     11  N   UNL     1      -3.011  12.533  21.467  0.00  0.00    +0.000 N 
ATOM     12  C   UNL     1      -5.122  13.869  21.647  0.00  0.00    +0.000 A 
ATOM     13  O   UNL     1      -5.646  13.441  20.624  0.00  0.00    +0.000 OA
ATOM     14  N   UNL     1      -5.715  14.767  22.532  0.00  0.00    +0.000 N 
ATOM     15  C   UNL     1      -7.075  15.194  22.268  0.00  0.00    +0.000 C 
ATOM     16  C   UNL     1      -5.113  15.288  23.693  0.00  0.00    +0.000 A 
ATOM     17  O   UNL     1      -5.715  16.090  24.413  0.00  0.00    +0.000 OA
ATOM     18  N   UNL     1      -3.814  14.851  23.997  0.00  0.00    +0.000 N 
ATOM     19  C   UNL     1      -3.166  15.347  25.200  0.00  0.00    +0.000 C 
ATOM     20  H   UNL     1      -3.245  12.045  20.612  0.00  0.00    +0.000 HD
ENDBRANCH   4   7
BRANCH   1  21
ATOM     21  O   UNL     1       1.895   8.198  21.372  0.00  0.00    +0.000 OA
BRANCH  21  22
ATOM     22  C   UNL     1       1.447   7.169  20.495  0.00  0.00    +0.000 C 
BRANCH  22  24
ATOM     23  N   UNL     1       3.111   6.037  19.109  0.00  0.00    +0.000 N 
ATOM     24  C   UNL     1       2.264   7.131  19.208  0.00  0.00    +0.000 C 
ATOM     25  O   UNL     1       2.128   8.035  18.388  0.00  0.00    +0.000 OA
ATOM     26  H   UNL     1       3.070   5.381  19.884  0.00  0.00    +0.000 HD
BRANCH  23  30
ATOM     27  C   UNL     1       5.742   5.165  15.913  0.00  0.00    +0.000 A 
ATOM     28  C   UNL     1       5.923   6.316  16.674  0.00  0.00    +0.000 A 
ATOM     29  C   UNL     1       5.060   6.608  17.731  0.00  0.00    +0.000 A 
ATOM     30  C   UNL     1       4.003   5.760  18.053  0.00  0.00    +0.000 A 
ATOM     31  C   UNL     1       3.825   4.592  17.301  0.00  0.00    +0.000 A 
ATOM     32  C   UNL     1       4.690   4.295  16.233  0.00  0.00    +0.000 A 
BRANCH  27  34
ATOM     33  C   UNL     1       6.196   3.835  13.750  0.00  0.00    +0.000 C 
ATOM     34  C   UNL     1       6.651   4.854  14.771  0.00  0.00    +0.000 C 
ATOM     35  O   UNL     1       7.729   5.424  14.675  0.00  0.00    +0.000 OA
ENDBRANCH  27  34
ENDBRANCH  23  30
ENDBRANCH  22  24
ENDBRANCH  21  22
ENDBRANCH   1  21
TORSDOF 6
ENDMDL
MODEL 3
REMARK VINA RESULT:      -8.3      5.892     10.738
REMARK  Name = 
REMARK  9 active torsions:
REMARK  status: ('A' for Active; 'I' for Inactive)
REMARK    1  A    between atoms: C_1  and  C_2
REMARK    2  A    between atoms: C_2  and  C_4
REMARK    3  A    between atoms: C_7  and  N_8
REMARK    4  A    between atoms: C_9  and  C_11
REMARK    5  A    between atoms: C_11  and  O_12
REMARK    6  A    between atoms: O_12  and  C_13
REMARK    7  A    between atoms: C_16  and  C_17
REMARK    8  A    between atoms: N_24  and  C_25
REMARK    9  A    between atoms: N_28  and  C_29
REMARK                            x       y       z     vdW  Elec       q    Type
REMARK                         _______ _______ _______ _____ _____    ______ ____
ROOT
ATOM      1  C   UNL     1       6.527   5.371  17.945  0.00  0.00    +0.000 A 
ATOM      2  C   UNL     1       6.225   6.362  17.014  0.00  0.00    +0.000 A 
ATOM      3  C   UNL     1       6.875   7.599  17.069  0.00  0.00    +0.000 A 
ATOM      4  C   UNL     1       7.819   7.881  18.066  0.00  0.00    +0.000 A 
ATOM      5  C   UNL     1       8.108   6.876  19.001  0.00  0.00    +0.000 A 
ATOM      6  C   UNL     1       7.461   5.635  18.945  0.00  0.00    +0.000 A 
ENDROOT
BRANCH   4   7
ATOM      7  C   UNL     1       8.406   9.223  18.182  0.00  0.00    +0.000 A 
ATOM      8  C   UNL     1       9.385   9.718  19.040  0.00  0.00    +0.000 A 
ATOM      9  C   UNL     1       9.391  11.128  18.918  0.00  0.00    +0.000 A 
ATOM     10  C   UNL     1       8.506  11.459  17.936  0.00  0.00    +0.000 A 
ATOM     11  N   UNL     1       7.970  10.305  17.437  0.00  0.00    +0.000 N 
ATOM     12  C   UNL     1       8.192  12.796  17.558  0.00  0.00    +0.000 A 
ATOM     13  O   UNL     1       7.398  13.051  16.658  0.00  0.00    +0.000 OA
ATOM     14  N   UNL     1       8.856  13.748  18.329  0.00  0.00    +0.000 N 
ATOM     15  C   UNL     1       8.555  15.148  18.102  0.00  0.00    +0.000 C 
ATOM     16  C   UNL     1       9.791  13.469  19.344  0.00  0.00    +0.000 A 
ATOM     17  O   UNL     1      10.339  14.382  19.969  0.00  0.00    +0.000 OA
ATOM     18  N   UNL     1      10.063  12.119  19.616  0.00  0.00    +0.000 N 
ATOM     19  C   UNL     1      11.005  11.788  20.673  0.00  0.00    +0.000 C 
ATOM     20  H   UNL     1       7.287  10.276  16.692  0.00  0.00    +0.000 HD
ENDBRANCH   4   7
BRANCH   1  21
ATOM     21  O   UNL     1       5.951   4.131  17.978  0.00  0.00    +0.000 OA
BRANCH  21  22
ATOM     22  C   UNL     1       4.817   4.034  18.835  0.00  0.00    +0.000 C 
BRANCH  22  24
ATOM     23  N   UNL     1       3.722   6.191  19.178  0.00  0.00    +0.000 N 
ATOM     24  C   UNL     1       3.724   5.019  18.437  0.00  0.00    +0.000 C 
ATOM     25  O   UNL     1       2.950   4.716  17.533  0.00  0.00    +0.000 OA
ATOM     26  H   UNL     1       4.457   6.269  19.875  0.00  0.00    +0.000 HD
BRANCH  23  30
ATOM     27  C   UNL     1       0.987   9.404  18.872  0.00  0.00    +0.000 A 
ATOM     28  C   UNL     1       1.778   9.053  17.782  0.00  0.00    +0.000 A 
ATOM     29  C   UNL     1       2.681   7.993  17.876  0.00  0.00    +0.000 A 
ATOM     30  C   UNL     1       2.811   7.260  19.053  0.00  0.00    +0.000 A 
ATOM     31  C   UNL     1       2.006   7.598  20.149  0.00  0.00    +0.000 A 
ATOM     32  C   UNL     1       1.098   8.668  20.060  0.00  0.00    +0.000 A 
BRANCH  27  34
ATOM     33  C   UNL     1      -1.338  10.293  18.193  0.00  0.00    +0.000 C 
ATOM     34  C   UNL     1       0.030  10.547  18.785  0.00  0.00    +0.000 C 
ATOM     35  O   UNL     1       0.361  11.652  19.196  0.00  0.00    +0.000 OA
ENDBRANCH  27  34
ENDBRANCH  23  30
ENDBRANCH  22  24
ENDBRANCH  21  22
ENDBRANCH   1  21
TORSDOF 6
ENDMDL
MODEL 4
REMARK VINA RESULT:      -8.3      4.332      7.030
REMARK  Name = 
REMARK  9 active torsions:
REMARK  status: ('A' for Active; 'I' for Inactive)
REMARK    1  A    between atoms: C_1  and  C_2
REMARK    2  A    between atoms: C_2  and  C_4
REMARK    3  A    between atoms: C_7  and  N_8
REMARK    4  A    between atoms: C_9  and  C_11
REMARK    5  A    between atoms: C_11  and  O_12
REMARK    6  A    between atoms: O_12  and  C_13
REMARK    7  A    between atoms: C_16  and  C_17
REMARK    8  A    between atoms: N_24  and  C_25
REMARK    9  A    between atoms: N_28  and  C_29
REMARK                            x       y       z     vdW  Elec       q    Type
REMARK                         _______ _______ _______ _____ _____    ______ ____
ROOT
ATOM      1  C   UNL     1       4.589   6.102  18.029  0.00  0.00    +0.000 A 
ATOM      2  C   UNL     1       3.916   5.827  19.217  0.00  0.00    +0.000 A 
ATOM      3  C   UNL     1       2.836   6.622  19.613  0.00  0.00    +0.000 A 
ATOM      4  C   UNL     1       2.420   7.719  18.844  0.00  0.00    +0.000 A 
ATOM      5  C   UNL     1       3.110   7.987  17.653  0.00  0.00    +0.000 A 
ATOM      6  C   UNL     1       4.190   7.190  17.254  0.00  0.00    +0.000 A 
ENDROOT
BRANCH   4   7
ATOM      7  C   UNL     1       1.361   8.613  19.330  0.00  0.00    +0.000 A 
ATOM      8  C   UNL     1       0.495   9.458  18.641  0.00  0.00    +0.000 A 
ATOM      9  C   UNL     1      -0.143  10.290  19.592  0.00  0.00    +0.000 A 
ATOM     10  C   UNL     1       0.259   9.883  20.829  0.00  0.00    +0.000 A 
ATOM     11  N   UNL     1       1.104   8.821  20.675  0.00  0.00    +0.000 N 
ATOM     12  C   UNL     1      -0.126  10.517  22.046  0.00  0.00    +0.000 A 
ATOM     13  O   UNL     1       0.248  10.109  23.141  0.00  0.00    +0.000 OA
ATOM     14  N   UNL     1      -0.934  11.635  21.843  0.00  0.00    +0.000 N 
ATOM     15  C   UNL     1      -1.322  12.419  22.998  0.00  0.00    +0.000 C 
ATOM     16  C   UNL     1      -1.393  12.094  20.595  0.00  0.00    +0.000 A 
ATOM     17  O   UNL     1      -2.116  13.092  20.514  0.00  0.00    +0.000 OA
ATOM     18  N   UNL     1      -0.990  11.379  19.456  0.00  0.00    +0.000 N 
ATOM     19  C   UNL     1      -1.424  11.835  18.146  0.00  0.00    +0.000 C 
ATOM     20  H   UNL     1       1.540   8.329  21.445  0.00  0.00    +0.000 HD
ENDBRANCH   4   7
BRANCH   1  21
ATOM     21  O   UNL     1       5.654   5.387  17.553  0.00  0.00    +0.000 OA
BRANCH  21  22
ATOM     22  C   UNL     1       6.593   6.159  16.811  0.00  0.00    +0.000 C 
BRANCH  22  24
ATOM     23  N   UNL     1       7.470   8.384  17.312  0.00  0.00    +0.000 N 
ATOM     24  C   UNL     1       7.424   7.059  17.718  0.00  0.00    +0.000 C 
ATOM     25  O   UNL     1       7.979   6.568  18.699  0.00  0.00    +0.000 OA
ATOM     26  H   UNL     1       6.929   8.606  16.482  0.00  0.00    +0.000 HD
BRANCH  23  30
ATOM     27  C   UNL     1       9.654  11.469  19.212  0.00  0.00    +0.000 A 
ATOM     28  C   UNL     1       8.917  11.740  18.064  0.00  0.00    +0.000 A 
ATOM     29  C   UNL     1       8.192  10.727  17.434  0.00  0.00    +0.000 A 
ATOM     30  C   UNL     1       8.185   9.427  17.935  0.00  0.00    +0.000 A 
ATOM     31  C   UNL     1       8.914   9.152  19.100  0.00  0.00    +0.000 A 
ATOM     32  C   UNL     1       9.648  10.168  19.736  0.00  0.00    +0.000 A 
BRANCH  27  34
ATOM     33  C   UNL     1       9.947  13.078  21.207  0.00  0.00    +0.000 C 
ATOM     34  C   UNL     1      10.445  12.543  19.884  0.00  0.00    +0.000 C 
ATOM     35  O   UNL     1      11.471  12.961  19.364  0.00  0.00    +0.000 OA
ENDBRANCH  27  34
ENDBRANCH  23  30
ENDBRANCH  22  24
ENDBRANCH  21  22
ENDBRANCH   1  21
TORSDOF 6
ENDMDL
MODEL 5
REMARK VINA RESULT:      -8.2      5.833     11.215
REMARK  Name = 
REMARK  9 active torsions:
REMARK  status: ('A' for Active; 'I' for Inactive)
REMARK    1  A    between atoms: C_1  and  C_2
REMARK    2  A    between atoms: C_2  and  C_4
REMARK    3  A    between atoms: C_7  and  N_8
REMARK    4  A    between atoms: C_9  and  C_11
REMARK    5  A    between atoms: C_11  and  O_12
REMARK    6  A    between atoms: O_12  and  C_13
REMARK    7  A    between atoms: C_16  and  C_17
REMARK    8  A    between atoms: N_24  and  C_25
REMARK    9  A    between atoms: N_28  and  C_29
REMARK                            x       y       z     vdW  Elec       q    Type
REMARK                         _______ _______ _______ _____ _____    ______ ____
ROOT
ATOM      1  C   UNL     1       6.872   6.225  17.684  0.00  0.00    +0.000 A 
ATOM      2  C   UNL     1       6.761   7.386  16.922  0.00  0.00    +0.000 A 
ATOM      3  C   UNL     1       7.505   8.521  17.259  0.00  0.00    +0.000 A 
ATOM      4  C   UNL     1       8.355   8.529  18.373  0.00  0.00    +0.000 A 
ATOM      5  C   UNL     1       8.453   7.356  19.135  0.00  0.00    +0.000 A 
ATOM      6  C   UNL     1       7.710   6.217  18.798  0.00  0.00    +0.000 A 
ENDROOT
BRANCH   4   7
ATOM      7  C   UNL     1       9.040   9.764  18.782  0.00  0.00    +0.000 A 
ATOM      8  C   UNL     1       9.120  10.393  20.021  0.00  0.00    +0.000 A 
ATOM      9  C   UNL     1       9.670  11.680  19.816  0.00  0.00    +0.000 A 
ATOM     10  C   UNL     1      10.004  11.779  18.499  0.00  0.00    +0.000 A 
ATOM     11  N   UNL     1       9.697  10.594  17.891  0.00  0.00    +0.000 N 
ATOM     12  C   UNL     1      10.538  12.953  17.893  0.00  0.00    +0.000 A 
ATOM     13  O   UNL     1      10.839  12.995  16.704  0.00  0.00    +0.000 OA
ATOM     14  N   UNL     1      10.649  14.020  18.782  0.00  0.00    +0.000 N 
ATOM     15  C   UNL     1      11.098  15.299  18.268  0.00  0.00    +0.000 C 
ATOM     16  C   UNL     1      10.336  13.975  20.153  0.00  0.00    +0.000 A 
ATOM     17  O   UNL     1      10.477  14.972  20.869  0.00  0.00    +0.000 OA
ATOM     18  N   UNL     1       9.853  12.761  20.665  0.00  0.00    +0.000 N 
ATOM     19  C   UNL     1       9.495  12.680  22.072  0.00  0.00    +0.000 C 
ATOM     20  H   UNL     1       9.853  10.406  16.909  0.00  0.00    +0.000 HD
ENDBRANCH   4   7
BRANCH   1  21
ATOM     21  O   UNL     1       6.190   5.065  17.441  0.00  0.00    +0.000 OA
BRANCH  21  22
ATOM     22  C   UNL     1       4.928   5.249  16.808  0.00  0.00    +0.000 C 
BRANCH  22  24
ATOM     23  N   UNL     1       3.526   7.055  17.669  0.00  0.00    +0.000 N 
ATOM     24  C   UNL     1       3.865   5.716  17.796  0.00  0.00    +0.000 C 
ATOM     25  O   UNL     1       3.410   4.913  18.606  0.00  0.00    +0.000 OA
ATOM     26  H   UNL     1       3.999   7.558  16.924  0.00  0.00    +0.000 HD
BRANCH  23  30
ATOM     27  C   UNL     1       0.788   9.160  20.113  0.00  0.00    +0.000 A 
ATOM     28  C   UNL     1       1.005   9.562  18.798  0.00  0.00    +0.000 A 
ATOM     29  C   UNL     1       1.904   8.870  17.987  0.00  0.00    +0.000 A 
ATOM     30  C   UNL     1       2.604   7.765  18.465  0.00  0.00    +0.000 A 
ATOM     31  C   UNL     1       2.379   7.346  19.783  0.00  0.00    +0.000 A 
ATOM     32  C   UNL     1       1.476   8.041  20.606  0.00  0.00    +0.000 A 
BRANCH  27  34
ATOM     33  C   UNL     1      -0.287   9.473  22.437  0.00  0.00    +0.000 C 
ATOM     34  C   UNL     1      -0.161   9.904  20.993  0.00  0.00    +0.000 C 
ATOM     35  O   UNL     1      -0.806  10.841  20.541  0.00  0.00    +0.000 OA
ENDBRANCH  27  34
ENDBRANCH  23  30
ENDBRANCH  22  24
ENDBRANCH  21  22
ENDBRANCH   1  21
TORSDOF 6
ENDMDL
MODEL 6
REMARK VINA RESULT:      -8.1      5.810     11.046
REMARK  Name = 
REMARK  9 active torsions:
REMARK  status: ('A' for Active; 'I' for Inactive)
REMARK    1  A    between atoms: C_1  and  C_2
REMARK    2  A    between atoms: C_2  and  C_4
REMARK    3  A    between atoms: C_7  and  N_8
REMARK    4  A    between atoms: C_9  and  C_11
REMARK    5  A    between atoms: C_11  and  O_12
REMARK    6  A    between atoms: O_12  and  C_13
REMARK    7  A    between atoms: C_16  and  C_17
REMARK    8  A    between atoms: N_24  and  C_25
REMARK    9  A    between atoms: N_28  and  C_29
REMARK                            x       y       z     vdW  Elec       q    Type
REMARK                         _______ _______ _______ _____ _____    ______ ____
ROOT
ATOM      1  C   UNL     1       6.860   6.003  17.676  0.00  0.00    +0.000 A 
ATOM      2  C   UNL     1       6.708   7.168  16.928  0.00  0.00    +0.000 A 
ATOM      3  C   UNL     1       7.427   8.319  17.266  0.00  0.00    +0.000 A 
ATOM      4  C   UNL     1       8.294   8.337  18.368  0.00  0.00    +0.000 A 
ATOM      5  C   UNL     1       8.432   7.159  19.115  0.00  0.00    +0.000 A 
ATOM      6  C   UNL     1       7.715   6.005  18.777  0.00  0.00    +0.000 A 
ENDROOT
BRANCH   4   7
ATOM      7  C   UNL     1       8.952   9.584  18.780  0.00  0.00    +0.000 A 
ATOM      8  C   UNL     1       9.005  10.221  20.017  0.00  0.00    +0.000 A 
ATOM      9  C   UNL     1       9.537  11.516  19.814  0.00  0.00    +0.000 A 
ATOM     10  C   UNL     1       9.886  11.614  18.500  0.00  0.00    +0.000 A 
ATOM     11  N   UNL     1       9.607  10.422  17.894  0.00  0.00    +0.000 N 
ATOM     12  C   UNL     1      10.409  12.794  17.896  0.00  0.00    +0.000 A 
ATOM     13  O   UNL     1      10.724  12.837  16.710  0.00  0.00    +0.000 OA
ATOM     14  N   UNL     1      10.490  13.867  18.782  0.00  0.00    +0.000 N 
ATOM     15  C   UNL     1      10.924  15.151  18.268  0.00  0.00    +0.000 C 
ATOM     16  C   UNL     1      10.160  13.823  20.149  0.00  0.00    +0.000 A 
ATOM     17  O   UNL     1      10.275  14.825  20.861  0.00  0.00    +0.000 OA
ATOM     18  N   UNL     1       9.690  12.603  20.660  0.00  0.00    +0.000 N 
ATOM     19  C   UNL     1       9.317  12.522  22.063  0.00  0.00    +0.000 C 
ATOM     20  H   UNL     1       9.779  10.233  16.914  0.00  0.00    +0.000 HD
ENDBRANCH   4   7
BRANCH   1  21
ATOM     21  O   UNL     1       6.205   4.827  17.430  0.00  0.00    +0.000 OA
BRANCH  21  22
ATOM     22  C   UNL     1       5.249   4.470  18.424  0.00  0.00    +0.000 C 
BRANCH  22  24
ATOM     23  N   UNL     1       3.934   6.448  18.995  0.00  0.00    +0.000 N 
ATOM     24  C   UNL     1       3.957   5.264  18.274  0.00  0.00    +0.000 C 
ATOM     25  O   UNL     1       3.061   4.815  17.564  0.00  0.00    +0.000 OA
ATOM     26  H   UNL     1       4.782   6.661  19.513  0.00  0.00    +0.000 HD
BRANCH  23  30
ATOM     27  C   UNL     1       0.721   9.195  19.159  0.00  0.00    +0.000 A 
ATOM     28  C   UNL     1       1.001   8.381  20.252  0.00  0.00    +0.000 A 
ATOM     29  C   UNL     1       2.061   7.475  20.205  0.00  0.00    +0.000 A 
ATOM     30  C   UNL     1       2.864   7.362  19.072  0.00  0.00    +0.000 A 
ATOM     31  C   UNL     1       2.596   8.190  17.974  0.00  0.00    +0.000 A 
ATOM     32  C   UNL     1       1.527   9.103  18.015  0.00  0.00    +0.000 A 
BRANCH  27  34
ATOM     33  C   UNL     1      -1.257  10.322  17.946  0.00  0.00    +0.000 C 
ATOM     34  C   UNL     1      -0.421  10.156  19.195  0.00  0.00    +0.000 C 
ATOM     35  O   UNL     1      -0.664  10.778  20.220  0.00  0.00    +0.000 OA
ENDBRANCH  27  34
ENDBRANCH  23  30
ENDBRANCH  22  24
ENDBRANCH  21  22
ENDBRANCH   1  21
TORSDOF 6
ENDMDL
MODEL 7
REMARK VINA RESULT:      -8.1      5.530     10.970
REMARK  Name = 
REMARK  9 active torsions:
REMARK  status: ('A' for Active; 'I' for Inactive)
REMARK    1  A    between atoms: C_1  and  C_2
REMARK    2  A    between atoms: C_2  and  C_4
REMARK    3  A    between atoms: C_7  and  N_8
REMARK    4  A    between atoms: C_9  and  C_11
REMARK    5  A    between atoms: C_11  and  O_12
REMARK    6  A    between atoms: O_12  and  C_13
REMARK    7  A    between atoms: C_16  and  C_17
REMARK    8  A    between atoms: N_24  and  C_25
REMARK    9  A    between atoms: N_28  and  C_29
REMARK                            x       y       z     vdW  Elec       q    Type
REMARK                         _______ _______ _______ _____ _____    ______ ____
ROOT
ATOM      1  C   UNL     1       6.956   5.628  17.853  0.00  0.00    +0.000 A 
ATOM      2  C   UNL     1       7.855   5.944  18.869  0.00  0.00    +0.000 A 
ATOM      3  C   UNL     1       8.348   7.247  18.991  0.00  0.00    +0.000 A 
ATOM      4  C   UNL     1       7.973   8.254  18.090  0.00  0.00    +0.000 A 
ATOM      5  C   UNL     1       7.072   7.920  17.068  0.00  0.00    +0.000 A 
ATOM      6  C   UNL     1       6.575   6.616  16.947  0.00  0.00    +0.000 A 
ENDROOT
BRANCH   4   7
ATOM      7  C   UNL     1       8.589   9.585  18.159  0.00  0.00    +0.000 A 
ATOM      8  C   UNL     1       9.742  10.024  18.807  0.00  0.00    +0.000 A 
ATOM      9  C   UNL     1       9.740  11.438  18.779  0.00  0.00    +0.000 A 
ATOM     10  C   UNL     1       8.662  11.833  18.045  0.00  0.00    +0.000 A 
ATOM     11  N   UNL     1       8.013  10.715  17.604  0.00  0.00    +0.000 N 
ATOM     12  C   UNL     1       8.289  13.193  17.836  0.00  0.00    +0.000 A 
ATOM     13  O   UNL     1       7.318  13.507  17.156  0.00  0.00    +0.000 OA
ATOM     14  N   UNL     1       9.122  14.092  18.500  0.00  0.00    +0.000 N 
ATOM     15  C   UNL     1       8.797  15.503  18.439  0.00  0.00    +0.000 C 
ATOM     16  C   UNL     1      10.256  13.746  19.258  0.00  0.00    +0.000 A 
ATOM     17  O   UNL     1      10.943  14.616  19.804  0.00  0.00    +0.000 OA
ATOM     18  N   UNL     1      10.564  12.382  19.373  0.00  0.00    +0.000 N 
ATOM     19  C   UNL     1      11.714  11.982  20.168  0.00  0.00    +0.000 C 
ATOM     20  H   UNL     1       7.179  10.735  17.031  0.00  0.00    +0.000 HD
ENDBRANCH   4   7
BRANCH   1  21
ATOM     21  O   UNL     1       6.415   4.388  17.648  0.00  0.00    +0.000 OA
BRANCH  21  22
ATOM     22  C   UNL     1       5.002   4.387  17.474  0.00  0.00    +0.000 C 
BRANCH  22  24
ATOM     23  N   UNL     1       3.438   6.216  17.899  0.00  0.00    +0.000 N 
ATOM     24  C   UNL     1       4.310   5.305  18.476  0.00  0.00    +0.000 C 
ATOM     25  O   UNL     1       4.568   5.185  19.671  0.00  0.00    +0.000 OA
ATOM     26  H   UNL     1       3.341   6.150  16.890  0.00  0.00    +0.000 HD
BRANCH  23  30
ATOM     27  C   UNL     1       1.176   9.204  19.861  0.00  0.00    +0.000 A 
ATOM     28  C   UNL     1       1.539   8.044  20.539  0.00  0.00    +0.000 A 
ATOM     29  C   UNL     1       2.287   7.056  19.898  0.00  0.00    +0.000 A 
ATOM     30  C   UNL     1       2.691   7.203  18.573  0.00  0.00    +0.000 A 
ATOM     31  C   UNL     1       2.341   8.376  17.890  0.00  0.00    +0.000 A 
ATOM     32  C   UNL     1       1.585   9.373  18.530  0.00  0.00    +0.000 A 
BRANCH  27  34
ATOM     33  C   UNL     1      -0.835  10.818  19.799  0.00  0.00    +0.000 C 
ATOM     34  C   UNL     1       0.362  10.260  20.534  0.00  0.00    +0.000 C 
ATOM     35  O   UNL     1       0.668  10.644  21.655  0.00  0.00    +0.000 OA
ENDBRANCH  27  34
ENDBRANCH  23  30
ENDBRANCH  22  24
ENDBRANCH  21  22
ENDBRANCH   1  21
TORSDOF 6
ENDMDL
MODEL 8
REMARK VINA RESULT:      -8.1      5.621     11.071
REMARK  Name = 
REMARK  9 active torsions:
REMARK  status: ('A' for Active; 'I' for Inactive)
REMARK    1  A    between atoms: C_1  and  C_2
REMARK    2  A    between atoms: C_2  and  C_4
REMARK    3  A    between atoms: C_7  and  N_8
REMARK    4  A    between atoms: C_9  and  C_11
REMARK    5  A    between atoms: C_11  and  O_12
REMARK    6  A    between atoms: O_12  and  C_13
REMARK    7  A    between atoms: C_16  and  C_17
REMARK    8  A    between atoms: N_24  and  C_25
REMARK    9  A    between atoms: N_28  and  C_29
REMARK                            x       y       z     vdW  Elec       q    Type
REMARK                         _______ _______ _______ _____ _____    ______ ____
ROOT
ATOM      1  C   UNL     1       7.145   5.793  17.959  0.00  0.00    +0.000 A 
ATOM      2  C   UNL     1       7.978   6.176  19.007  0.00  0.00    +0.000 A 
ATOM      3  C   UNL     1       8.445   7.492  19.088  0.00  0.00    +0.000 A 
ATOM      4  C   UNL     1       8.109   8.444  18.115  0.00  0.00    +0.000 A 
ATOM      5  C   UNL     1       7.275   8.042  17.062  0.00  0.00    +0.000 A 
ATOM      6  C   UNL     1       6.804   6.726  16.981  0.00  0.00    +0.000 A 
ENDROOT
BRANCH   4   7
ATOM      7  C   UNL     1       8.701   9.788  18.150  0.00  0.00    +0.000 A 
ATOM      8  C   UNL     1       9.900  10.242  18.693  0.00  0.00    +0.000 A 
ATOM      9  C   UNL     1       9.867  11.656  18.691  0.00  0.00    +0.000 A 
ATOM     10  C   UNL     1       8.716  12.038  18.069  0.00  0.00    +0.000 A 
ATOM     11  N   UNL     1       8.051  10.913  17.672  0.00  0.00    +0.000 N 
ATOM     12  C   UNL     1       8.297  13.393  17.921  0.00  0.00    +0.000 A 
ATOM     13  O   UNL     1       7.258  13.695  17.341  0.00  0.00    +0.000 OA
ATOM     14  N   UNL     1       9.170  14.299  18.519  0.00  0.00    +0.000 N 
ATOM     15  C   UNL     1       8.810  15.704  18.514  0.00  0.00    +0.000 C 
ATOM     16  C   UNL     1      10.378  13.968  19.160  0.00  0.00    +0.000 A 
ATOM     17  O   UNL     1      11.095  14.844  19.654  0.00  0.00    +0.000 OA
ATOM     18  N   UNL     1      10.723  12.609  19.221  0.00  0.00    +0.000 N 
ATOM     19  C   UNL     1      11.952  12.222  19.896  0.00  0.00    +0.000 C 
ATOM     20  H   UNL     1       7.166  10.923  17.180  0.00  0.00    +0.000 HD
ENDBRANCH   4   7
BRANCH   1  21
ATOM     21  O   UNL     1       6.635   4.535  17.788  0.00  0.00    +0.000 OA
BRANCH  21  22
ATOM     22  C   UNL     1       5.232   4.499  17.549  0.00  0.00    +0.000 C 
BRANCH  22  24
ATOM     23  N   UNL     1       3.507   6.148  18.075  0.00  0.00    +0.000 N 
ATOM     24  C   UNL     1       4.460   5.288  18.600  0.00  0.00    +0.000 C 
ATOM     25  O   UNL     1       4.731   5.123  19.787  0.00  0.00    +0.000 OA
ATOM     26  H   UNL     1       3.415   6.133  17.063  0.00  0.00    +0.000 HD
BRANCH  23  30
ATOM     27  C   UNL     1       1.022   8.734  20.318  0.00  0.00    +0.000 A 
ATOM     28  C   UNL     1       1.474   9.117  19.059  0.00  0.00    +0.000 A 
ATOM     29  C   UNL     1       2.292   8.268  18.313  0.00  0.00    +0.000 A 
ATOM     30  C   UNL     1       2.673   7.021  18.803  0.00  0.00    +0.000 A 
ATOM     31  C   UNL     1       2.208   6.623  20.064  0.00  0.00    +0.000 A 
ATOM     32  C   UNL     1       1.386   7.477  20.820  0.00  0.00    +0.000 A 
BRANCH  27  34
ATOM     33  C   UNL     1       0.240   9.553  22.636  0.00  0.00    +0.000 C 
ATOM     34  C   UNL     1       0.159   9.644  21.129  0.00  0.00    +0.000 C 
ATOM     35  O   UNL     1      -0.582  10.442  20.570  0.00  0.00    +0.000 OA
ENDBRANCH  27  34
ENDBRANCH  23  30
ENDBRANCH  22  24
ENDBRANCH  21  22
ENDBRANCH   1  21
TORSDOF 6
ENDMDL
MODEL 9
REMARK VINA RESULT:      -8.0      5.675     10.810
REMARK  Name = 
REMARK  9 active torsions:
REMARK  status: ('A' for Active; 'I' for Inactive)
REMARK    1  A    between atoms: C_1  and  C_2
REMARK    2  A    between atoms: C_2  and  C_4
REMARK    3  A    between atoms: C_7  and  N_8
REMARK    4  A    between atoms: C_9  and  C_11
REMARK    5  A    between atoms: C_11  and  O_12
REMARK    6  A    between atoms: O_12  and  C_13
REMARK    7  A    between atoms: C_16  and  C_17
REMARK    8  A    between atoms: N_24  and  C_25
REMARK    9  A    between atoms: N_28  and  C_29
REMARK                            x       y       z     vdW  Elec       q    Type
REMARK                         _______ _______ _______ _____ _____    ______ ____
ROOT
ATOM      1  C   UNL     1       6.654   5.381  17.968  0.00  0.00    +0.000 A 
ATOM      2  C   UNL     1       6.332   6.366  17.037  0.00  0.00    +0.000 A 
ATOM      3  C   UNL     1       6.961   7.614  17.088  0.00  0.00    +0.000 A 
ATOM      4  C   UNL     1       7.905   7.912  18.081  0.00  0.00    +0.000 A 
ATOM      5  C   UNL     1       8.215   6.913  19.015  0.00  0.00    +0.000 A 
ATOM      6  C   UNL     1       7.588   5.662  18.963  0.00  0.00    +0.000 A 
ENDROOT
BRANCH   4   7
ATOM      7  C   UNL     1       8.470   9.263  18.193  0.00  0.00    +0.000 A 
ATOM      8  C   UNL     1       9.455   9.772  19.035  0.00  0.00    +0.000 A 
ATOM      9  C   UNL     1       9.436  11.182  18.920  0.00  0.00    +0.000 A 
ATOM     10  C   UNL     1       8.528  11.502  17.956  0.00  0.00    +0.000 A 
ATOM     11  N   UNL     1       8.003  10.341  17.461  0.00  0.00    +0.000 N 
ATOM     12  C   UNL     1       8.183  12.835  17.589  0.00  0.00    +0.000 A 
ATOM     13  O   UNL     1       7.369  13.081  16.705  0.00  0.00    +0.000 OA
ATOM     14  N   UNL     1       8.845  13.795  18.354  0.00  0.00    +0.000 N 
ATOM     15  C   UNL     1       8.515  15.190  18.139  0.00  0.00    +0.000 C 
ATOM     16  C   UNL     1       9.801  13.528  19.350  0.00  0.00    +0.000 A 
ATOM     17  O   UNL     1      10.345  14.447  19.970  0.00  0.00    +0.000 OA
ATOM     18  N   UNL     1      10.102  12.182  19.611  0.00  0.00    +0.000 N 
ATOM     19  C   UNL     1      11.068  11.863  20.650  0.00  0.00    +0.000 C 
ATOM     20  H   UNL     1       7.307  10.304  16.727  0.00  0.00    +0.000 HD
ENDBRANCH   4   7
BRANCH   1  21
ATOM     21  O   UNL     1       6.098   4.132  18.005  0.00  0.00    +0.000 OA
BRANCH  21  22
ATOM     22  C   UNL     1       4.680   4.117  17.867  0.00  0.00    +0.000 C 
BRANCH  22  24
ATOM     23  N   UNL     1       3.240   6.084  18.025  0.00  0.00    +0.000 N 
ATOM     24  C   UNL     1       4.020   5.182  18.734  0.00  0.00    +0.000 C 
ATOM     25  O   UNL     1       4.221   5.174  19.946  0.00  0.00    +0.000 OA
ATOM     26  H   UNL     1       3.178   5.917  17.025  0.00  0.00    +0.000 HD
BRANCH  23  30
ATOM     27  C   UNL     1       1.130   9.416  19.557  0.00  0.00    +0.000 A 
ATOM     28  C   UNL     1       1.361   8.304  20.362  0.00  0.00    +0.000 A 
ATOM     29  C   UNL     1       2.059   7.203  19.863  0.00  0.00    +0.000 A 
ATOM     30  C   UNL     1       2.542   7.188  18.557  0.00  0.00    +0.000 A 
ATOM     31  C   UNL     1       2.325   8.310  17.746  0.00  0.00    +0.000 A 
ATOM     32  C   UNL     1       1.621   9.420  18.243  0.00  0.00    +0.000 A 
BRANCH  27  34
ATOM     33  C   UNL     1       1.092  11.916  20.192  0.00  0.00    +0.000 C 
ATOM     34  C   UNL     1       0.371  10.591  20.077  0.00  0.00    +0.000 C 
ATOM     35  O   UNL     1      -0.806  10.469  20.390  0.00  0.00    +0.000 OA
ENDBRANCH  27  34
ENDBRANCH  23  30
ENDBRANCH  22  24
ENDBRANCH  21  22
ENDBRANCH   1  21
TORSDOF 6
ENDMDL
