MODEL 1
REMARK VINA RESULT:      -8.5      0.000      0.000
REMARK  Name = 
REMARK  10 active torsions:
REMARK  status: ('A' for Active; 'I' for Inactive)
REMARK    1  A    between atoms: C_1  and  O_2
REMARK    2  A    between atoms: O_2  and  C_3
REMARK    3  A    between atoms: C_10  and  C_11
REMARK    4  A    between atoms: C_11  and  O_12
REMARK    5  A    between atoms: C_11  and  C_13
REMARK    6  A    between atoms: C_13  and  N_14
REMARK    7  A    between atoms: C_17  and  N_18
REMARK    8  A    between atoms: N_18  and  C_19
REMARK    9  A    between atoms: C_19  and  C_20
REMARK   10  A    between atoms: C_21  and  C_22
REMARK                            x       y       z     vdW  Elec       q    Type
REMARK                         _______ _______ _______ _____ _____    ______ ____
ROOT
ATOM      1  N   UNL     1       5.117   3.982  16.568  0.00  0.00    +0.000 NA
ATOM      2  C   UNL     1       5.393   4.848  15.412  0.00  0.00    +0.000 C 
ATOM      3  C   UNL     1       6.888   5.039  15.153  0.00  0.00    +0.000 C 
ATOM      4  C   UNL     1       7.638   5.553  16.386  0.00  0.00    +0.000 C 
ATOM      5  C   UNL     1       7.320   4.595  17.544  0.00  0.00    +0.000 C 
ATOM      6  C   UNL     1       5.816   4.462  17.776  0.00  0.00    +0.000 C 
ENDROOT
BRANCH   4   7
ATOM      7  N   UNL     1       7.284   6.963  16.638  0.00  0.00    +0.000 NA
ATOM      8  H   UNL     1       6.277   7.095  16.563  0.00  0.00    +0.000 HD
BRANCH   7   9
ATOM      9  C   UNL     1       7.724   7.419  17.951  0.00  0.00    +0.000 C 
BRANCH   9  10
ATOM     10  C   UNL     1       8.193   8.836  17.866  0.00  0.00    +0.000 C 
ATOM     11  C   UNL     1       8.867   9.444  18.857  0.00  0.00    +0.000 C 
BRANCH  11  12
ATOM     12  C   UNL     1       9.384  10.813  18.791  0.00  0.00    +0.000 A 
ATOM     13  C   UNL     1      10.411  11.280  19.615  0.00  0.00    +0.000 A 
ATOM     14  C   UNL     1      10.859  12.593  19.492  0.00  0.00    +0.000 A 
ATOM     15  C   UNL     1      10.276  13.400  18.528  0.00  0.00    +0.000 A 
ATOM     16  N   UNL     1       9.300  12.985  17.695  0.00  0.00    +0.000 NA
ATOM     17  C   UNL     1       8.881  11.706  17.845  0.00  0.00    +0.000 A 
ENDBRANCH  11  12
ENDBRANCH   9  10
ENDBRANCH   7   9
ENDBRANCH   4   7
BRANCH   1  18
ATOM     18  C   UNL     1       3.666   3.873  16.865  0.00  0.00    +0.000 C 
BRANCH  18  19
ATOM     19  C   UNL     1       3.208   2.704  17.790  0.00  0.00    +0.000 C 
BRANCH  19  27
ATOM     20  C   UNL     1       2.420   6.994  19.009  0.00  0.00    +0.000 A 
ATOM     21  C   UNL     1       1.831   7.213  20.243  0.00  0.00    +0.000 A 
ATOM     22  C   UNL     1       1.525   6.126  21.063  0.00  0.00    +0.000 A 
ATOM     23  C   UNL     1       1.795   4.816  20.696  0.00  0.00    +0.000 A 
ATOM     24  N   UNL     1       1.467   3.861  21.573  0.00  0.00    +0.000 NA
ATOM     25  C   UNL     1       1.701   2.581  21.235  0.00  0.00    +0.000 A 
ATOM     26  C   UNL     1       2.267   2.196  20.038  0.00  0.00    +0.000 A 
ATOM     27  C   UNL     1       2.620   3.183  19.106  0.00  0.00    +0.000 A 
ATOM     28  C   UNL     1       2.375   4.557  19.431  0.00  0.00    +0.000 A 
ATOM     29  C   UNL     1       2.656   5.680  18.599  0.00  0.00    +0.000 A 
BRANCH  20  31
ATOM     30  C   UNL     1       3.860   7.638  17.248  0.00  0.00    +0.000 C 
ATOM     31  O   UNL     1       2.776   7.966  18.114  0.00  0.00    +0.000 OA
ENDBRANCH  20  31
ENDBRANCH  19  27
BRANCH  19  32
ATOM     32  O   UNL     1       2.253   1.806  17.227  0.00  0.00    +0.000 OA
ATOM     33  H   UNL     1       2.683   0.950  17.092  0.00  0.00    +0.000 HD
ENDBRANCH  19  32
ENDBRANCH  18  19
ENDBRANCH   1  18
TORSDOF 9
ENDMDL
MODEL 2
REMARK VINA RESULT:      -8.4      4.002      5.485
REMARK  Name = 
REMARK  10 active torsions:
REMARK  status: ('A' for Active; 'I' for Inactive)
REMARK    1  A    between atoms: C_1  and  O_2
REMARK    2  A    between atoms: O_2  and  C_3
REMARK    3  A    between atoms: C_10  and  C_11
REMARK    4  A    between atoms: C_11  and  O_12
REMARK    5  A    between atoms: C_11  and  C_13
REMARK    6  A    between atoms: C_13  and  N_14
REMARK    7  A    between atoms: C_17  and  N_18
REMARK    8  A    between atoms: N_18  and  C_19
REMARK    9  A    between atoms: C_19  and  C_20
REMARK   10  A    between atoms: C_21  and  C_22
REMARK                            x       y       z     vdW  Elec       q    Type
REMARK                         _______ _______ _______ _____ _____    ______ ____
ROOT
ATOM      1  N   UNL     1       2.673   7.198  18.069  0.00  0.00    +0.000 NA
ATOM      2  C   UNL     1       3.877   7.679  17.374  0.00  0.00    +0.000 C 
ATOM      3  C   UNL     1       4.603   6.574  16.605  0.00  0.00    +0.000 C 
ATOM      4  C   UNL     1       4.950   5.372  17.489  0.00  0.00    +0.000 C 
ATOM      5  C   UNL     1       3.649   4.913  18.166  0.00  0.00    +0.000 C 
ATOM      6  C   UNL     1       2.981   6.048  18.940  0.00  0.00    +0.000 C 
ENDROOT
BRANCH   4   7
ATOM      7  N   UNL     1       6.036   5.730  18.421  0.00  0.00    +0.000 NA
ATOM      8  H   UNL     1       6.193   4.977  19.089  0.00  0.00    +0.000 HD
BRANCH   7   9
ATOM      9  C   UNL     1       7.287   6.018  17.730  0.00  0.00    +0.000 C 
BRANCH   9  10
ATOM     10  C   UNL     1       7.907   7.256  18.297  0.00  0.00    +0.000 C 
ATOM     11  C   UNL     1       7.901   8.436  17.655  0.00  0.00    +0.000 C 
BRANCH  11  12
ATOM     12  C   UNL     1       8.454   9.679  18.198  0.00  0.00    +0.000 A 
ATOM     13  C   UNL     1       9.269   9.720  19.331  0.00  0.00    +0.000 A 
ATOM     14  C   UNL     1       9.768  10.938  19.787  0.00  0.00    +0.000 A 
ATOM     15  C   UNL     1       9.449  12.085  19.079  0.00  0.00    +0.000 A 
ATOM     16  N   UNL     1       8.686  12.091  17.966  0.00  0.00    +0.000 NA
ATOM     17  C   UNL     1       8.211  10.892  17.553  0.00  0.00    +0.000 A 
ENDBRANCH  11  12
ENDBRANCH   9  10
ENDBRANCH   7   9
ENDBRANCH   4   7
BRANCH   1  18
ATOM     18  C   UNL     1       2.025   8.257  18.884  0.00  0.00    +0.000 C 
BRANCH  18  19
ATOM     19  C   UNL     1       1.181   9.329  18.127  0.00  0.00    +0.000 C 
BRANCH  19  27
ATOM     20  C   UNL     1      -2.878  11.115  17.208  0.00  0.00    +0.000 A 
ATOM     21  C   UNL     1      -3.511  11.823  18.215  0.00  0.00    +0.000 A 
ATOM     22  C   UNL     1      -2.880  11.977  19.450  0.00  0.00    +0.000 A 
ATOM     23  C   UNL     1      -1.624  11.451  19.716  0.00  0.00    +0.000 A 
ATOM     24  N   UNL     1      -1.118  11.677  20.933  0.00  0.00    +0.000 NA
ATOM     25  C   UNL     1       0.089  11.163  21.225  0.00  0.00    +0.000 A 
ATOM     26  C   UNL     1       0.841  10.423  20.337  0.00  0.00    +0.000 A 
ATOM     27  C   UNL     1       0.329  10.177  19.055  0.00  0.00    +0.000 A 
ATOM     28  C   UNL     1      -0.961  10.703  18.716  0.00  0.00    +0.000 A 
ATOM     29  C   UNL     1      -1.634  10.536  17.470  0.00  0.00    +0.000 A 
BRANCH  20  31
ATOM     30  C   UNL     1      -2.813   9.794  15.248  0.00  0.00    +0.000 C 
ATOM     31  O   UNL     1      -3.379  10.896  15.953  0.00  0.00    +0.000 OA
ENDBRANCH  20  31
ENDBRANCH  19  27
BRANCH  19  32
ATOM     32  O   UNL     1       1.923  10.241  17.318  0.00  0.00    +0.000 OA
ATOM     33  H   UNL     1       2.120   9.808  16.475  0.00  0.00    +0.000 HD
ENDBRANCH  19  32
ENDBRANCH  18  19
ENDBRANCH   1  18
TORSDOF 9
ENDMDL
MODEL 3
REMARK VINA RESULT:      -8.4      3.183      6.352
REMARK  Name = 
REMARK  10 active torsions:
REMARK  status: ('A' for Active; 'I' for Inactive)
REMARK    1  A    between atoms: C_1  and  O_2
REMARK    2  A    between atoms: O_2  and  C_3
REMARK    3  A    between atoms: C_10  and  C_11
REMARK    4  A    between atoms: C_11  and  O_12
REMARK    5  A    between atoms: C_11  and  C_13
REMARK    6  A    between atoms: C_13  and  N_14
REMARK    7  A    between atoms: C_17  and  N_18
REMARK    8  A    between atoms: N_18  and  C_19
REMARK    9  A    between atoms: C_19  and  C_20
REMARK   10  A    between atoms: C_21  and  C_22
REMARK                            x       y       z     vdW  Elec       q    Type
REMARK                         _______ _______ _______ _____ _____    ______ ____
ROOT
ATOM      1  N   UNL     1       1.423   5.085  20.502  0.00  0.00    +0.000 NA
ATOM      2  C   UNL     1       1.590   4.755  19.078  0.00  0.00    +0.000 C 
ATOM      3  C   UNL     1       1.176   3.321  18.745  0.00  0.00    +0.000 C 
ATOM      4  C   UNL     1       1.896   2.284  19.613  0.00  0.00    +0.000 C 
ATOM      5  C   UNL     1       1.665   2.679  21.080  0.00  0.00    +0.000 C 
ATOM      6  C   UNL     1       2.120   4.110  21.362  0.00  0.00    +0.000 C 
ENDROOT
BRANCH   4   7
ATOM      7  N   UNL     1       3.314   2.193  19.216  0.00  0.00    +0.000 NA
ATOM      8  H   UNL     1       3.712   1.306  19.521  0.00  0.00    +0.000 HD
BRANCH   7   9
ATOM      9  C   UNL     1       3.496   2.323  17.775  0.00  0.00    +0.000 C 
BRANCH   9  10
ATOM     10  C   UNL     1       4.433   3.451  17.482  0.00  0.00    +0.000 C 
ATOM     11  C   UNL     1       4.979   4.217  18.441  0.00  0.00    +0.000 C 
BRANCH  11  12
ATOM     12  C   UNL     1       5.937   5.298  18.196  0.00  0.00    +0.000 A 
ATOM     13  C   UNL     1       7.063   5.513  18.994  0.00  0.00    +0.000 A 
ATOM     14  C   UNL     1       7.937   6.555  18.697  0.00  0.00    +0.000 A 
ATOM     15  C   UNL     1       7.668   7.345  17.591  0.00  0.00    +0.000 A 
ATOM     16  N   UNL     1       6.608   7.159  16.778  0.00  0.00    +0.000 NA
ATOM     17  C   UNL     1       5.772   6.143  17.098  0.00  0.00    +0.000 A 
ENDBRANCH  11  12
ENDBRANCH   9  10
ENDBRANCH   7   9
ENDBRANCH   4   7
BRANCH   1  18
ATOM     18  C   UNL     1       1.910   6.449  20.831  0.00  0.00    +0.000 C 
BRANCH  18  19
ATOM     19  C   UNL     1       1.303   7.640  20.028  0.00  0.00    +0.000 C 
BRANCH  19  27
ATOM     20  C   UNL     1      -1.344  11.096  18.777  0.00  0.00    +0.000 A 
ATOM     21  C   UNL     1      -1.760  11.976  19.762  0.00  0.00    +0.000 A 
ATOM     22  C   UNL     1      -1.341  11.783  21.080  0.00  0.00    +0.000 A 
ATOM     23  C   UNL     1      -0.507  10.739  21.451  0.00  0.00    +0.000 A 
ATOM     24  N   UNL     1      -0.164  10.667  22.741  0.00  0.00    +0.000 NA
ATOM     25  C   UNL     1       0.628   9.654  23.134  0.00  0.00    +0.000 A 
ATOM     26  C   UNL     1       1.115   8.688  22.278  0.00  0.00    +0.000 A 
ATOM     27  C   UNL     1       0.768   8.747  20.921  0.00  0.00    +0.000 A 
ATOM     28  C   UNL     1      -0.083   9.809  20.472  0.00  0.00    +0.000 A 
ATOM     29  C   UNL     1      -0.543  10.010  19.138  0.00  0.00    +0.000 A 
BRANCH  20  31
ATOM     30  C   UNL     1      -2.188   9.974  16.874  0.00  0.00    +0.000 C 
ATOM     31  O   UNL     1      -1.674  11.173  17.451  0.00  0.00    +0.000 OA
ENDBRANCH  20  31
ENDBRANCH  19  27
BRANCH  19  32
ATOM     32  O   UNL     1       2.180   8.268  19.094  0.00  0.00    +0.000 OA
ATOM     33  H   UNL     1       3.087   8.166  19.413  0.00  0.00    +0.000 HD
ENDBRANCH  19  32
ENDBRANCH  18  19
ENDBRANCH   1  18
TORSDOF 9
ENDMDL
MODEL 4
REMARK VINA RESULT:      -8.1      0.973      1.114
REMARK  Name = 
REMARK  10 active torsions:
REMARK  status: ('A' for Active; 'I' for Inactive)
REMARK    1  A    between atoms: C_1  and  O_2
REMARK    2  A    between atoms: O_2  and  C_3
REMARK    3  A    between atoms: C_10  and  C_11
REMARK    4  A    between atoms: C_11  and  O_12
REMARK    5  A    between atoms: C_11  and  C_13
REMARK    6  A    between atoms: C_13  and  N_14
REMARK    7  A    between atoms: C_17  and  N_18
REMARK    8  A    between atoms: N_18  and  C_19
REMARK    9  A    between atoms: C_19  and  C_20
REMARK   10  A    between atoms: C_21  and  C_22
REMARK                            x       y       z     vdW  Elec       q    Type
REMARK                         _______ _______ _______ _____ _____    ______ ____
ROOT
ATOM      1  N   UNL     1       5.126   3.871  16.366  0.00  0.00    +0.000 NA
ATOM      2  C   UNL     1       5.021   5.005  15.434  0.00  0.00    +0.000 C 
ATOM      3  C   UNL     1       6.375   5.450  14.880  0.00  0.00    +0.000 C 
ATOM      4  C   UNL     1       7.386   5.770  15.985  0.00  0.00    +0.000 C 
ATOM      5  C   UNL     1       7.459   4.542  16.906  0.00  0.00    +0.000 C 
ATOM      6  C   UNL     1       6.084   4.158  17.451  0.00  0.00    +0.000 C 
ENDROOT
BRANCH   4   7
ATOM      7  N   UNL     1       7.010   7.026  16.663  0.00  0.00    +0.000 NA
ATOM      8  H   UNL     1       6.015   7.208  16.546  0.00  0.00    +0.000 HD
BRANCH   7   9
ATOM      9  C   UNL     1       7.323   7.003  18.087  0.00  0.00    +0.000 C 
BRANCH   9  10
ATOM     10  C   UNL     1       8.414   7.982  18.383  0.00  0.00    +0.000 C 
ATOM     11  C   UNL     1       8.227   9.313  18.362  0.00  0.00    +0.000 C 
BRANCH  11  12
ATOM     12  C   UNL     1       9.257  10.301  18.693  0.00  0.00    +0.000 A 
ATOM     13  C   UNL     1      10.096  10.877  17.736  0.00  0.00    +0.000 A 
ATOM     14  C   UNL     1      11.047  11.818  18.121  0.00  0.00    +0.000 A 
ATOM     15  C   UNL     1      11.120  12.171  19.459  0.00  0.00    +0.000 A 
ATOM     16  N   UNL     1      10.314  11.660  20.413  0.00  0.00    +0.000 NA
ATOM     17  C   UNL     1       9.405  10.742  20.008  0.00  0.00    +0.000 A 
ENDBRANCH  11  12
ENDBRANCH   9  10
ENDBRANCH   7   9
ENDBRANCH   4   7
BRANCH   1  18
ATOM     18  C   UNL     1       3.818   3.503  16.965  0.00  0.00    +0.000 C 
BRANCH  18  19
ATOM     19  C   UNL     1       3.839   2.583  18.224  0.00  0.00    +0.000 C 
BRANCH  19  27
ATOM     20  C   UNL     1       2.659   6.913  18.825  0.00  0.00    +0.000 A 
ATOM     21  C   UNL     1       1.911   7.225  19.947  0.00  0.00    +0.000 A 
ATOM     22  C   UNL     1       1.568   6.216  20.849  0.00  0.00    +0.000 A 
ATOM     23  C   UNL     1       1.956   4.896  20.673  0.00  0.00    +0.000 A 
ATOM     24  N   UNL     1       1.578   4.023  21.613  0.00  0.00    +0.000 NA
ATOM     25  C   UNL     1       1.925   2.733  21.459  0.00  0.00    +0.000 A 
ATOM     26  C   UNL     1       2.657   2.260  20.390  0.00  0.00    +0.000 A 
ATOM     27  C   UNL     1       3.065   3.160  19.395  0.00  0.00    +0.000 A 
ATOM     28  C   UNL     1       2.703   4.541  19.525  0.00  0.00    +0.000 A 
ATOM     29  C   UNL     1       3.020   5.582  18.604  0.00  0.00    +0.000 A 
BRANCH  20  31
ATOM     30  C   UNL     1       2.303   9.003  17.779  0.00  0.00    +0.000 C 
ATOM     31  O   UNL     1       3.068   7.804  17.869  0.00  0.00    +0.000 OA
ENDBRANCH  20  31
ENDBRANCH  19  27
BRANCH  19  32
ATOM     32  O   UNL     1       3.344   1.258  18.030  0.00  0.00    +0.000 OA
ATOM     33  H   UNL     1       4.075   0.703  17.722  0.00  0.00    +0.000 HD
ENDBRANCH  19  32
ENDBRANCH  18  19
ENDBRANCH   1  18
TORSDOF 9
ENDMDL
MODEL 5
REMARK VINA RESULT:      -8.0      4.729      7.960
REMARK  Name = 
REMARK  10 active torsions:
REMARK  status: ('A' for Active; 'I' for Inactive)
REMARK    1  A    between atoms: C_1  and  O_2
REMARK    2  A    between atoms: O_2  and  C_3
REMARK    3  A    between atoms: C_10  and  C_11
REMARK    4  A    between atoms: C_11  and  O_12
REMARK    5  A    between atoms: C_11  and  C_13
REMARK    6  A    between atoms: C_13  and  N_14
REMARK    7  A    between atoms: C_17  and  N_18
REMARK    8  A    between atoms: N_18  and  C_19
REMARK    9  A    between atoms: C_19  and  C_20
REMARK   10  A    between atoms: C_21  and  C_22
REMARK                            x       y       z     vdW  Elec       q    Type
REMARK                         _______ _______ _______ _____ _____    ______ ____
ROOT
ATOM      1  N   UNL     1       2.006   8.150  19.774  0.00  0.00    +0.000 NA
ATOM      2  C   UNL     1       1.789   6.847  20.423  0.00  0.00    +0.000 C 
ATOM      3  C   UNL     1       2.952   5.876  20.217  0.00  0.00    +0.000 C 
ATOM      4  C   UNL     1       3.297   5.677  18.738  0.00  0.00    +0.000 C 
ATOM      5  C   UNL     1       3.528   7.069  18.132  0.00  0.00    +0.000 C 
ATOM      6  C   UNL     1       2.326   7.988  18.343  0.00  0.00    +0.000 C 
ENDROOT
BRANCH   4   7
ATOM      7  N   UNL     1       2.240   4.885  18.078  0.00  0.00    +0.000 NA
ATOM      8  H   UNL     1       1.751   5.453  17.388  0.00  0.00    +0.000 HD
BRANCH   7   9
ATOM      9  C   UNL     1       2.767   3.694  17.423  0.00  0.00    +0.000 C 
BRANCH   9  10
ATOM     10  C   UNL     1       3.654   4.090  16.285  0.00  0.00    +0.000 C 
ATOM     11  C   UNL     1       4.975   3.849  16.270  0.00  0.00    +0.000 C 
BRANCH  11  12
ATOM     12  C   UNL     1       5.867   4.178  15.155  0.00  0.00    +0.000 A 
ATOM     13  C   UNL     1       5.670   3.703  13.856  0.00  0.00    +0.000 A 
ATOM     14  C   UNL     1       6.553   4.064  12.842  0.00  0.00    +0.000 A 
ATOM     15  C   UNL     1       7.604   4.911  13.155  0.00  0.00    +0.000 A 
ATOM     16  N   UNL     1       7.820   5.412  14.389  0.00  0.00    +0.000 NA
ATOM     17  C   UNL     1       6.948   5.037  15.355  0.00  0.00    +0.000 A 
ENDBRANCH  11  12
ENDBRANCH   9  10
ENDBRANCH   7   9
ENDBRANCH   4   7
BRANCH   1  18
ATOM     18  C   UNL     1       0.835   9.054  19.905  0.00  0.00    +0.000 C 
BRANCH  18  19
ATOM     19  C   UNL     1       0.439   9.900  18.657  0.00  0.00    +0.000 C 
BRANCH  19  27
ATOM     20  C   UNL     1      -3.069  10.276  15.817  0.00  0.00    +0.000 A 
ATOM     21  C   UNL     1      -4.146  11.043  16.225  0.00  0.00    +0.000 A 
ATOM     22  C   UNL     1      -4.108  11.679  17.467  0.00  0.00    +0.000 A 
ATOM     23  C   UNL     1      -3.019  11.582  18.320  0.00  0.00    +0.000 A 
ATOM     24  N   UNL     1      -3.095  12.248  19.477  0.00  0.00    +0.000 NA
ATOM     25  C   UNL     1      -2.061  12.158  20.332  0.00  0.00    +0.000 A 
ATOM     26  C   UNL     1      -0.921  11.423  20.080  0.00  0.00    +0.000 A 
ATOM     27  C   UNL     1      -0.822  10.720  18.871  0.00  0.00    +0.000 A 
ATOM     28  C   UNL     1      -1.911  10.788  17.942  0.00  0.00    +0.000 A 
ATOM     29  C   UNL     1      -1.982  10.126  16.681  0.00  0.00    +0.000 A 
BRANCH  20  31
ATOM     30  C   UNL     1      -3.927   9.980  13.634  0.00  0.00    +0.000 C 
ATOM     31  O   UNL     1      -2.974   9.607  14.626  0.00  0.00    +0.000 OA
ENDBRANCH  20  31
ENDBRANCH  19  27
BRANCH  19  32
ATOM     32  O   UNL     1       1.432  10.808  18.184  0.00  0.00    +0.000 OA
ATOM     33  H   UNL     1       2.002  10.338  17.559  0.00  0.00    +0.000 HD
ENDBRANCH  19  32
ENDBRANCH  18  19
ENDBRANCH   1  18
TORSDOF 9
ENDMDL
MODEL 6
REMARK VINA RESULT:      -8.0      6.971     10.427
REMARK  Name = 
REMARK  10 active torsions:
REMARK  status: ('A' for Active; 'I' for Inactive)
REMARK    1  A    between atoms: C_1  and  O_2
REMARK    2  A    between atoms: O_2  and  C_3
REMARK    3  A    between atoms: C_10  and  C_11
REMARK    4  A    between atoms: C_11  and  O_12
REMARK    5  A    between atoms: C_11  and  C_13
REMARK    6  A    between atoms: C_13  and  N_14
REMARK    7  A    between atoms: C_17  and  N_18
REMARK    8  A    between atoms: N_18  and  C_19
REMARK    9  A    between atoms: C_19  and  C_20
REMARK   10  A    between atoms: C_21  and  C_22
REMARK                            x       y       z     vdW  Elec       q    Type
REMARK                         _______ _______ _______ _____ _____    ______ ____
ROOT
ATOM      1  N   UNL     1      -1.421  11.693  20.703  0.00  0.00    +0.000 NA
ATOM      2  C   UNL     1      -1.339  11.768  19.236  0.00  0.00    +0.000 C 
ATOM      3  C   UNL     1      -1.041  10.417  18.585  0.00  0.00    +0.000 C 
ATOM      4  C   UNL     1       0.221   9.758  19.150  0.00  0.00    +0.000 C 
ATOM      5  C   UNL     1       0.059   9.696  20.677  0.00  0.00    +0.000 C 
ATOM      6  C   UNL     1      -0.210  11.075  21.276  0.00  0.00    +0.000 C 
ENDROOT
BRANCH   4   7
ATOM      7  N   UNL     1       1.419  10.485  18.688  0.00  0.00    +0.000 NA
ATOM      8  H   UNL     1       2.003  10.747  19.480  0.00  0.00    +0.000 HD
BRANCH   7   9
ATOM      9  C   UNL     1       2.216   9.702  17.751  0.00  0.00    +0.000 C 
BRANCH   9  10
ATOM     10  C   UNL     1       2.078   8.245  18.061  0.00  0.00    +0.000 C 
ATOM     11  C   UNL     1       3.114   7.391  18.034  0.00  0.00    +0.000 C 
BRANCH  11  12
ATOM     12  C   UNL     1       3.028   5.969  18.378  0.00  0.00    +0.000 A 
ATOM     13  C   UNL     1       2.006   5.135  17.919  0.00  0.00    +0.000 A 
ATOM     14  C   UNL     1       1.991   3.790  18.279  0.00  0.00    +0.000 A 
ATOM     15  C   UNL     1       3.017   3.311  19.078  0.00  0.00    +0.000 A 
ATOM     16  N   UNL     1       4.037   4.074  19.524  0.00  0.00    +0.000 NA
ATOM     17  C   UNL     1       4.018   5.379  19.163  0.00  0.00    +0.000 A 
ENDBRANCH  11  12
ENDBRANCH   9  10
ENDBRANCH   7   9
ENDBRANCH   4   7
BRANCH   1  18
ATOM     18  C   UNL     1      -1.623  13.024  21.331  0.00  0.00    +0.000 C 
BRANCH  18  19
ATOM     19  C   UNL     1      -2.846  13.865  20.852  0.00  0.00    +0.000 C 
BRANCH  19  27
ATOM     20  C   UNL     1      -5.872  11.590  18.366  0.00  0.00    +0.000 A 
ATOM     21  C   UNL     1      -7.007  11.123  19.006  0.00  0.00    +0.000 A 
ATOM     22  C   UNL     1      -7.187  11.380  20.366  0.00  0.00    +0.000 A 
ATOM     23  C   UNL     1      -6.270  12.102  21.115  0.00  0.00    +0.000 A 
ATOM     24  N   UNL     1      -6.560  12.295  22.406  0.00  0.00    +0.000 NA
ATOM     25  C   UNL     1      -5.680  12.975  23.161  0.00  0.00    +0.000 A 
ATOM     26  C   UNL     1      -4.496  13.493  22.678  0.00  0.00    +0.000 A 
ATOM     27  C   UNL     1      -4.175  13.304  21.326  0.00  0.00    +0.000 A 
ATOM     28  C   UNL     1      -5.088  12.574  20.496  0.00  0.00    +0.000 A 
ATOM     29  C   UNL     1      -4.912  12.278  19.113  0.00  0.00    +0.000 A 
BRANCH  20  31
ATOM     30  C   UNL     1      -4.188  11.389  16.719  0.00  0.00    +0.000 C 
ATOM     31  O   UNL     1      -5.577  11.415  17.041  0.00  0.00    +0.000 OA
ENDBRANCH  20  31
ENDBRANCH  19  27
BRANCH  19  32
ATOM     32  O   UNL     1      -2.835  15.241  21.228  0.00  0.00    +0.000 OA
ATOM     33  H   UNL     1      -2.670  15.295  22.180  0.00  0.00    +0.000 HD
ENDBRANCH  19  32
ENDBRANCH  18  19
ENDBRANCH   1  18
TORSDOF 9
ENDMDL
MODEL 7
REMARK VINA RESULT:      -7.8      5.465      9.624
REMARK  Name = 
REMARK  10 active torsions:
REMARK  status: ('A' for Active; 'I' for Inactive)
REMARK    1  A    between atoms: C_1  and  O_2
REMARK    2  A    between atoms: O_2  and  C_3
REMARK    3  A    between atoms: C_10  and  C_11
REMARK    4  A    between atoms: C_11  and  O_12
REMARK    5  A    between atoms: C_11  and  C_13
REMARK    6  A    between atoms: C_13  and  N_14
REMARK    7  A    between atoms: C_17  and  N_18
REMARK    8  A    between atoms: N_18  and  C_19
REMARK    9  A    between atoms: C_19  and  C_20
REMARK   10  A    between atoms: C_21  and  C_22
REMARK                            x       y       z     vdW  Elec       q    Type
REMARK                         _______ _______ _______ _____ _____    ______ ____
ROOT
ATOM      1  N   UNL     1       1.049   8.354  20.224  0.00  0.00    +0.000 NA
ATOM      2  C   UNL     1       0.873   8.594  21.665  0.00  0.00    +0.000 C 
ATOM      3  C   UNL     1      -0.414   9.353  21.990  0.00  0.00    +0.000 C 
ATOM      4  C   UNL     1      -0.531  10.671  21.218  0.00  0.00    +0.000 C 
ATOM      5  C   UNL     1      -0.357  10.343  19.727  0.00  0.00    +0.000 C 
ATOM      6  C   UNL     1       0.955   9.610  19.456  0.00  0.00    +0.000 C 
ENDROOT
BRANCH   4   7
ATOM      7  N   UNL     1       0.434  11.653  21.750  0.00  0.00    +0.000 NA
ATOM      8  H   UNL     1       1.156  11.850  21.058  0.00  0.00    +0.000 HD
BRANCH   7   9
ATOM      9  C   UNL     1      -0.205  12.904  22.137  0.00  0.00    +0.000 C 
BRANCH   9  10
ATOM     10  C   UNL     1      -1.692  12.751  22.091  0.00  0.00    +0.000 C 
ATOM     11  C   UNL     1      -2.471  12.846  23.181  0.00  0.00    +0.000 C 
BRANCH  11  12
ATOM     12  C   UNL     1      -3.933  12.750  23.168  0.00  0.00    +0.000 A 
ATOM     13  C   UNL     1      -4.709  12.782  24.330  0.00  0.00    +0.000 A 
ATOM     14  C   UNL     1      -6.096  12.694  24.242  0.00  0.00    +0.000 A 
ATOM     15  C   UNL     1      -6.671  12.596  22.985  0.00  0.00    +0.000 A 
ATOM     16  N   UNL     1      -5.964  12.587  21.836  0.00  0.00    +0.000 NA
ATOM     17  C   UNL     1      -4.617  12.666  21.955  0.00  0.00    +0.000 A 
ENDBRANCH  11  12
ENDBRANCH   9  10
ENDBRANCH   7   9
ENDBRANCH   4   7
BRANCH   1  18
ATOM     18  C   UNL     1       2.343   7.695  19.910  0.00  0.00    +0.000 C 
BRANCH  18  19
ATOM     19  C   UNL     1       2.770   7.630  18.412  0.00  0.00    +0.000 C 
BRANCH  19  27
ATOM     20  C   UNL     1       6.641   6.018  16.699  0.00  0.00    +0.000 A 
ATOM     21  C   UNL     1       6.684   4.677  16.360  0.00  0.00    +0.000 A 
ATOM     22  C   UNL     1       5.547   3.885  16.536  0.00  0.00    +0.000 A 
ATOM     23  C   UNL     1       4.356   4.391  17.035  0.00  0.00    +0.000 A 
ATOM     24  N   UNL     1       3.334   3.537  17.144  0.00  0.00    +0.000 NA
ATOM     25  C   UNL     1       2.172   3.996  17.643  0.00  0.00    +0.000 A 
ATOM     26  C   UNL     1       1.972   5.302  18.040  0.00  0.00    +0.000 A 
ATOM     27  C   UNL     1       3.032   6.214  17.930  0.00  0.00    +0.000 A 
ATOM     28  C   UNL     1       4.287   5.753  17.412  0.00  0.00    +0.000 A 
ATOM     29  C   UNL     1       5.466   6.538  17.248  0.00  0.00    +0.000 A 
BRANCH  20  31
ATOM     30  C   UNL     1       7.684   7.980  17.507  0.00  0.00    +0.000 C 
ATOM     31  O   UNL     1       7.676   6.904  16.572  0.00  0.00    +0.000 OA
ENDBRANCH  20  31
ENDBRANCH  19  27
BRANCH  19  32
ATOM     32  O   UNL     1       1.855   8.207  17.482  0.00  0.00    +0.000 OA
ATOM     33  H   UNL     1       2.359   8.543  16.728  0.00  0.00    +0.000 HD
ENDBRANCH  19  32
ENDBRANCH  18  19
ENDBRANCH   1  18
TORSDOF 9
ENDMDL
MODEL 8
REMARK VINA RESULT:      -7.7      5.962      9.672
REMARK  Name = 
REMARK  10 active torsions:
REMARK  status: ('A' for Active; 'I' for Inactive)
REMARK    1  A    between atoms: C_1  and  O_2
REMARK    2  A    between atoms: O_2  and  C_3
REMARK    3  A    between atoms: C_10  and  C_11
REMARK    4  A    between atoms: C_11  and  O_12
REMARK    5  A    between atoms: C_11  and  C_13
REMARK    6  A    between atoms: C_13  and  N_14
REMARK    7  A    between atoms: C_17  and  N_18
REMARK    8  A    between atoms: N_18  and  C_19
REMARK    9  A    between atoms: C_19  and  C_20
REMARK   10  A    between atoms: C_21  and  C_22
REMARK                            x       y       z     vdW  Elec       q    Type
REMARK                         _______ _______ _______ _____ _____    ______ ____
ROOT
ATOM      1  N   UNL     1       1.073  10.292  18.460  0.00  0.00    +0.000 NA
ATOM      2  C   UNL     1      -0.038   9.670  19.197  0.00  0.00    +0.000 C 
ATOM      3  C   UNL     1      -1.028  10.692  19.756  0.00  0.00    +0.000 C 
ATOM      4  C   UNL     1      -0.349  11.755  20.625  0.00  0.00    +0.000 C 
ATOM      5  C   UNL     1       0.783  12.372  19.790  0.00  0.00    +0.000 C 
ATOM      6  C   UNL     1       1.756  11.310  19.280  0.00  0.00    +0.000 C 
ENDROOT
BRANCH   4   7
ATOM      7  N   UNL     1       0.084  11.158  21.904  0.00  0.00    +0.000 NA
ATOM      8  H   UNL     1       0.798  11.738  22.342  0.00  0.00    +0.000 HD
BRANCH   7   9
ATOM      9  C   UNL     1      -1.022  10.982  22.837  0.00  0.00    +0.000 C 
BRANCH   9  10
ATOM     10  C   UNL     1      -1.730  12.284  23.035  0.00  0.00    +0.000 C 
ATOM     11  C   UNL     1      -2.963  12.373  23.562  0.00  0.00    +0.000 C 
BRANCH  11  12
ATOM     12  C   UNL     1      -3.669  13.631  23.817  0.00  0.00    +0.000 A 
ATOM     13  C   UNL     1      -3.132  14.663  24.591  0.00  0.00    +0.000 A 
ATOM     14  C   UNL     1      -3.856  15.836  24.784  0.00  0.00    +0.000 A 
ATOM     15  C   UNL     1      -5.096  15.952  24.177  0.00  0.00    +0.000 A 
ATOM     16  N   UNL     1      -5.643  14.992  23.402  0.00  0.00    +0.000 NA
ATOM     17  C   UNL     1      -4.918  13.861  23.240  0.00  0.00    +0.000 A 
ENDBRANCH  11  12
ENDBRANCH   9  10
ENDBRANCH   7   9
ENDBRANCH   4   7
BRANCH   1  18
ATOM     18  C   UNL     1       2.076   9.298  17.996  0.00  0.00    +0.000 C 
BRANCH  18  19
ATOM     19  C   UNL     1       2.061   7.894  18.675  0.00  0.00    +0.000 C 
BRANCH  19  27
ATOM     20  C   UNL     1       1.880   3.377  18.959  0.00  0.00    +0.000 A 
ATOM     21  C   UNL     1       2.808   2.651  18.232  0.00  0.00    +0.000 A 
ATOM     22  C   UNL     1       3.762   3.322  17.465  0.00  0.00    +0.000 A 
ATOM     23  C   UNL     1       3.829   4.706  17.405  0.00  0.00    +0.000 A 
ATOM     24  N   UNL     1       4.797   5.233  16.647  0.00  0.00    +0.000 NA
ATOM     25  C   UNL     1       4.874   6.572  16.555  0.00  0.00    +0.000 A 
ATOM     26  C   UNL     1       4.017   7.435  17.206  0.00  0.00    +0.000 A 
ATOM     27  C   UNL     1       2.997   6.902  18.007  0.00  0.00    +0.000 A 
ATOM     28  C   UNL     1       2.882   5.478  18.118  0.00  0.00    +0.000 A 
ATOM     29  C   UNL     1       1.900   4.772  18.874  0.00  0.00    +0.000 A 
BRANCH  20  31
ATOM     30  C   UNL     1       1.179   2.836  21.150  0.00  0.00    +0.000 C 
ATOM     31  O   UNL     1       0.900   2.847  19.753  0.00  0.00    +0.000 OA
ENDBRANCH  20  31
ENDBRANCH  19  27
BRANCH  19  32
ATOM     32  O   UNL     1       2.381   7.875  20.065  0.00  0.00    +0.000 OA
ATOM     33  H   UNL     1       3.274   8.230  20.176  0.00  0.00    +0.000 HD
ENDBRANCH  19  32
ENDBRANCH  18  19
ENDBRANCH   1  18
TORSDOF 9
ENDMDL
MODEL 9
REMARK VINA RESULT:      -7.6      3.929      5.509
REMARK  Name = 
REMARK  10 active torsions:
REMARK  status: ('A' for Active; 'I' for Inactive)
REMARK    1  A    between atoms: C_1  and  O_2
REMARK    2  A    between atoms: O_2  and  C_3
REMARK    3  A    between atoms: C_10  and  C_11
REMARK    4  A    between atoms: C_11  and  O_12
REMARK    5  A    between atoms: C_11  and  C_13
REMARK    6  A    between atoms: C_13  and  N_14
REMARK    7  A    between atoms: C_17  and  N_18
REMARK    8  A    between atoms: N_18  and  C_19
REMARK    9  A    between atoms: C_19  and  C_20
REMARK   10  A    between atoms: C_21  and  C_22
REMARK                            x       y       z     vdW  Elec       q    Type
REMARK                         _______ _______ _______ _____ _____    ______ ____
ROOT
ATOM      1  N   UNL     1       2.634   7.129  18.264  0.00  0.00    +0.000 NA
ATOM      2  C   UNL     1       3.773   7.418  17.378  0.00  0.00    +0.000 C 
ATOM      3  C   UNL     1       4.494   6.156  16.903  0.00  0.00    +0.000 C 
ATOM      4  C   UNL     1       4.943   5.262  18.063  0.00  0.00    +0.000 C 
ATOM      5  C   UNL     1       3.706   4.987  18.932  0.00  0.00    +0.000 C 
ATOM      6  C   UNL     1       3.042   6.281  19.400  0.00  0.00    +0.000 C 
ENDROOT
BRANCH   4   7
ATOM      7  N   UNL     1       6.069   5.894  18.778  0.00  0.00    +0.000 NA
ATOM      8  H   UNL     1       6.329   5.339  19.592  0.00  0.00    +0.000 HD
BRANCH   7   9
ATOM      9  C   UNL     1       7.241   6.064  17.927  0.00  0.00    +0.000 C 
BRANCH   9  10
ATOM     10  C   UNL     1       7.992   7.291  18.335  0.00  0.00    +0.000 C 
ATOM     11  C   UNL     1       7.762   8.501  17.800  0.00  0.00    +0.000 C 
BRANCH  11  12
ATOM     12  C   UNL     1       8.442   9.733  18.207  0.00  0.00    +0.000 A 
ATOM     13  C   UNL     1       8.353  10.926  17.486  0.00  0.00    +0.000 A 
ATOM     14  C   UNL     1       9.020  12.062  17.937  0.00  0.00    +0.000 A 
ATOM     15  C   UNL     1       9.745  11.976  19.115  0.00  0.00    +0.000 A 
ATOM     16  N   UNL     1       9.838  10.852  19.856  0.00  0.00    +0.000 NA
ATOM     17  C   UNL     1       9.185   9.763  19.387  0.00  0.00    +0.000 A 
ENDBRANCH  11  12
ENDBRANCH   9  10
ENDBRANCH   7   9
ENDBRANCH   4   7
BRANCH   1  18
ATOM     18  C   UNL     1       1.995   8.362  18.790  0.00  0.00    +0.000 C 
BRANCH  18  19
ATOM     19  C   UNL     1       1.432   9.378  17.750  0.00  0.00    +0.000 C 
BRANCH  19  27
ATOM     20  C   UNL     1       1.060  12.670  20.839  0.00  0.00    +0.000 A 
ATOM     21  C   UNL     1      -0.203  13.182  21.083  0.00  0.00    +0.000 A 
ATOM     22  C   UNL     1      -1.302  12.663  20.395  0.00  0.00    +0.000 A 
ATOM     23  C   UNL     1      -1.184  11.635  19.471  0.00  0.00    +0.000 A 
ATOM     24  N   UNL     1      -2.311  11.214  18.888  0.00  0.00    +0.000 NA
ATOM     25  C   UNL     1      -2.225  10.232  17.973  0.00  0.00    +0.000 A 
ATOM     26  C   UNL     1      -1.040   9.627  17.609  0.00  0.00    +0.000 A 
ATOM     27  C   UNL     1       0.152  10.053  18.211  0.00  0.00    +0.000 A 
ATOM     28  C   UNL     1       0.096  11.106  19.183  0.00  0.00    +0.000 A 
ATOM     29  C   UNL     1       1.207  11.668  19.877  0.00  0.00    +0.000 A 
BRANCH  20  31
ATOM     30  C   UNL     1       2.620  14.417  21.157  0.00  0.00    +0.000 C 
ATOM     31  O   UNL     1       2.216  13.081  21.446  0.00  0.00    +0.000 OA
ENDBRANCH  20  31
ENDBRANCH  19  27
BRANCH  19  32
ATOM     32  O   UNL     1       2.322  10.426  17.366  0.00  0.00    +0.000 OA
ATOM     33  H   UNL     1       1.846  11.026  16.774  0.00  0.00    +0.000 HD
ENDBRANCH  19  32
ENDBRANCH  18  19
ENDBRANCH   1  18
TORSDOF 9
ENDMDL
