MODEL 1
REMARK VINA RESULT:      -8.8      0.000      0.000
REMARK  Name = 
REMARK  5 active torsions:
REMARK  status: ('A' for Active; 'I' for Inactive)
REMARK    1  A    between atoms: C_2  and  C_16
REMARK    2  A    between atoms: N_3  and  C_4
REMARK    3  A    between atoms: C_7  and  N_8
REMARK    4  A    between atoms: C_21  and  C_23
REMARK    5  A    between atoms: C_23  and  C_24
REMARK                            x       y       z     vdW  Elec       q    Type
REMARK                         _______ _______ _______ _____ _____    ______ ____
ROOT
ATOM      1  C   UNL     1       8.493   9.133  18.234  0.00  0.00    +0.000 A 
ATOM      2  N   UNL     1       8.901   8.245  19.120  0.00  0.00    +0.000 NA
ATOM      3  N   UNL     1       8.283   7.051  18.770  0.00  0.00    +0.000 NA
ATOM      4  C   UNL     1       7.572   7.292  17.692  0.00  0.00    +0.000 A 
ATOM      5  N   UNL     1       6.743   6.536  16.926  0.00  0.00    +0.000 N 
ATOM      6  C   UNL     1       6.333   5.268  17.277  0.00  0.00    +0.000 C 
ATOM      7  O   UNL     1       6.637   4.709  18.331  0.00  0.00    +0.000 OA
ATOM      8  O   UNL     1       7.681   8.587  17.274  0.00  0.00    +0.000 OA
ATOM      9  H   UNL     1       6.410   6.974  16.079  0.00  0.00    +0.000 HD
ENDROOT
BRANCH   1  11
ATOM     10  O   UNL     1       8.048  11.316  17.536  0.00  0.00    +0.000 OA
ATOM     11  C   UNL     1       8.742  10.560  18.219  0.00  0.00    +0.000 C 
ATOM     12  N   UNL     1       9.817  10.977  18.995  0.00  0.00    +0.000 N 
ATOM     13  H   UNL     1      10.415  10.250  19.369  0.00  0.00    +0.000 HD
BRANCH  12  14
ATOM     14  C   UNL     1      10.193  12.319  19.229  0.00  0.00    +0.000 A 
ATOM     15  C   UNL     1      10.135  12.914  20.490  0.00  0.00    +0.000 A 
ATOM     16  C   UNL     1      10.515  14.246  20.680  0.00  0.00    +0.000 A 
ATOM     17  C   UNL     1      10.957  15.046  19.622  0.00  0.00    +0.000 A 
ATOM     18  C   UNL     1      11.021  14.432  18.363  0.00  0.00    +0.000 A 
ATOM     19  C   UNL     1      10.661  13.089  18.167  0.00  0.00    +0.000 A 
BRANCH  17  20
ATOM     20  N   UNL     1      11.360  16.358  19.798  0.00  0.00    +0.000 N 
ATOM     21  C   UNL     1      12.333  16.742  20.838  0.00  0.00    +0.000 C 
ATOM     22  C   UNL     1      11.662  17.511  21.983  0.00  0.00    +0.000 C 
ATOM     23  O   UNL     1      10.904  18.630  21.496  0.00  0.00    +0.000 OA
ATOM     24  C   UNL     1       9.874  18.171  20.604  0.00  0.00    +0.000 C 
ATOM     25  C   UNL     1      10.461  17.447  19.379  0.00  0.00    +0.000 C 
ENDBRANCH  17  20
ENDBRANCH  12  14
ENDBRANCH   1  11
BRANCH   6  26
ATOM     26  C   UNL     1       5.415   4.601  16.140  0.00  0.00    +0.000 C 
ATOM     27  C   UNL     1       5.300   5.395  14.785  0.00  0.00    +0.000 C 
ATOM     28  C   UNL     1       5.391   4.045  14.047  0.00  0.00    +0.000 C 
ATOM     29  C   UNL     1       6.142   3.504  15.269  0.00  0.00    +0.000 C 
BRANCH  26  30
ATOM     30  C   UNL     1       4.029   4.246  16.892  0.00  0.00    +0.000 A 
ATOM     31  C   UNL     1       3.322   5.249  17.595  0.00  0.00    +0.000 A 
ATOM     32  C   UNL     1       2.284   4.946  18.481  0.00  0.00    +0.000 A 
ATOM     33  C   UNL     1       1.904   3.625  18.663  0.00  0.00    +0.000 A 
ATOM     34 CL   UNL     1       0.740   3.220  19.861  0.00  0.00    +0.000 Cl
ATOM     35  C   UNL     1       2.498   2.620  17.907  0.00  0.00    +0.000 A 
ATOM     36  C   UNL     1       3.536   2.932  17.022  0.00  0.00    +0.000 A 
ENDBRANCH  26  30
ENDBRANCH   6  26
TORSDOF 5
ENDMDL
MODEL 2
REMARK VINA RESULT:      -8.7      7.338      9.545
REMARK  Name = 
REMARK  5 active torsions:
REMARK  status: ('A' for Active; 'I' for Inactive)
REMARK    1  A    between atoms: C_2  and  C_16
REMARK    2  A    between atoms: N_3  and  C_4
REMARK    3  A    between atoms: C_7  and  N_8
REMARK    4  A    between atoms: C_21  and  C_23
REMARK    5  A    between atoms: C_23  and  C_24
REMARK                            x       y       z     vdW  Elec       q    Type
REMARK                         _______ _______ _______ _____ _____    ______ ____
ROOT
ATOM      1  C   UNL     1       1.462   8.873  18.988  0.00  0.00    +0.000 A 
ATOM      2  N   UNL     1       1.722   9.399  17.808  0.00  0.00    +0.000 NA
ATOM      3  N   UNL     1       2.744   8.629  17.267  0.00  0.00    +0.000 NA
ATOM      4  C   UNL     1       3.009   7.682  18.140  0.00  0.00    +0.000 A 
ATOM      5  N   UNL     1       3.915   6.671  18.182  0.00  0.00    +0.000 N 
ATOM      6  C   UNL     1       4.943   6.536  17.273  0.00  0.00    +0.000 C 
ATOM      7  O   UNL     1       5.170   7.332  16.362  0.00  0.00    +0.000 OA
ATOM      8  O   UNL     1       2.213   7.755  19.246  0.00  0.00    +0.000 OA
ATOM      9  H   UNL     1       3.813   6.024  18.950  0.00  0.00    +0.000 HD
ENDROOT
BRANCH   1  11
ATOM     10  O   UNL     1       0.326   8.708  21.022  0.00  0.00    +0.000 OA
ATOM     11  C   UNL     1       0.568   9.373  20.013  0.00  0.00    +0.000 C 
ATOM     12  N   UNL     1       0.005  10.616  19.745  0.00  0.00    +0.000 N 
ATOM     13  H   UNL     1       0.142  10.984  18.811  0.00  0.00    +0.000 HD
BRANCH  12  14
ATOM     14  C   UNL     1      -0.808  11.360  20.629  0.00  0.00    +0.000 A 
ATOM     15  C   UNL     1      -1.980  12.002  20.224  0.00  0.00    +0.000 A 
ATOM     16  C   UNL     1      -2.756  12.732  21.128  0.00  0.00    +0.000 A 
ATOM     17  C   UNL     1      -2.394  12.864  22.474  0.00  0.00    +0.000 A 
ATOM     18  C   UNL     1      -1.222  12.204  22.869  0.00  0.00    +0.000 A 
ATOM     19  C   UNL     1      -0.447  11.453  21.971  0.00  0.00    +0.000 A 
BRANCH  17  20
ATOM     20  N   UNL     1      -3.164  13.561  23.387  0.00  0.00    +0.000 N 
ATOM     21  C   UNL     1      -4.027  12.872  24.366  0.00  0.00    +0.000 C 
ATOM     22  C   UNL     1      -5.514  13.032  24.020  0.00  0.00    +0.000 C 
ATOM     23  O   UNL     1      -5.870  14.412  23.844  0.00  0.00    +0.000 OA
ATOM     24  C   UNL     1      -5.099  14.984  22.772  0.00  0.00    +0.000 C 
ATOM     25  C   UNL     1      -3.589  14.934  23.067  0.00  0.00    +0.000 C 
ENDBRANCH  17  20
ENDBRANCH  12  14
ENDBRANCH   1  11
BRANCH   6  26
ATOM     26  C   UNL     1       5.803   5.206  17.539  0.00  0.00    +0.000 C 
ATOM     27  C   UNL     1       6.839   4.813  16.419  0.00  0.00    +0.000 C 
ATOM     28  C   UNL     1       7.825   4.429  17.540  0.00  0.00    +0.000 C 
ATOM     29  C   UNL     1       7.079   5.418  18.443  0.00  0.00    +0.000 C 
BRANCH  26  30
ATOM     30  C   UNL     1       4.708   4.086  17.938  0.00  0.00    +0.000 A 
ATOM     31  C   UNL     1       3.711   3.702  17.011  0.00  0.00    +0.000 A 
ATOM     32  C   UNL     1       2.590   2.956  17.390  0.00  0.00    +0.000 A 
ATOM     33  C   UNL     1       2.454   2.549  18.709  0.00  0.00    +0.000 A 
ATOM     34 CL   UNL     1       1.011   1.770  19.225  0.00  0.00    +0.000 Cl
ATOM     35  C   UNL     1       3.467   2.809  19.625  0.00  0.00    +0.000 A 
ATOM     36  C   UNL     1       4.586   3.556  19.237  0.00  0.00    +0.000 A 
ENDBRANCH  26  30
ENDBRANCH   6  26
TORSDOF 5
ENDMDL
MODEL 3
REMARK VINA RESULT:      -8.6      7.278      8.774
REMARK  Name = 
REMARK  5 active torsions:
REMARK  status: ('A' for Active; 'I' for Inactive)
REMARK    1  A    between atoms: C_2  and  C_16
REMARK    2  A    between atoms: N_3  and  C_4
REMARK    3  A    between atoms: C_7  and  N_8
REMARK    4  A    between atoms: C_21  and  C_23
REMARK    5  A    between atoms: C_23  and  C_24
REMARK                            x       y       z     vdW  Elec       q    Type
REMARK                         _______ _______ _______ _____ _____    ______ ____
ROOT
ATOM      1  C   UNL     1       1.582   9.096  18.740  0.00  0.00    +0.000 A 
ATOM      2  N   UNL     1       1.721   9.411  17.467  0.00  0.00    +0.000 NA
ATOM      3  N   UNL     1       2.685   8.546  16.966  0.00  0.00    +0.000 NA
ATOM      4  C   UNL     1       3.040   7.757  17.956  0.00  0.00    +0.000 A 
ATOM      5  N   UNL     1       3.948   6.755  18.078  0.00  0.00    +0.000 N 
ATOM      6  C   UNL     1       4.880   6.454  17.108  0.00  0.00    +0.000 C 
ATOM      7  O   UNL     1       5.013   7.081  16.058  0.00  0.00    +0.000 OA
ATOM      8  O   UNL     1       2.358   8.027  19.107  0.00  0.00    +0.000 OA
ATOM      9  H   UNL     1       3.926   6.248  18.951  0.00  0.00    +0.000 HD
ENDROOT
BRANCH   1  11
ATOM     10  O   UNL     1       0.476   9.203  20.794  0.00  0.00    +0.000 OA
ATOM     11  C   UNL     1       0.794   9.775  19.749  0.00  0.00    +0.000 C 
ATOM     12  N   UNL     1       0.418  11.073  19.425  0.00  0.00    +0.000 N 
ATOM     13  H   UNL     1       0.589  11.370  18.471  0.00  0.00    +0.000 HD
BRANCH  12  14
ATOM     14  C   UNL     1      -0.256  11.974  20.280  0.00  0.00    +0.000 A 
ATOM     15  C   UNL     1       0.392  12.701  21.280  0.00  0.00    +0.000 A 
ATOM     16  C   UNL     1      -0.312  13.581  22.106  0.00  0.00    +0.000 A 
ATOM     17  C   UNL     1      -1.693  13.767  21.982  0.00  0.00    +0.000 A 
ATOM     18  C   UNL     1      -2.328  13.039  20.966  0.00  0.00    +0.000 A 
ATOM     19  C   UNL     1      -1.626  12.168  20.118  0.00  0.00    +0.000 A 
BRANCH  17  20
ATOM     20  N   UNL     1      -2.399  14.652  22.775  0.00  0.00    +0.000 N 
ATOM     21  C   UNL     1      -1.727  15.710  23.553  0.00  0.00    +0.000 C 
ATOM     22  C   UNL     1      -1.748  15.407  25.057  0.00  0.00    +0.000 C 
ATOM     23  O   UNL     1      -3.080  15.141  25.523  0.00  0.00    +0.000 OA
ATOM     24  C   UNL     1      -3.623  14.003  24.832  0.00  0.00    +0.000 C 
ATOM     25  C   UNL     1      -3.709  14.245  23.314  0.00  0.00    +0.000 C 
ENDBRANCH  17  20
ENDBRANCH  12  14
ENDBRANCH   1  11
BRANCH   6  26
ATOM     26  C   UNL     1       5.767   5.175  17.508  0.00  0.00    +0.000 C 
ATOM     27  C   UNL     1       6.851   4.725  16.458  0.00  0.00    +0.000 C 
ATOM     28  C   UNL     1       7.807   4.462  17.637  0.00  0.00    +0.000 C 
ATOM     29  C   UNL     1       7.004   5.497  18.433  0.00  0.00    +0.000 C 
BRANCH  26  30
ATOM     30  C   UNL     1       4.689   4.059  17.962  0.00  0.00    +0.000 A 
ATOM     31  C   UNL     1       3.693   3.621  17.058  0.00  0.00    +0.000 A 
ATOM     32  C   UNL     1       2.584   2.878  17.475  0.00  0.00    +0.000 A 
ATOM     33  C   UNL     1       2.461   2.526  18.811  0.00  0.00    +0.000 A 
ATOM     34 CL   UNL     1       1.031   1.750  19.368  0.00  0.00    +0.000 Cl
ATOM     35  C   UNL     1       3.474   2.840  19.709  0.00  0.00    +0.000 A 
ATOM     36  C   UNL     1       4.580   3.584  19.283  0.00  0.00    +0.000 A 
ENDBRANCH  26  30
ENDBRANCH   6  26
TORSDOF 5
ENDMDL
MODEL 4
REMARK VINA RESULT:      -8.6      7.353      9.482
REMARK  Name = 
REMARK  5 active torsions:
REMARK  status: ('A' for Active; 'I' for Inactive)
REMARK    1  A    between atoms: C_2  and  C_16
REMARK    2  A    between atoms: N_3  and  C_4
REMARK    3  A    between atoms: C_7  and  N_8
REMARK    4  A    between atoms: C_21  and  C_23
REMARK    5  A    between atoms: C_23  and  C_24
REMARK                            x       y       z     vdW  Elec       q    Type
REMARK                         _______ _______ _______ _____ _____    ______ ____
ROOT
ATOM      1  C   UNL     1       1.581   8.943  18.868  0.00  0.00    +0.000 A 
ATOM      2  N   UNL     1       1.961   9.657  17.826  0.00  0.00    +0.000 NA
ATOM      3  N   UNL     1       2.843   8.852  17.118  0.00  0.00    +0.000 NA
ATOM      4  C   UNL     1       2.914   7.708  17.761  0.00  0.00    +0.000 A 
ATOM      5  N   UNL     1       3.625   6.567  17.569  0.00  0.00    +0.000 N 
ATOM      6  C   UNL     1       4.636   6.450  16.639  0.00  0.00    +0.000 C 
ATOM      7  O   UNL     1       5.024   7.371  15.920  0.00  0.00    +0.000 OA
ATOM      8  O   UNL     1       2.115   7.681  18.866  0.00  0.00    +0.000 OA
ATOM      9  H   UNL     1       3.391   5.798  18.180  0.00  0.00    +0.000 HD
ENDROOT
BRANCH   1  11
ATOM     10  O   UNL     1       0.722   8.696  21.026  0.00  0.00    +0.000 OA
ATOM     11  C   UNL     1       0.763   9.362  19.989  0.00  0.00    +0.000 C 
ATOM     12  N   UNL     1       0.033  10.526  19.781  0.00  0.00    +0.000 N 
ATOM     13  H   UNL     1       0.014  10.886  18.834  0.00  0.00    +0.000 HD
BRANCH  12  14
ATOM     14  C   UNL     1      -0.750  11.193  20.751  0.00  0.00    +0.000 A 
ATOM     15  C   UNL     1      -0.528  11.066  22.123  0.00  0.00    +0.000 A 
ATOM     16  C   UNL     1      -1.326  11.741  23.050  0.00  0.00    +0.000 A 
ATOM     17  C   UNL     1      -2.387  12.562  22.653  0.00  0.00    +0.000 A 
ATOM     18  C   UNL     1      -2.591  12.689  21.272  0.00  0.00    +0.000 A 
ATOM     19  C   UNL     1      -1.781  12.030  20.333  0.00  0.00    +0.000 A 
BRANCH  17  20
ATOM     20  N   UNL     1      -3.171  13.256  23.557  0.00  0.00    +0.000 N 
ATOM     21  C   UNL     1      -4.144  12.573  24.431  0.00  0.00    +0.000 C 
ATOM     22  C   UNL     1      -5.589  12.859  23.999  0.00  0.00    +0.000 C 
ATOM     23  O   UNL     1      -5.838  14.269  23.891  0.00  0.00    +0.000 OA
ATOM     24  C   UNL     1      -4.958  14.848  22.912  0.00  0.00    +0.000 C 
ATOM     25  C   UNL     1      -3.479  14.673  23.300  0.00  0.00    +0.000 C 
ENDBRANCH  17  20
ENDBRANCH  12  14
ENDBRANCH   1  11
BRANCH   6  26
ATOM     26  C   UNL     1       5.240   4.962  16.597  0.00  0.00    +0.000 C 
ATOM     27  C   UNL     1       5.463   4.342  15.167  0.00  0.00    +0.000 C 
ATOM     28  C   UNL     1       6.789   3.753  15.686  0.00  0.00    +0.000 C 
ATOM     29  C   UNL     1       6.812   4.888  16.716  0.00  0.00    +0.000 C 
BRANCH  26  30
ATOM     30  C   UNL     1       4.313   4.119  17.617  0.00  0.00    +0.000 A 
ATOM     31  C   UNL     1       3.075   3.588  17.184  0.00  0.00    +0.000 A 
ATOM     32  C   UNL     1       2.120   3.098  18.080  0.00  0.00    +0.000 A 
ATOM     33  C   UNL     1       2.395   3.099  19.439  0.00  0.00    +0.000 A 
ATOM     34 CL   UNL     1       1.176   2.647  20.564  0.00  0.00    +0.000 Cl
ATOM     35  C   UNL     1       3.644   3.506  19.896  0.00  0.00    +0.000 A 
ATOM     36  C   UNL     1       4.594   3.994  18.992  0.00  0.00    +0.000 A 
ENDBRANCH  26  30
ENDBRANCH   6  26
TORSDOF 5
ENDMDL
MODEL 5
REMARK VINA RESULT:      -8.6      2.702      4.045
REMARK  Name = 
REMARK  5 active torsions:
REMARK  status: ('A' for Active; 'I' for Inactive)
REMARK    1  A    between atoms: C_2  and  C_16
REMARK    2  A    between atoms: N_3  and  C_4
REMARK    3  A    between atoms: C_7  and  N_8
REMARK    4  A    between atoms: C_21  and  C_23
REMARK    5  A    between atoms: C_23  and  C_24
REMARK                            x       y       z     vdW  Elec       q    Type
REMARK                         _______ _______ _______ _____ _____    ______ ____
ROOT
ATOM      1  C   UNL     1       7.516   6.761  18.105  0.00  0.00    +0.000 A 
ATOM      2  N   UNL     1       8.071   5.565  18.159  0.00  0.00    +0.000 NA
ATOM      3  N   UNL     1       7.063   4.699  18.560  0.00  0.00    +0.000 NA
ATOM      4  C   UNL     1       5.972   5.420  18.696  0.00  0.00    +0.000 A 
ATOM      5  N   UNL     1       4.703   5.138  19.090  0.00  0.00    +0.000 N 
ATOM      6  C   UNL     1       4.329   3.926  19.630  0.00  0.00    +0.000 C 
ATOM      7  O   UNL     1       5.105   2.996  19.848  0.00  0.00    +0.000 OA
ATOM      8  O   UNL     1       6.177   6.735  18.394  0.00  0.00    +0.000 OA
ATOM      9  H   UNL     1       4.038   5.891  18.994  0.00  0.00    +0.000 HD
ENDROOT
BRANCH   1  11
ATOM     10  O   UNL     1       8.342   8.444  16.713  0.00  0.00    +0.000 OA
ATOM     11  C   UNL     1       8.161   8.035  17.862  0.00  0.00    +0.000 C 
ATOM     12  N   UNL     1       8.569   8.715  19.004  0.00  0.00    +0.000 N 
ATOM     13  H   UNL     1       8.523   8.202  19.877  0.00  0.00    +0.000 HD
BRANCH  12  14
ATOM     14  C   UNL     1       9.120  10.016  19.037  0.00  0.00    +0.000 A 
ATOM     15  C   UNL     1       9.936  10.468  20.076  0.00  0.00    +0.000 A 
ATOM     16  C   UNL     1      10.460  11.763  20.073  0.00  0.00    +0.000 A 
ATOM     17  C   UNL     1      10.186  12.669  19.042  0.00  0.00    +0.000 A 
ATOM     18  C   UNL     1       9.376  12.197  18.000  0.00  0.00    +0.000 A 
ATOM     19  C   UNL     1       8.861  10.891  17.985  0.00  0.00    +0.000 A 
BRANCH  17  20
ATOM     20  N   UNL     1      10.718  13.945  19.012  0.00  0.00    +0.000 N 
ATOM     21  C   UNL     1       9.865  15.147  19.091  0.00  0.00    +0.000 C 
ATOM     22  C   UNL     1       9.796  15.880  17.744  0.00  0.00    +0.000 C 
ATOM     23  O   UNL     1      11.107  16.166  17.231  0.00  0.00    +0.000 OA
ATOM     24  C   UNL     1      11.833  14.940  17.033  0.00  0.00    +0.000 C 
ATOM     25  C   UNL     1      12.016  14.167  18.352  0.00  0.00    +0.000 C 
ENDBRANCH  17  20
ENDBRANCH  12  14
ENDBRANCH   1  11
BRANCH   6  26
ATOM     26  C   UNL     1       2.752   3.869  19.931  0.00  0.00    +0.000 C 
ATOM     27  C   UNL     1       1.962   2.673  19.278  0.00  0.00    +0.000 C 
ATOM     28  C   UNL     1       1.167   2.548  20.592  0.00  0.00    +0.000 C 
ATOM     29  C   UNL     1       2.369   3.184  21.300  0.00  0.00    +0.000 C 
BRANCH  26  30
ATOM     30  C   UNL     1       2.220   5.358  19.597  0.00  0.00    +0.000 A 
ATOM     31  C   UNL     1       2.184   5.819  18.260  0.00  0.00    +0.000 A 
ATOM     32  C   UNL     1       2.000   7.168  17.943  0.00  0.00    +0.000 A 
ATOM     33  C   UNL     1       1.816   8.091  18.962  0.00  0.00    +0.000 A 
ATOM     34 CL   UNL     1       1.746   9.770  18.600  0.00  0.00    +0.000 Cl
ATOM     35  C   UNL     1       1.732   7.662  20.282  0.00  0.00    +0.000 A 
ATOM     36  C   UNL     1       1.917   6.310  20.590  0.00  0.00    +0.000 A 
ENDBRANCH  26  30
ENDBRANCH   6  26
TORSDOF 5
ENDMDL
MODEL 6
REMARK VINA RESULT:      -8.4      7.331     10.663
REMARK  Name = 
REMARK  5 active torsions:
REMARK  status: ('A' for Active; 'I' for Inactive)
REMARK    1  A    between atoms: C_2  and  C_16
REMARK    2  A    between atoms: N_3  and  C_4
REMARK    3  A    between atoms: C_7  and  N_8
REMARK    4  A    between atoms: C_21  and  C_23
REMARK    5  A    between atoms: C_23  and  C_24
REMARK                            x       y       z     vdW  Elec       q    Type
REMARK                         _______ _______ _______ _____ _____    ______ ____
ROOT
ATOM      1  C   UNL     1       1.302   9.359  18.115  0.00  0.00    +0.000 A 
ATOM      2  N   UNL     1       2.327  10.140  17.833  0.00  0.00    +0.000 NA
ATOM      3  N   UNL     1       3.360   9.288  17.462  0.00  0.00    +0.000 NA
ATOM      4  C   UNL     1       2.884   8.064  17.521  0.00  0.00    +0.000 A 
ATOM      5  N   UNL     1       3.424   6.837  17.307  0.00  0.00    +0.000 N 
ATOM      6  C   UNL     1       4.772   6.624  17.116  0.00  0.00    +0.000 C 
ATOM      7  O   UNL     1       5.625   7.509  17.160  0.00  0.00    +0.000 OA
ATOM      8  O   UNL     1       1.573   8.033  17.898  0.00  0.00    +0.000 OA
ATOM      9  H   UNL     1       2.774   6.064  17.327  0.00  0.00    +0.000 HD
ENDROOT
BRANCH   1  11
ATOM     10  O   UNL     1      -0.198   9.641  19.882  0.00  0.00    +0.000 OA
ATOM     11  C   UNL     1       0.019   9.735  18.672  0.00  0.00    +0.000 C 
ATOM     12  N   UNL     1      -0.921  10.167  17.743  0.00  0.00    +0.000 N 
ATOM     13  H   UNL     1      -0.686  10.035  16.766  0.00  0.00    +0.000 HD
BRANCH  12  14
ATOM     14  C   UNL     1      -2.201  10.685  18.044  0.00  0.00    +0.000 A 
ATOM     15  C   UNL     1      -2.398  11.766  18.906  0.00  0.00    +0.000 A 
ATOM     16  C   UNL     1      -3.680  12.248  19.181  0.00  0.00    +0.000 A 
ATOM     17  C   UNL     1      -4.823  11.669  18.618  0.00  0.00    +0.000 A 
ATOM     18  C   UNL     1      -4.609  10.593  17.745  0.00  0.00    +0.000 A 
ATOM     19  C   UNL     1      -3.323  10.115  17.449  0.00  0.00    +0.000 A 
BRANCH  17  20
ATOM     20  N   UNL     1      -6.097  12.150  18.859  0.00  0.00    +0.000 N 
ATOM     21  C   UNL     1      -6.385  13.596  18.926  0.00  0.00    +0.000 C 
ATOM     22  C   UNL     1      -6.680  14.047  20.363  0.00  0.00    +0.000 C 
ATOM     23  O   UNL     1      -7.712  13.250  20.966  0.00  0.00    +0.000 OA
ATOM     24  C   UNL     1      -7.303  11.872  21.008  0.00  0.00    +0.000 C 
ATOM     25  C   UNL     1      -7.055  11.308  19.598  0.00  0.00    +0.000 C 
ENDBRANCH  17  20
ENDBRANCH  12  14
ENDBRANCH   1  11
BRANCH   6  26
ATOM     26  C   UNL     1       5.096   5.079  16.818  0.00  0.00    +0.000 C 
ATOM     27  C   UNL     1       5.063   4.640  15.306  0.00  0.00    +0.000 C 
ATOM     28  C   UNL     1       6.309   3.776  15.584  0.00  0.00    +0.000 C 
ATOM     29  C   UNL     1       6.634   4.734  16.736  0.00  0.00    +0.000 C 
BRANCH  26  30
ATOM     30  C   UNL     1       4.139   4.260  17.831  0.00  0.00    +0.000 A 
ATOM     31  C   UNL     1       2.952   3.654  17.357  0.00  0.00    +0.000 A 
ATOM     32  C   UNL     1       1.962   3.179  18.223  0.00  0.00    +0.000 A 
ATOM     33  C   UNL     1       2.150   3.273  19.594  0.00  0.00    +0.000 A 
ATOM     34 CL   UNL     1       0.881   2.839  20.669  0.00  0.00    +0.000 Cl
ATOM     35  C   UNL     1       3.351   3.758  20.099  0.00  0.00    +0.000 A 
ATOM     36  C   UNL     1       4.337   4.230  19.226  0.00  0.00    +0.000 A 
ENDBRANCH  26  30
ENDBRANCH   6  26
TORSDOF 5
ENDMDL
MODEL 7
REMARK VINA RESULT:      -8.4      7.841     10.184
REMARK  Name = 
REMARK  5 active torsions:
REMARK  status: ('A' for Active; 'I' for Inactive)
REMARK    1  A    between atoms: C_2  and  C_16
REMARK    2  A    between atoms: N_3  and  C_4
REMARK    3  A    between atoms: C_7  and  N_8
REMARK    4  A    between atoms: C_21  and  C_23
REMARK    5  A    between atoms: C_23  and  C_24
REMARK                            x       y       z     vdW  Elec       q    Type
REMARK                         _______ _______ _______ _____ _____    ______ ____
ROOT
ATOM      1  C   UNL     1       0.999   9.654  18.573  0.00  0.00    +0.000 A 
ATOM      2  N   UNL     1       1.926  10.279  17.873  0.00  0.00    +0.000 NA
ATOM      3  N   UNL     1       2.875   9.316  17.557  0.00  0.00    +0.000 NA
ATOM      4  C   UNL     1       2.446   8.180  18.062  0.00  0.00    +0.000 A 
ATOM      5  N   UNL     1       2.954   6.921  18.102  0.00  0.00    +0.000 N 
ATOM      6  C   UNL     1       4.236   6.606  17.706  0.00  0.00    +0.000 C 
ATOM      7  O   UNL     1       5.062   7.432  17.317  0.00  0.00    +0.000 OA
ATOM      8  O   UNL     1       1.245   8.312  18.695  0.00  0.00    +0.000 OA
ATOM      9  H   UNL     1       2.338   6.213  18.476  0.00  0.00    +0.000 HD
ENDROOT
BRANCH   1  11
ATOM     10  O   UNL     1      -1.294   9.982  18.871  0.00  0.00    +0.000 OA
ATOM     11  C   UNL     1      -0.147  10.226  19.251  0.00  0.00    +0.000 C 
ATOM     12  N   UNL     1       0.160  11.071  20.311  0.00  0.00    +0.000 N 
ATOM     13  H   UNL     1       1.134  11.331  20.417  0.00  0.00    +0.000 HD
BRANCH  12  14
ATOM     14  C   UNL     1      -0.774  11.662  21.191  0.00  0.00    +0.000 A 
ATOM     15  C   UNL     1      -1.470  12.833  20.885  0.00  0.00    +0.000 A 
ATOM     16  C   UNL     1      -2.384  13.388  21.784  0.00  0.00    +0.000 A 
ATOM     17  C   UNL     1      -2.638  12.809  23.032  0.00  0.00    +0.000 A 
ATOM     18  C   UNL     1      -1.942  11.627  23.321  0.00  0.00    +0.000 A 
ATOM     19  C   UNL     1      -1.036  11.051  22.416  0.00  0.00    +0.000 A 
BRANCH  17  20
ATOM     20  N   UNL     1      -3.559  13.332  23.922  0.00  0.00    +0.000 N 
ATOM     21  C   UNL     1      -4.531  12.477  24.631  0.00  0.00    +0.000 C 
ATOM     22  C   UNL     1      -5.955  12.679  24.096  0.00  0.00    +0.000 C 
ATOM     23  O   UNL     1      -6.331  14.065  24.102  0.00  0.00    +0.000 OA
ATOM     24  C   UNL     1      -5.432  14.819  23.270  0.00  0.00    +0.000 C 
ATOM     25  C   UNL     1      -3.981  14.735  23.776  0.00  0.00    +0.000 C 
ENDBRANCH  17  20
ENDBRANCH  12  14
ENDBRANCH   1  11
BRANCH   6  26
ATOM     26  C   UNL     1       4.521   5.028  17.804  0.00  0.00    +0.000 C 
ATOM     27  C   UNL     1       5.102   4.510  19.173  0.00  0.00    +0.000 C 
ATOM     28  C   UNL     1       4.176   3.285  19.041  0.00  0.00    +0.000 C 
ATOM     29  C   UNL     1       3.260   4.154  18.172  0.00  0.00    +0.000 C 
BRANCH  26  30
ATOM     30  C   UNL     1       5.379   4.688  16.477  0.00  0.00    +0.000 A 
ATOM     31  C   UNL     1       6.766   4.964  16.434  0.00  0.00    +0.000 A 
ATOM     32  C   UNL     1       7.492   4.950  15.239  0.00  0.00    +0.000 A 
ATOM     33  C   UNL     1       6.849   4.627  14.053  0.00  0.00    +0.000 A 
ATOM     34 CL   UNL     1       7.686   4.757  12.557  0.00  0.00    +0.000 Cl
ATOM     35  C   UNL     1       5.514   4.239  14.069  0.00  0.00    +0.000 A 
ATOM     36  C   UNL     1       4.795   4.256  15.270  0.00  0.00    +0.000 A 
ENDBRANCH  26  30
ENDBRANCH   6  26
TORSDOF 5
ENDMDL
MODEL 8
REMARK VINA RESULT:      -8.4      7.906      9.462
REMARK  Name = 
REMARK  5 active torsions:
REMARK  status: ('A' for Active; 'I' for Inactive)
REMARK    1  A    between atoms: C_2  and  C_16
REMARK    2  A    between atoms: N_3  and  C_4
REMARK    3  A    between atoms: C_7  and  N_8
REMARK    4  A    between atoms: C_21  and  C_23
REMARK    5  A    between atoms: C_23  and  C_24
REMARK                            x       y       z     vdW  Elec       q    Type
REMARK                         _______ _______ _______ _____ _____    ______ ____
ROOT
ATOM      1  C   UNL     1       1.087   9.400  19.223  0.00  0.00    +0.000 A 
ATOM      2  N   UNL     1       1.477   9.895  18.064  0.00  0.00    +0.000 NA
ATOM      3  N   UNL     1       2.347   8.956  17.526  0.00  0.00    +0.000 NA
ATOM      4  C   UNL     1       2.402   7.955  18.376  0.00  0.00    +0.000 A 
ATOM      5  N   UNL     1       3.095   6.788  18.409  0.00  0.00    +0.000 N 
ATOM      6  C   UNL     1       4.104   6.480  17.521  0.00  0.00    +0.000 C 
ATOM      7  O   UNL     1       4.506   7.240  16.640  0.00  0.00    +0.000 OA
ATOM      8  O   UNL     1       1.602   8.153  19.464  0.00  0.00    +0.000 OA
ATOM      9  H   UNL     1       2.850   6.154  19.155  0.00  0.00    +0.000 HD
ENDROOT
BRANCH   1  11
ATOM     10  O   UNL     1      -0.029   9.438  21.274  0.00  0.00    +0.000 OA
ATOM     11  C   UNL     1       0.277  10.037  20.240  0.00  0.00    +0.000 C 
ATOM     12  N   UNL     1      -0.134  11.330  19.939  0.00  0.00    +0.000 N 
ATOM     13  H   UNL     1       0.032  11.650  18.992  0.00  0.00    +0.000 HD
BRANCH  12  14
ATOM     14  C   UNL     1      -0.837  12.196  20.807  0.00  0.00    +0.000 A 
ATOM     15  C   UNL     1      -0.268  12.742  21.959  0.00  0.00    +0.000 A 
ATOM     16  C   UNL     1      -0.997  13.593  22.794  0.00  0.00    +0.000 A 
ATOM     17  C   UNL     1      -2.329  13.928  22.525  0.00  0.00    +0.000 A 
ATOM     18  C   UNL     1      -2.884  13.382  21.360  0.00  0.00    +0.000 A 
ATOM     19  C   UNL     1      -2.152  12.542  20.505  0.00  0.00    +0.000 A 
BRANCH  17  20
ATOM     20  N   UNL     1      -3.057  14.788  23.327  0.00  0.00    +0.000 N 
ATOM     21  C   UNL     1      -3.127  16.236  23.055  0.00  0.00    +0.000 C 
ATOM     22  C   UNL     1      -2.328  17.045  24.085  0.00  0.00    +0.000 C 
ATOM     23  O   UNL     1      -2.713  16.716  25.429  0.00  0.00    +0.000 OA
ATOM     24  C   UNL     1      -2.477  15.319  25.679  0.00  0.00    +0.000 C 
ATOM     25  C   UNL     1      -3.299  14.425  24.734  0.00  0.00    +0.000 C 
ENDBRANCH  17  20
ENDBRANCH  12  14
ENDBRANCH   1  11
BRANCH   6  26
ATOM     26  C   UNL     1       4.686   5.003  17.767  0.00  0.00    +0.000 C 
ATOM     27  C   UNL     1       5.445   4.773  19.127  0.00  0.00    +0.000 C 
ATOM     28  C   UNL     1       4.759   3.396  19.216  0.00  0.00    +0.000 C 
ATOM     29  C   UNL     1       3.639   3.971  18.342  0.00  0.00    +0.000 C 
BRANCH  26  30
ATOM     30  C   UNL     1       5.500   4.657  16.414  0.00  0.00    +0.000 A 
ATOM     31  C   UNL     1       6.851   5.054  16.274  0.00  0.00    +0.000 A 
ATOM     32  C   UNL     1       7.510   5.028  15.041  0.00  0.00    +0.000 A 
ATOM     33  C   UNL     1       6.838   4.572  13.916  0.00  0.00    +0.000 A 
ATOM     34 CL   UNL     1       7.578   4.680  12.368  0.00  0.00    +0.000 Cl
ATOM     35  C   UNL     1       5.548   4.067  14.034  0.00  0.00    +0.000 A 
ATOM     36  C   UNL     1       4.896   4.096  15.272  0.00  0.00    +0.000 A 
ENDBRANCH  26  30
ENDBRANCH   6  26
TORSDOF 5
ENDMDL
MODEL 9
REMARK VINA RESULT:      -8.3      6.952      8.047
REMARK  Name = 
REMARK  5 active torsions:
REMARK  status: ('A' for Active; 'I' for Inactive)
REMARK    1  A    between atoms: C_2  and  C_16
REMARK    2  A    between atoms: N_3  and  C_4
REMARK    3  A    between atoms: C_7  and  N_8
REMARK    4  A    between atoms: C_21  and  C_23
REMARK    5  A    between atoms: C_23  and  C_24
REMARK                            x       y       z     vdW  Elec       q    Type
REMARK                         _______ _______ _______ _____ _____    ______ ____
ROOT
ATOM      1  C   UNL     1       1.383   9.148  19.932  0.00  0.00    +0.000 A 
ATOM      2  N   UNL     1       1.043   8.616  21.089  0.00  0.00    +0.000 NA
ATOM      3  N   UNL     1       1.510   7.309  21.057  0.00  0.00    +0.000 NA
ATOM      4  C   UNL     1       2.118   7.151  19.902  0.00  0.00    +0.000 A 
ATOM      5  N   UNL     1       2.733   6.099  19.302  0.00  0.00    +0.000 N 
ATOM      6  C   UNL     1       2.686   4.812  19.793  0.00  0.00    +0.000 C 
ATOM      7  O   UNL     1       2.055   4.476  20.795  0.00  0.00    +0.000 OA
ATOM      8  O   UNL     1       2.105   8.287  19.147  0.00  0.00    +0.000 OA
ATOM      9  H   UNL     1       3.211   6.307  18.437  0.00  0.00    +0.000 HD
ENDROOT
BRANCH   1  11
ATOM     10  O   UNL     1       0.280  10.556  18.430  0.00  0.00    +0.000 OA
ATOM     11  C   UNL     1       1.025  10.450  19.406  0.00  0.00    +0.000 C 
ATOM     12  N   UNL     1       1.606  11.528  20.063  0.00  0.00    +0.000 N 
ATOM     13  H   UNL     1       2.333  11.312  20.735  0.00  0.00    +0.000 HD
BRANCH  12  14
ATOM     14  C   UNL     1       1.333  12.892  19.811  0.00  0.00    +0.000 A 
ATOM     15  C   UNL     1       2.107  13.675  18.953  0.00  0.00    +0.000 A 
ATOM     16  C   UNL     1       1.806  15.021  18.732  0.00  0.00    +0.000 A 
ATOM     17  C   UNL     1       0.728  15.650  19.363  0.00  0.00    +0.000 A 
ATOM     18  C   UNL     1      -0.048  14.849  20.213  0.00  0.00    +0.000 A 
ATOM     19  C   UNL     1       0.236  13.491  20.425  0.00  0.00    +0.000 A 
BRANCH  17  20
ATOM     20  N   UNL     1       0.402  16.975  19.136  0.00  0.00    +0.000 N 
ATOM     21  C   UNL     1      -0.868  17.558  19.612  0.00  0.00    +0.000 C 
ATOM     22  C   UNL     1      -1.834  17.831  18.452  0.00  0.00    +0.000 C 
ATOM     23  O   UNL     1      -1.216  18.619  17.422  0.00  0.00    +0.000 OA
ATOM     24  C   UNL     1      -0.072  17.924  16.895  0.00  0.00    +0.000 C 
ATOM     25  C   UNL     1       0.991  17.671  17.979  0.00  0.00    +0.000 C 
ENDBRANCH  17  20
ENDBRANCH  12  14
ENDBRANCH   1  11
BRANCH   6  26
ATOM     26  C   UNL     1       3.565   3.802  18.905  0.00  0.00    +0.000 C 
ATOM     27  C   UNL     1       3.990   2.454  19.601  0.00  0.00    +0.000 C 
ATOM     28  C   UNL     1       3.703   1.736  18.268  0.00  0.00    +0.000 C 
ATOM     29  C   UNL     1       2.727   2.873  17.944  0.00  0.00    +0.000 C 
BRANCH  26  30
ATOM     30  C   UNL     1       4.755   4.717  18.308  0.00  0.00    +0.000 A 
ATOM     31  C   UNL     1       5.967   4.866  19.022  0.00  0.00    +0.000 A 
ATOM     32  C   UNL     1       6.907   5.848  18.696  0.00  0.00    +0.000 A 
ATOM     33  C   UNL     1       6.670   6.691  17.620  0.00  0.00    +0.000 A 
ATOM     34 CL   UNL     1       7.736   8.001  17.302  0.00  0.00    +0.000 Cl
ATOM     35  C   UNL     1       5.546   6.503  16.824  0.00  0.00    +0.000 A 
ATOM     36  C   UNL     1       4.610   5.517  17.157  0.00  0.00    +0.000 A 
ENDBRANCH  26  30
ENDBRANCH   6  26
TORSDOF 5
ENDMDL
