MODEL 1
REMARK VINA RESULT:      -7.8      0.000      0.000
REMARK  Name = 
REMARK  4 active torsions:
REMARK  status: ('A' for Active; 'I' for Inactive)
REMARK    1  A    between atoms: C_1  and  O_2
REMARK    2  A    between atoms: O_2  and  C_3
REMARK    3  A    between atoms: C_5  and  O_6
REMARK    4  A    between atoms: C_10  and  C_11
REMARK                            x       y       z     vdW  Elec       q    Type
REMARK                         _______ _______ _______ _____ _____    ______ ____
ROOT
ATOM      1  C   UNL     1       0.021   9.695  21.312  0.00  0.00    +0.000 A 
ATOM      2  C   UNL     1       0.115  10.324  20.070  0.00  0.00    +0.000 A 
ATOM      3  C   UNL     1       0.905   9.765  19.062  0.00  0.00    +0.000 A 
ATOM      4  C   UNL     1       1.614   8.578  19.287  0.00  0.00    +0.000 A 
ATOM      5  C   UNL     1       2.475   7.941  18.238  0.00  0.00    +0.000 A 
ATOM      6  O   UNL     1       2.719   8.480  17.165  0.00  0.00    +0.000 OA
ATOM      7  C   UNL     1       3.065   6.599  18.550  0.00  0.00    +0.000 A 
ATOM      8  C   UNL     1       2.882   6.103  19.782  0.00  0.00    +0.000 A 
ATOM      9  N   UNL     1       2.175   6.725  20.773  0.00  0.00    +0.000 N 
ATOM     10  C   UNL     1       1.528   7.947  20.546  0.00  0.00    +0.000 A 
ATOM     11  C   UNL     1       0.738   8.519  21.551  0.00  0.00    +0.000 A 
ATOM     12  H   UNL     1       2.166   6.320  21.702  0.00  0.00    +0.000 HD
ENDROOT
BRANCH   7  13
ATOM     13  C   UNL     1       3.836   5.861  17.545  0.00  0.00    +0.000 A 
ATOM     14  C   UNL     1       4.770   6.528  16.739  0.00  0.00    +0.000 A 
ATOM     15  C   UNL     1       5.518   5.818  15.799  0.00  0.00    +0.000 A 
ATOM     16  C   UNL     1       5.328   4.447  15.666  0.00  0.00    +0.000 A 
ATOM     17  F   UNL     1       6.050   3.767  14.765  0.00  0.00    +0.000 F 
ATOM     18  C   UNL     1       4.405   3.770  16.454  0.00  0.00    +0.000 A 
ATOM     19  C   UNL     1       3.656   4.478  17.396  0.00  0.00    +0.000 A 
ENDBRANCH   7  13
BRANCH   1  21
ATOM     20  C   UNL     1      -0.812  11.567  22.491  0.00  0.00    +0.000 C 
ATOM     21  O   UNL     1      -0.720  10.151  22.368  0.00  0.00    +0.000 OA
ENDBRANCH   1  21
BRANCH   3  22
ATOM     22  O   UNL     1       0.953  10.392  17.850  0.00  0.00    +0.000 OA
ATOM     23  H   UNL     1       0.108  10.820  17.647  0.00  0.00    +0.000 HD
ENDBRANCH   3  22
TORSDOF 3
ENDMDL
MODEL 2
REMARK VINA RESULT:      -7.7      0.139      1.066
REMARK  Name = 
REMARK  4 active torsions:
REMARK  status: ('A' for Active; 'I' for Inactive)
REMARK    1  A    between atoms: C_1  and  O_2
REMARK    2  A    between atoms: O_2  and  C_3
REMARK    3  A    between atoms: C_5  and  O_6
REMARK    4  A    between atoms: C_10  and  C_11
REMARK                            x       y       z     vdW  Elec       q    Type
REMARK                         _______ _______ _______ _____ _____    ______ ____
ROOT
ATOM      1  C   UNL     1      -0.058   9.803  21.317  0.00  0.00    +0.000 A 
ATOM      2  C   UNL     1       0.050  10.421  20.071  0.00  0.00    +0.000 A 
ATOM      3  C   UNL     1       0.848   9.850  19.074  0.00  0.00    +0.000 A 
ATOM      4  C   UNL     1       1.551   8.663  19.317  0.00  0.00    +0.000 A 
ATOM      5  C   UNL     1       2.419   8.015  18.282  0.00  0.00    +0.000 A 
ATOM      6  O   UNL     1       2.675   8.543  17.206  0.00  0.00    +0.000 OA
ATOM      7  C   UNL     1       3.002   6.673  18.611  0.00  0.00    +0.000 A 
ATOM      8  C   UNL     1       2.806   6.189  19.846  0.00  0.00    +0.000 A 
ATOM      9  N   UNL     1       2.093   6.822  20.825  0.00  0.00    +0.000 N 
ATOM     10  C   UNL     1       1.451   8.044  20.580  0.00  0.00    +0.000 A 
ATOM     11  C   UNL     1       0.654   8.627  21.572  0.00  0.00    +0.000 A 
ATOM     12  H   UNL     1       2.073   6.425  21.757  0.00  0.00    +0.000 HD
ENDROOT
BRANCH   7  13
ATOM     13  C   UNL     1       3.781   5.924  17.620  0.00  0.00    +0.000 A 
ATOM     14  C   UNL     1       3.609   4.538  17.486  0.00  0.00    +0.000 A 
ATOM     15  C   UNL     1       4.336   3.831  16.528  0.00  0.00    +0.000 A 
ATOM     16  C   UNL     1       5.232   4.510  15.710  0.00  0.00    +0.000 A 
ATOM     17  F   UNL     1       5.927   3.830  14.787  0.00  0.00    +0.000 F 
ATOM     18  C   UNL     1       5.417   5.882  15.830  0.00  0.00    +0.000 A 
ATOM     19  C   UNL     1       4.691   6.592  16.788  0.00  0.00    +0.000 A 
ENDBRANCH   7  13
BRANCH   1  21
ATOM     20  C   UNL     1      -1.096  11.666  22.337  0.00  0.00    +0.000 C 
ATOM     21  O   UNL     1      -0.807  10.271  22.361  0.00  0.00    +0.000 OA
ENDBRANCH   1  21
BRANCH   3  22
ATOM     22  O   UNL     1       0.909  10.467  17.857  0.00  0.00    +0.000 OA
ATOM     23  H   UNL     1       1.389  11.306  17.917  0.00  0.00    +0.000 HD
ENDBRANCH   3  22
TORSDOF 3
ENDMDL
MODEL 3
REMARK VINA RESULT:      -7.4      1.993      2.093
REMARK  Name = 
REMARK  4 active torsions:
REMARK  status: ('A' for Active; 'I' for Inactive)
REMARK    1  A    between atoms: C_1  and  O_2
REMARK    2  A    between atoms: O_2  and  C_3
REMARK    3  A    between atoms: C_5  and  O_6
REMARK    4  A    between atoms: C_10  and  C_11
REMARK                            x       y       z     vdW  Elec       q    Type
REMARK                         _______ _______ _______ _____ _____    ______ ____
ROOT
ATOM      1  C   UNL     1       0.462  11.156  20.505  0.00  0.00    +0.000 A 
ATOM      2  C   UNL     1       0.922  11.228  19.190  0.00  0.00    +0.000 A 
ATOM      3  C   UNL     1       1.504  10.107  18.591  0.00  0.00    +0.000 A 
ATOM      4  C   UNL     1       1.639   8.908  19.302  0.00  0.00    +0.000 A 
ATOM      5  C   UNL     1       2.257   7.680  18.703  0.00  0.00    +0.000 A 
ATOM      6  O   UNL     1       2.800   7.681  17.605  0.00  0.00    +0.000 OA
ATOM      7  C   UNL     1       2.212   6.419  19.513  0.00  0.00    +0.000 A 
ATOM      8  C   UNL     1       1.727   6.491  20.761  0.00  0.00    +0.000 A 
ATOM      9  N   UNL     1       1.249   7.630  21.345  0.00  0.00    +0.000 N 
ATOM     10  C   UNL     1       1.184   8.837  20.636  0.00  0.00    +0.000 A 
ATOM     11  C   UNL     1       0.608   9.968  21.228  0.00  0.00    +0.000 A 
ATOM     12  H   UNL     1       0.987   7.611  22.324  0.00  0.00    +0.000 HD
ENDROOT
BRANCH   7  13
ATOM     13  C   UNL     1       2.703   5.151  18.965  0.00  0.00    +0.000 A 
ATOM     14  C   UNL     1       3.945   4.639  19.369  0.00  0.00    +0.000 A 
ATOM     15  C   UNL     1       4.399   3.422  18.861  0.00  0.00    +0.000 A 
ATOM     16  C   UNL     1       3.614   2.723  17.951  0.00  0.00    +0.000 A 
ATOM     17  F   UNL     1       4.050   1.552  17.467  0.00  0.00    +0.000 F 
ATOM     18  C   UNL     1       2.382   3.216  17.538  0.00  0.00    +0.000 A 
ATOM     19  C   UNL     1       1.925   4.434  18.044  0.00  0.00    +0.000 A 
ENDBRANCH   7  13
BRANCH   1  21
ATOM     20  C   UNL     1      -1.310  11.857  21.904  0.00  0.00    +0.000 C 
ATOM     21  O   UNL     1      -0.122  12.186  21.189  0.00  0.00    +0.000 OA
ENDBRANCH   1  21
BRANCH   3  22
ATOM     22  O   UNL     1       1.918  10.204  17.293  0.00  0.00    +0.000 OA
ATOM     23  H   UNL     1       2.436   9.428  17.035  0.00  0.00    +0.000 HD
ENDBRANCH   3  22
TORSDOF 3
ENDMDL
MODEL 4
REMARK VINA RESULT:      -7.4      3.484      4.854
REMARK  Name = 
REMARK  4 active torsions:
REMARK  status: ('A' for Active; 'I' for Inactive)
REMARK    1  A    between atoms: C_1  and  O_2
REMARK    2  A    between atoms: O_2  and  C_3
REMARK    3  A    between atoms: C_5  and  O_6
REMARK    4  A    between atoms: C_10  and  C_11
REMARK                            x       y       z     vdW  Elec       q    Type
REMARK                         _______ _______ _______ _____ _____    ______ ____
ROOT
ATOM      1  C   UNL     1       2.522   4.648  20.343  0.00  0.00    +0.000 A 
ATOM      2  C   UNL     1       2.489   5.925  19.784  0.00  0.00    +0.000 A 
ATOM      3  C   UNL     1       3.162   6.181  18.586  0.00  0.00    +0.000 A 
ATOM      4  C   UNL     1       3.881   5.166  17.941  0.00  0.00    +0.000 A 
ATOM      5  C   UNL     1       4.619   5.393  16.656  0.00  0.00    +0.000 A 
ATOM      6  O   UNL     1       4.753   6.503  16.156  0.00  0.00    +0.000 OA
ATOM      7  C   UNL     1       5.228   4.196  15.989  0.00  0.00    +0.000 A 
ATOM      8  C   UNL     1       5.172   3.021  16.634  0.00  0.00    +0.000 A 
ATOM      9  N   UNL     1       4.581   2.830  17.852  0.00  0.00    +0.000 N 
ATOM     10  C   UNL     1       3.924   3.877  18.512  0.00  0.00    +0.000 A 
ATOM     11  C   UNL     1       3.250   3.633  19.715  0.00  0.00    +0.000 A 
ATOM     12  H   UNL     1       4.667   1.928  18.306  0.00  0.00    +0.000 HD
ENDROOT
BRANCH   7  13
ATOM     13  C   UNL     1       5.881   4.310  14.682  0.00  0.00    +0.000 A 
ATOM     14  C   UNL     1       7.067   5.047  14.546  0.00  0.00    +0.000 A 
ATOM     15  C   UNL     1       7.698   5.136  13.304  0.00  0.00    +0.000 A 
ATOM     16  C   UNL     1       7.141   4.491  12.205  0.00  0.00    +0.000 A 
ATOM     17  F   UNL     1       7.751   4.574  11.015  0.00  0.00    +0.000 F 
ATOM     18  C   UNL     1       5.966   3.758  12.322  0.00  0.00    +0.000 A 
ATOM     19  C   UNL     1       5.333   3.668  13.563  0.00  0.00    +0.000 A 
ENDBRANCH   7  13
BRANCH   1  21
ATOM     20  C   UNL     1       1.646   2.892  21.661  0.00  0.00    +0.000 C 
ATOM     21  O   UNL     1       1.901   4.285  21.507  0.00  0.00    +0.000 OA
ENDBRANCH   1  21
BRANCH   3  22
ATOM     22  O   UNL     1       3.086   7.436  18.052  0.00  0.00    +0.000 OA
ATOM     23  H   UNL     1       3.206   7.413  17.091  0.00  0.00    +0.000 HD
ENDBRANCH   3  22
TORSDOF 3
ENDMDL
MODEL 5
REMARK VINA RESULT:      -7.3      3.527      4.970
REMARK  Name = 
REMARK  4 active torsions:
REMARK  status: ('A' for Active; 'I' for Inactive)
REMARK    1  A    between atoms: C_1  and  O_2
REMARK    2  A    between atoms: O_2  and  C_3
REMARK    3  A    between atoms: C_5  and  O_6
REMARK    4  A    between atoms: C_10  and  C_11
REMARK                            x       y       z     vdW  Elec       q    Type
REMARK                         _______ _______ _______ _____ _____    ______ ____
ROOT
ATOM      1  C   UNL     1       2.500   4.547  20.378  0.00  0.00    +0.000 A 
ATOM      2  C   UNL     1       2.513   5.840  19.854  0.00  0.00    +0.000 A 
ATOM      3  C   UNL     1       3.199   6.105  18.665  0.00  0.00    +0.000 A 
ATOM      4  C   UNL     1       3.885   5.085  17.995  0.00  0.00    +0.000 A 
ATOM      5  C   UNL     1       4.636   5.321  16.719  0.00  0.00    +0.000 A 
ATOM      6  O   UNL     1       4.809   6.439  16.250  0.00  0.00    +0.000 OA
ATOM      7  C   UNL     1       5.206   4.123  16.021  0.00  0.00    +0.000 A 
ATOM      8  C   UNL     1       5.108   2.933  16.634  0.00  0.00    +0.000 A 
ATOM      9  N   UNL     1       4.506   2.729  17.844  0.00  0.00    +0.000 N 
ATOM     10  C   UNL     1       3.882   3.780  18.530  0.00  0.00    +0.000 A 
ATOM     11  C   UNL     1       3.196   3.526  19.724  0.00  0.00    +0.000 A 
ATOM     12  H   UNL     1       4.560   1.813  18.273  0.00  0.00    +0.000 HD
ENDROOT
BRANCH   7  13
ATOM     13  C   UNL     1       5.868   4.250  14.720  0.00  0.00    +0.000 A 
ATOM     14  C   UNL     1       5.315   3.644  13.582  0.00  0.00    +0.000 A 
ATOM     15  C   UNL     1       5.937   3.785  12.341  0.00  0.00    +0.000 A 
ATOM     16  C   UNL     1       7.108   4.528  12.241  0.00  0.00    +0.000 A 
ATOM     17  F   UNL     1       7.701   4.666  11.048  0.00  0.00    +0.000 F 
ATOM     18  C   UNL     1       7.670   5.134  13.358  0.00  0.00    +0.000 A 
ATOM     19  C   UNL     1       7.050   4.995  14.601  0.00  0.00    +0.000 A 
ENDBRANCH   7  13
BRANCH   1  21
ATOM     20  C   UNL     1       1.680   2.773  21.706  0.00  0.00    +0.000 C 
ATOM     21  O   UNL     1       1.863   4.174  21.530  0.00  0.00    +0.000 OA
ENDBRANCH   1  21
BRANCH   3  22
ATOM     22  O   UNL     1       3.168   7.377  18.166  0.00  0.00    +0.000 OA
ATOM     23  H   UNL     1       4.047   7.782  18.193  0.00  0.00    +0.000 HD
ENDBRANCH   3  22
TORSDOF 3
ENDMDL
MODEL 6
REMARK VINA RESULT:      -7.3      2.055      2.263
REMARK  Name = 
REMARK  4 active torsions:
REMARK  status: ('A' for Active; 'I' for Inactive)
REMARK    1  A    between atoms: C_1  and  O_2
REMARK    2  A    between atoms: O_2  and  C_3
REMARK    3  A    between atoms: C_5  and  O_6
REMARK    4  A    between atoms: C_10  and  C_11
REMARK                            x       y       z     vdW  Elec       q    Type
REMARK                         _______ _______ _______ _____ _____    ______ ____
ROOT
ATOM      1  C   UNL     1       0.529  11.254  20.485  0.00  0.00    +0.000 A 
ATOM      2  C   UNL     1       0.983  11.308  19.168  0.00  0.00    +0.000 A 
ATOM      3  C   UNL     1       1.546  10.174  18.575  0.00  0.00    +0.000 A 
ATOM      4  C   UNL     1       1.668   8.979  19.297  0.00  0.00    +0.000 A 
ATOM      5  C   UNL     1       2.265   7.738  18.705  0.00  0.00    +0.000 A 
ATOM      6  O   UNL     1       2.803   7.722  17.605  0.00  0.00    +0.000 OA
ATOM      7  C   UNL     1       2.207   6.485  19.526  0.00  0.00    +0.000 A 
ATOM      8  C   UNL     1       1.729   6.574  20.776  0.00  0.00    +0.000 A 
ATOM      9  N   UNL     1       1.269   7.726  21.352  0.00  0.00    +0.000 N 
ATOM     10  C   UNL     1       1.219   8.927  20.633  0.00  0.00    +0.000 A 
ATOM     11  C   UNL     1       0.661  10.071  21.217  0.00  0.00    +0.000 A 
ATOM     12  H   UNL     1       1.012   7.718  22.333  0.00  0.00    +0.000 HD
ENDROOT
BRANCH   7  13
ATOM     13  C   UNL     1       2.677   5.206  18.987  0.00  0.00    +0.000 A 
ATOM     14  C   UNL     1       1.888   4.490  18.074  0.00  0.00    +0.000 A 
ATOM     15  C   UNL     1       2.349   3.283  17.546  0.00  0.00    +0.000 A 
ATOM     16  C   UNL     1       3.592   2.795  17.934  0.00  0.00    +0.000 A 
ATOM     17  F   UNL     1       4.034   1.638  17.423  0.00  0.00    +0.000 F 
ATOM     18  C   UNL     1       4.385   3.490  18.839  0.00  0.00    +0.000 A 
ATOM     19  C   UNL     1       3.927   4.698  19.369  0.00  0.00    +0.000 A 
ENDBRANCH   7  13
BRANCH   1  21
ATOM     20  C   UNL     1       0.725  13.502  21.191  0.00  0.00    +0.000 C 
ATOM     21  O   UNL     1      -0.038  12.299  21.163  0.00  0.00    +0.000 OA
ENDBRANCH   1  21
BRANCH   3  22
ATOM     22  O   UNL     1       1.956  10.255  17.275  0.00  0.00    +0.000 OA
ATOM     23  H   UNL     1       2.128   9.374  16.910  0.00  0.00    +0.000 HD
ENDBRANCH   3  22
TORSDOF 3
ENDMDL
MODEL 7
REMARK VINA RESULT:      -7.1      3.471      6.751
REMARK  Name = 
REMARK  4 active torsions:
REMARK  status: ('A' for Active; 'I' for Inactive)
REMARK    1  A    between atoms: C_1  and  O_2
REMARK    2  A    between atoms: O_2  and  C_3
REMARK    3  A    between atoms: C_5  and  O_6
REMARK    4  A    between atoms: C_10  and  C_11
REMARK                            x       y       z     vdW  Elec       q    Type
REMARK                         _______ _______ _______ _____ _____    ______ ____
ROOT
ATOM      1  C   UNL     1       4.453   4.537  19.062  0.00  0.00    +0.000 A 
ATOM      2  C   UNL     1       4.736   5.178  17.856  0.00  0.00    +0.000 A 
ATOM      3  C   UNL     1       4.094   6.377  17.533  0.00  0.00    +0.000 A 
ATOM      4  C   UNL     1       3.157   6.942  18.408  0.00  0.00    +0.000 A 
ATOM      5  C   UNL     1       2.443   8.224  18.106  0.00  0.00    +0.000 A 
ATOM      6  O   UNL     1       2.530   8.792  17.024  0.00  0.00    +0.000 OA
ATOM      7  C   UNL     1       1.575   8.802  19.183  0.00  0.00    +0.000 A 
ATOM      8  C   UNL     1       1.402   8.084  20.303  0.00  0.00    +0.000 A 
ATOM      9  N   UNL     1       1.978   6.869  20.544  0.00  0.00    +0.000 N 
ATOM     10  C   UNL     1       2.862   6.289  19.623  0.00  0.00    +0.000 A 
ATOM     11  C   UNL     1       3.507   5.086  19.934  0.00  0.00    +0.000 A 
ATOM     12  H   UNL     1       1.719   6.356  21.379  0.00  0.00    +0.000 HD
ENDROOT
BRANCH   7  13
ATOM     13  C   UNL     1       0.919  10.101  19.009  0.00  0.00    +0.000 A 
ATOM     14  C   UNL     1       1.620  11.288  19.268  0.00  0.00    +0.000 A 
ATOM     15  C   UNL     1       0.998  12.524  19.081  0.00  0.00    +0.000 A 
ATOM     16  C   UNL     1      -0.320  12.568  18.640  0.00  0.00    +0.000 A 
ATOM     17  F   UNL     1      -0.913  13.756  18.457  0.00  0.00    +0.000 F 
ATOM     18  C   UNL     1      -1.030  11.402  18.381  0.00  0.00    +0.000 A 
ATOM     19  C   UNL     1      -0.411  10.165  18.567  0.00  0.00    +0.000 A 
ENDBRANCH   7  13
BRANCH   1  21
ATOM     20  C   UNL     1       4.119   2.403  20.020  0.00  0.00    +0.000 C 
ATOM     21  O   UNL     1       5.020   3.365  19.480  0.00  0.00    +0.000 OA
ENDBRANCH   1  21
BRANCH   3  22
ATOM     22  O   UNL     1       4.415   6.991  16.356  0.00  0.00    +0.000 OA
ATOM     23  H   UNL     1       5.257   7.465  16.430  0.00  0.00    +0.000 HD
ENDBRANCH   3  22
TORSDOF 3
ENDMDL
MODEL 8
REMARK VINA RESULT:      -7.1      3.440      6.863
REMARK  Name = 
REMARK  4 active torsions:
REMARK  status: ('A' for Active; 'I' for Inactive)
REMARK    1  A    between atoms: C_1  and  O_2
REMARK    2  A    between atoms: O_2  and  C_3
REMARK    3  A    between atoms: C_5  and  O_6
REMARK    4  A    between atoms: C_10  and  C_11
REMARK                            x       y       z     vdW  Elec       q    Type
REMARK                         _______ _______ _______ _____ _____    ______ ____
ROOT
ATOM      1  C   UNL     1       4.467   4.565  19.068  0.00  0.00    +0.000 A 
ATOM      2  C   UNL     1       4.721   5.256  17.884  0.00  0.00    +0.000 A 
ATOM      3  C   UNL     1       4.044   6.448  17.611  0.00  0.00    +0.000 A 
ATOM      4  C   UNL     1       3.101   6.955  18.514  0.00  0.00    +0.000 A 
ATOM      5  C   UNL     1       2.349   8.227  18.265  0.00  0.00    +0.000 A 
ATOM      6  O   UNL     1       2.411   8.836  17.204  0.00  0.00    +0.000 OA
ATOM      7  C   UNL     1       1.476   8.741  19.371  0.00  0.00    +0.000 A 
ATOM      8  C   UNL     1       1.333   7.979  20.465  0.00  0.00    +0.000 A 
ATOM      9  N   UNL     1       1.944   6.771  20.656  0.00  0.00    +0.000 N 
ATOM     10  C   UNL     1       2.835   6.250  19.707  0.00  0.00    +0.000 A 
ATOM     11  C   UNL     1       3.515   5.055  19.967  0.00  0.00    +0.000 A 
ATOM     12  H   UNL     1       1.706   6.221  21.473  0.00  0.00    +0.000 HD
ENDROOT
BRANCH   7  13
ATOM     13  C   UNL     1       0.783  10.027  19.250  0.00  0.00    +0.000 A 
ATOM     14  C   UNL     1      -0.388  10.132  18.485  0.00  0.00    +0.000 A 
ATOM     15  C   UNL     1      -1.057  11.353  18.390  0.00  0.00    +0.000 A 
ATOM     16  C   UNL     1      -0.552  12.464  19.058  0.00  0.00    +0.000 A 
ATOM     17  F   UNL     1      -1.198  13.634  18.969  0.00  0.00    +0.000 F 
ATOM     18  C   UNL     1       0.608  12.379  19.818  0.00  0.00    +0.000 A 
ATOM     19  C   UNL     1       1.278  11.159  19.915  0.00  0.00    +0.000 A 
ENDBRANCH   7  13
BRANCH   1  21
ATOM     20  C   UNL     1       4.191   2.356  19.864  0.00  0.00    +0.000 C 
ATOM     21  O   UNL     1       5.070   3.393  19.437  0.00  0.00    +0.000 OA
ENDBRANCH   1  21
BRANCH   3  22
ATOM     22  O   UNL     1       4.338   7.114  16.455  0.00  0.00    +0.000 OA
ATOM     23  H   UNL     1       5.213   7.525  16.504  0.00  0.00    +0.000 HD
ENDBRANCH   3  22
TORSDOF 3
ENDMDL
MODEL 9
REMARK VINA RESULT:      -7.1      2.386      3.119
REMARK  Name = 
REMARK  4 active torsions:
REMARK  status: ('A' for Active; 'I' for Inactive)
REMARK    1  A    between atoms: C_1  and  O_2
REMARK    2  A    between atoms: O_2  and  C_3
REMARK    3  A    between atoms: C_5  and  O_6
REMARK    4  A    between atoms: C_10  and  C_11
REMARK                            x       y       z     vdW  Elec       q    Type
REMARK                         _______ _______ _______ _____ _____    ______ ____
ROOT
ATOM      1  C   UNL     1       0.491  12.030  20.129  0.00  0.00    +0.000 A 
ATOM      2  C   UNL     1       0.409  11.252  21.284  0.00  0.00    +0.000 A 
ATOM      3  C   UNL     1       0.779   9.905  21.246  0.00  0.00    +0.000 A 
ATOM      4  C   UNL     1       1.224   9.321  20.054  0.00  0.00    +0.000 A 
ATOM      5  C   UNL     1       1.630   7.880  19.964  0.00  0.00    +0.000 A 
ATOM      6  O   UNL     1       1.475   7.090  20.887  0.00  0.00    +0.000 OA
ATOM      7  C   UNL     1       2.227   7.410  18.672  0.00  0.00    +0.000 A 
ATOM      8  C   UNL     1       2.258   8.271  17.644  0.00  0.00    +0.000 A 
ATOM      9  N   UNL     1       1.802   9.559  17.695  0.00  0.00    +0.000 N 
ATOM     10  C   UNL     1       1.297  10.104  18.883  0.00  0.00    +0.000 A 
ATOM     11  C   UNL     1       0.919  11.451  18.931  0.00  0.00    +0.000 A 
ATOM     12  H   UNL     1       1.780  10.109  16.843  0.00  0.00    +0.000 HD
ENDROOT
BRANCH   7  13
ATOM     13  C   UNL     1       2.741   6.045  18.529  0.00  0.00    +0.000 A 
ATOM     14  C   UNL     1       4.010   5.712  19.026  0.00  0.00    +0.000 A 
ATOM     15  C   UNL     1       4.488   4.406  18.908  0.00  0.00    +0.000 A 
ATOM     16  C   UNL     1       3.699   3.440  18.292  0.00  0.00    +0.000 A 
ATOM     17  F   UNL     1       4.158   2.186  18.183  0.00  0.00    +0.000 F 
ATOM     18  C   UNL     1       2.440   3.754  17.792  0.00  0.00    +0.000 A 
ATOM     19  C   UNL     1       1.960   5.059  17.910  0.00  0.00    +0.000 A 
ENDBRANCH   7  13
BRANCH   1  21
ATOM     20  C   UNL     1      -0.423  13.772  18.818  0.00  0.00    +0.000 C 
ATOM     21  O   UNL     1       0.157  13.355  20.050  0.00  0.00    +0.000 OA
ENDBRANCH   1  21
BRANCH   3  22
ATOM     22  O   UNL     1       0.712   9.180  22.402  0.00  0.00    +0.000 OA
ATOM     23  H   UNL     1       0.850   9.746  23.176  0.00  0.00    +0.000 HD
ENDBRANCH   3  22
TORSDOF 3
ENDMDL
