MODEL 1
REMARK VINA RESULT:      -6.0      0.000      0.000
REMARK  Name = 
REMARK  3 active torsions:
REMARK  status: ('A' for Active; 'I' for Inactive)
REMARK    1  A    between atoms: C_2  and  S_4
REMARK    2  A    between atoms: S_4  and  C_5
REMARK    3  A    between atoms: C_5  and  C_6
REMARK                            x       y       z     vdW  Elec       q    Type
REMARK                         _______ _______ _______ _____ _____    ______ ____
ROOT
ATOM      1  C   UNL     1       5.093   4.014  18.803  0.00  0.00    +0.000 C 
ENDROOT
BRANCH   1   2
ATOM      2  C   UNL     1       3.661   3.847  19.250  0.00  0.00    +0.000 A 
ATOM      3  C   UNL     1       2.995   4.933  19.831  0.00  0.00    +0.000 A 
ATOM      4  F   UNL     1       3.640   6.096  20.011  0.00  0.00    +0.000 F 
ATOM      5  C   UNL     1       1.669   4.851  20.252  0.00  0.00    +0.000 A 
ATOM      6  C   UNL     1       0.966   3.661  20.090  0.00  0.00    +0.000 A 
ATOM      7  C   UNL     1       1.607   2.559  19.528  0.00  0.00    +0.000 A 
ATOM      8  C   UNL     1       2.946   2.645  19.122  0.00  0.00    +0.000 A 
ATOM      9 CL   UNL     1       3.670   1.208  18.488  0.00  0.00    +0.000 Cl
ENDBRANCH   1   2
BRANCH   1  10
ATOM     10  S   UNL     1       5.224   4.336  17.016  0.00  0.00    +0.000 S 
BRANCH  10  12
ATOM     11  N   UNL     1       7.294   5.594  15.962  0.00  0.00    +0.000 NA
ATOM     12  C   UNL     1       6.884   4.829  16.905  0.00  0.00    +0.000 C 
ATOM     13  N   UNL     1       7.692   4.317  17.862  0.00  0.00    +0.000 N 
ATOM     14  H   UNL     1       8.290   5.777  16.091  0.00  0.00    +0.000 HD
ATOM     15  H   UNL     1       8.659   4.174  17.597  0.00  0.00    +0.000 HD
ATOM     16  H   UNL     1       7.290   3.524  18.349  0.00  0.00    +0.000 HD
ENDBRANCH  10  12
ENDBRANCH   1  10
TORSDOF 3
ENDMDL
MODEL 2
REMARK VINA RESULT:      -6.0      2.028      2.517
REMARK  Name = 
REMARK  3 active torsions:
REMARK  status: ('A' for Active; 'I' for Inactive)
REMARK    1  A    between atoms: C_2  and  S_4
REMARK    2  A    between atoms: S_4  and  C_5
REMARK    3  A    between atoms: C_5  and  C_6
REMARK                            x       y       z     vdW  Elec       q    Type
REMARK                         _______ _______ _______ _____ _____    ______ ____
ROOT
ATOM      1  C   UNL     1       5.333   4.563  18.931  0.00  0.00    +0.000 C 
ENDROOT
BRANCH   1   2
ATOM      2  C   UNL     1       3.958   4.258  19.473  0.00  0.00    +0.000 A 
ATOM      3  C   UNL     1       3.705   2.997  20.026  0.00  0.00    +0.000 A 
ATOM      4  F   UNL     1       4.672   2.067  20.043  0.00  0.00    +0.000 F 
ATOM      5  C   UNL     1       2.463   2.655  20.557  0.00  0.00    +0.000 A 
ATOM      6  C   UNL     1       1.431   3.588  20.554  0.00  0.00    +0.000 A 
ATOM      7  C   UNL     1       1.648   4.846  19.997  0.00  0.00    +0.000 A 
ATOM      8  C   UNL     1       2.896   5.177  19.450  0.00  0.00    +0.000 A 
ATOM      9 CL   UNL     1       3.050   6.743  18.732  0.00  0.00    +0.000 Cl
ENDBRANCH   1   2
BRANCH   1  10
ATOM     10  S   UNL     1       5.419   4.368  17.123  0.00  0.00    +0.000 S 
BRANCH  10  12
ATOM     11  N   UNL     1       8.012   4.143  17.579  0.00  0.00    +0.000 NA
ATOM     12  C   UNL     1       7.104   4.682  16.852  0.00  0.00    +0.000 C 
ATOM     13  N   UNL     1       7.364   5.554  15.851  0.00  0.00    +0.000 N 
ATOM     14  H   UNL     1       8.928   4.442  17.244  0.00  0.00    +0.000 HD
ATOM     15  H   UNL     1       8.204   6.109  15.952  0.00  0.00    +0.000 HD
ATOM     16  H   UNL     1       6.556   6.099  15.570  0.00  0.00    +0.000 HD
ENDBRANCH  10  12
ENDBRANCH   1  10
TORSDOF 3
ENDMDL
MODEL 3
REMARK VINA RESULT:      -6.0      1.714      1.868
REMARK  Name = 
REMARK  3 active torsions:
REMARK  status: ('A' for Active; 'I' for Inactive)
REMARK    1  A    between atoms: C_2  and  S_4
REMARK    2  A    between atoms: S_4  and  C_5
REMARK    3  A    between atoms: C_5  and  C_6
REMARK                            x       y       z     vdW  Elec       q    Type
REMARK                         _______ _______ _______ _____ _____    ______ ____
ROOT
ATOM      1  C   UNL     1       3.851   3.226  17.735  0.00  0.00    +0.000 C 
ENDROOT
BRANCH   1   2
ATOM      2  C   UNL     1       2.989   3.235  18.975  0.00  0.00    +0.000 A 
ATOM      3  C   UNL     1       1.741   3.868  18.935  0.00  0.00    +0.000 A 
ATOM      4  F   UNL     1       1.336   4.482  17.813  0.00  0.00    +0.000 F 
ATOM      5  C   UNL     1       0.890   3.900  20.039  0.00  0.00    +0.000 A 
ATOM      6  C   UNL     1       1.275   3.282  21.224  0.00  0.00    +0.000 A 
ATOM      7  C   UNL     1       2.517   2.656  21.298  0.00  0.00    +0.000 A 
ATOM      8  C   UNL     1       3.374   2.643  20.188  0.00  0.00    +0.000 A 
ATOM      9 CL   UNL     1       4.918   1.892  20.396  0.00  0.00    +0.000 Cl
ENDBRANCH   1   2
BRANCH   1  10
ATOM     10  S   UNL     1       4.565   4.863  17.382  0.00  0.00    +0.000 S 
BRANCH  10  12
ATOM     11  N   UNL     1       7.129   4.228  17.293  0.00  0.00    +0.000 NA
ATOM     12  C   UNL     1       6.165   4.653  18.024  0.00  0.00    +0.000 C 
ATOM     13  N   UNL     1       6.289   4.939  19.340  0.00  0.00    +0.000 N 
ATOM     14  H   UNL     1       7.981   4.195  17.854  0.00  0.00    +0.000 HD
ATOM     15  H   UNL     1       6.997   4.418  19.842  0.00  0.00    +0.000 HD
ATOM     16  H   UNL     1       5.402   4.982  19.829  0.00  0.00    +0.000 HD
ENDBRANCH  10  12
ENDBRANCH   1  10
TORSDOF 3
ENDMDL
MODEL 4
REMARK VINA RESULT:      -6.0      1.939      2.106
REMARK  Name = 
REMARK  3 active torsions:
REMARK  status: ('A' for Active; 'I' for Inactive)
REMARK    1  A    between atoms: C_2  and  S_4
REMARK    2  A    between atoms: S_4  and  C_5
REMARK    3  A    between atoms: C_5  and  C_6
REMARK                            x       y       z     vdW  Elec       q    Type
REMARK                         _______ _______ _______ _____ _____    ______ ____
ROOT
ATOM      1  C   UNL     1       4.210   3.353  17.939  0.00  0.00    +0.000 C 
ENDROOT
BRANCH   1   2
ATOM      2  C   UNL     1       3.198   3.296  19.057  0.00  0.00    +0.000 A 
ATOM      3  C   UNL     1       3.563   2.725  20.283  0.00  0.00    +0.000 A 
ATOM      4  F   UNL     1       4.792   2.211  20.442  0.00  0.00    +0.000 F 
ATOM      5  C   UNL     1       2.682   2.654  21.360  0.00  0.00    +0.000 A 
ATOM      6  C   UNL     1       1.396   3.169  21.234  0.00  0.00    +0.000 A 
ATOM      7  C   UNL     1       0.999   3.730  20.023  0.00  0.00    +0.000 A 
ATOM      8  C   UNL     1       1.886   3.783  18.938  0.00  0.00    +0.000 A 
ATOM      9 CL   UNL     1       1.283   4.447  17.460  0.00  0.00    +0.000 Cl
ENDBRANCH   1   2
BRANCH   1  10
ATOM     10  S   UNL     1       4.812   5.044  17.641  0.00  0.00    +0.000 S 
BRANCH  10  12
ATOM     11  N   UNL     1       7.028   4.910  16.209  0.00  0.00    +0.000 NA
ATOM     12  C   UNL     1       6.497   4.735  17.362  0.00  0.00    +0.000 C 
ATOM     13  N   UNL     1       7.173   4.272  18.439  0.00  0.00    +0.000 N 
ATOM     14  H   UNL     1       8.024   4.691  16.265  0.00  0.00    +0.000 HD
ATOM     15  H   UNL     1       7.957   3.662  18.242  0.00  0.00    +0.000 HD
ATOM     16  H   UNL     1       6.570   3.923  19.175  0.00  0.00    +0.000 HD
ENDBRANCH  10  12
ENDBRANCH   1  10
TORSDOF 3
ENDMDL
MODEL 5
REMARK VINA RESULT:      -5.9      2.321      2.724
REMARK  Name = 
REMARK  3 active torsions:
REMARK  status: ('A' for Active; 'I' for Inactive)
REMARK    1  A    between atoms: C_2  and  S_4
REMARK    2  A    between atoms: S_4  and  C_5
REMARK    3  A    between atoms: C_5  and  C_6
REMARK                            x       y       z     vdW  Elec       q    Type
REMARK                         _______ _______ _______ _____ _____    ______ ____
ROOT
ATOM      1  C   UNL     1       4.076   5.005  17.808  0.00  0.00    +0.000 C 
ENDROOT
BRANCH   1   2
ATOM      2  C   UNL     1       3.018   4.391  18.693  0.00  0.00    +0.000 A 
ATOM      3  C   UNL     1       2.775   3.014  18.613  0.00  0.00    +0.000 A 
ATOM      4  F   UNL     1       3.460   2.263  17.738  0.00  0.00    +0.000 F 
ATOM      5  C   UNL     1       1.824   2.382  19.412  0.00  0.00    +0.000 A 
ATOM      6  C   UNL     1       1.087   3.126  20.328  0.00  0.00    +0.000 A 
ATOM      7  C   UNL     1       1.296   4.500  20.419  0.00  0.00    +0.000 A 
ATOM      8  C   UNL     1       2.244   5.132  19.601  0.00  0.00    +0.000 A 
ATOM      9 CL   UNL     1       2.391   6.848  19.748  0.00  0.00    +0.000 Cl
ENDBRANCH   1   2
BRANCH   1  10
ATOM     10  S   UNL     1       5.725   4.965  18.578  0.00  0.00    +0.000 S 
BRANCH  10  12
ATOM     11  N   UNL     1       7.938   4.270  17.314  0.00  0.00    +0.000 NA
ATOM     12  C   UNL     1       6.657   4.268  17.290  0.00  0.00    +0.000 C 
ATOM     13  N   UNL     1       5.925   3.766  16.269  0.00  0.00    +0.000 N 
ATOM     14  H   UNL     1       8.287   3.799  16.478  0.00  0.00    +0.000 HD
ATOM     15  H   UNL     1       6.361   3.793  15.355  0.00  0.00    +0.000 HD
ATOM     16  H   UNL     1       4.965   4.090  16.263  0.00  0.00    +0.000 HD
ENDBRANCH  10  12
ENDBRANCH   1  10
TORSDOF 3
ENDMDL
MODEL 6
REMARK VINA RESULT:      -5.9      1.135      1.294
REMARK  Name = 
REMARK  3 active torsions:
REMARK  status: ('A' for Active; 'I' for Inactive)
REMARK    1  A    between atoms: C_2  and  S_4
REMARK    2  A    between atoms: S_4  and  C_5
REMARK    3  A    between atoms: C_5  and  C_6
REMARK                            x       y       z     vdW  Elec       q    Type
REMARK                         _______ _______ _______ _____ _____    ______ ____
ROOT
ATOM      1  C   UNL     1       3.950   4.877  17.779  0.00  0.00    +0.000 C 
ENDROOT
BRANCH   1   2
ATOM      2  C   UNL     1       2.974   4.308  18.780  0.00  0.00    +0.000 A 
ATOM      3  C   UNL     1       2.294   5.178  19.642  0.00  0.00    +0.000 A 
ATOM      4  F   UNL     1       2.534   6.496  19.590  0.00  0.00    +0.000 F 
ATOM      5  C   UNL     1       1.370   4.719  20.580  0.00  0.00    +0.000 A 
ATOM      6  C   UNL     1       1.097   3.359  20.672  0.00  0.00    +0.000 A 
ATOM      7  C   UNL     1       1.769   2.468  19.837  0.00  0.00    +0.000 A 
ATOM      8  C   UNL     1       2.709   2.935  18.908  0.00  0.00    +0.000 A 
ATOM      9 CL   UNL     1       3.532   1.748  17.957  0.00  0.00    +0.000 Cl
ENDBRANCH   1   2
BRANCH   1  10
ATOM     10  S   UNL     1       5.552   5.290  18.536  0.00  0.00    +0.000 S 
BRANCH  10  12
ATOM     11  N   UNL     1       7.886   4.343  17.738  0.00  0.00    +0.000 NA
ATOM     12  C   UNL     1       6.627   4.397  17.505  0.00  0.00    +0.000 C 
ATOM     13  N   UNL     1       6.033   3.807  16.443  0.00  0.00    +0.000 N 
ATOM     14  H   UNL     1       8.330   3.756  17.030  0.00  0.00    +0.000 HD
ATOM     15  H   UNL     1       6.607   3.701  15.616  0.00  0.00    +0.000 HD
ATOM     16  H   UNL     1       5.108   4.172  16.243  0.00  0.00    +0.000 HD
ENDBRANCH  10  12
ENDBRANCH   1  10
TORSDOF 3
ENDMDL
MODEL 7
REMARK VINA RESULT:      -5.9      2.571      2.972
REMARK  Name = 
REMARK  3 active torsions:
REMARK  status: ('A' for Active; 'I' for Inactive)
REMARK    1  A    between atoms: C_2  and  S_4
REMARK    2  A    between atoms: S_4  and  C_5
REMARK    3  A    between atoms: C_5  and  C_6
REMARK                            x       y       z     vdW  Elec       q    Type
REMARK                         _______ _______ _______ _____ _____    ______ ____
ROOT
ATOM      1  C   UNL     1       3.208   5.697  17.709  0.00  0.00    +0.000 C 
ENDROOT
BRANCH   1   2
ATOM      2  C   UNL     1       2.339   4.727  18.472  0.00  0.00    +0.000 A 
ATOM      3  C   UNL     1       2.062   3.472  17.914  0.00  0.00    +0.000 A 
ATOM      4  F   UNL     1       2.545   3.156  16.703  0.00  0.00    +0.000 F 
ATOM      5  C   UNL     1       1.279   2.525  18.571  0.00  0.00    +0.000 A 
ATOM      6  C   UNL     1       0.753   2.815  19.826  0.00  0.00    +0.000 A 
ATOM      7  C   UNL     1       0.999   4.060  20.400  0.00  0.00    +0.000 A 
ATOM      8  C   UNL     1       1.775   5.014  19.725  0.00  0.00    +0.000 A 
ATOM      9 CL   UNL     1       1.977   6.550  20.494  0.00  0.00    +0.000 Cl
ENDBRANCH   1   2
BRANCH   1  10
ATOM     10  S   UNL     1       4.887   5.808  18.403  0.00  0.00    +0.000 S 
BRANCH  10  12
ATOM     11  N   UNL     1       5.770   3.837  16.882  0.00  0.00    +0.000 NA
ATOM     12  C   UNL     1       5.472   4.208  18.072  0.00  0.00    +0.000 C 
ATOM     13  N   UNL     1       5.550   3.398  19.153  0.00  0.00    +0.000 N 
ATOM     14  H   UNL     1       6.109   2.874  16.909  0.00  0.00    +0.000 HD
ATOM     15  H   UNL     1       5.419   2.410  18.978  0.00  0.00    +0.000 HD
ATOM     16  H   UNL     1       5.021   3.736  19.949  0.00  0.00    +0.000 HD
ENDBRANCH  10  12
ENDBRANCH   1  10
TORSDOF 3
ENDMDL
MODEL 8
REMARK VINA RESULT:      -5.9      0.869      1.238
REMARK  Name = 
REMARK  3 active torsions:
REMARK  status: ('A' for Active; 'I' for Inactive)
REMARK    1  A    between atoms: C_2  and  S_4
REMARK    2  A    between atoms: S_4  and  C_5
REMARK    3  A    between atoms: C_5  and  C_6
REMARK                            x       y       z     vdW  Elec       q    Type
REMARK                         _______ _______ _______ _____ _____    ______ ____
ROOT
ATOM      1  C   UNL     1       5.236   4.840  19.107  0.00  0.00    +0.000 C 
ENDROOT
BRANCH   1   2
ATOM      2  C   UNL     1       3.868   4.476  19.631  0.00  0.00    +0.000 A 
ATOM      3  C   UNL     1       2.902   5.480  19.776  0.00  0.00    +0.000 A 
ATOM      4  F   UNL     1       3.208   6.752  19.478  0.00  0.00    +0.000 F 
ATOM      5  C   UNL     1       1.616   5.210  20.240  0.00  0.00    +0.000 A 
ATOM      6  C   UNL     1       1.260   3.906  20.567  0.00  0.00    +0.000 A 
ATOM      7  C   UNL     1       2.204   2.888  20.446  0.00  0.00    +0.000 A 
ATOM      8  C   UNL     1       3.501   3.171  19.995  0.00  0.00    +0.000 A 
ATOM      9 CL   UNL     1       4.617   1.851  19.932  0.00  0.00    +0.000 Cl
ENDBRANCH   1   2
BRANCH   1  10
ATOM     10  S   UNL     1       5.391   4.538  17.319  0.00  0.00    +0.000 S 
BRANCH  10  12
ATOM     11  N   UNL     1       7.987   4.164  17.637  0.00  0.00    +0.000 NA
ATOM     12  C   UNL     1       7.077   4.879  17.087  0.00  0.00    +0.000 C 
ATOM     13  N   UNL     1       7.335   5.962  16.319  0.00  0.00    +0.000 N 
ATOM     14  H   UNL     1       8.903   4.519  17.360  0.00  0.00    +0.000 HD
ATOM     15  H   UNL     1       8.191   6.462  16.528  0.00  0.00    +0.000 HD
ATOM     16  H   UNL     1       6.535   6.573  16.200  0.00  0.00    +0.000 HD
ENDBRANCH  10  12
ENDBRANCH   1  10
TORSDOF 3
ENDMDL
MODEL 9
REMARK VINA RESULT:      -5.8      2.528      2.857
REMARK  Name = 
REMARK  3 active torsions:
REMARK  status: ('A' for Active; 'I' for Inactive)
REMARK    1  A    between atoms: C_2  and  S_4
REMARK    2  A    between atoms: S_4  and  C_5
REMARK    3  A    between atoms: C_5  and  C_6
REMARK                            x       y       z     vdW  Elec       q    Type
REMARK                         _______ _______ _______ _____ _____    ______ ____
ROOT
ATOM      1  C   UNL     1       4.608   6.058  17.600  0.00  0.00    +0.000 C 
ENDROOT
BRANCH   1   2
ATOM      2  C   UNL     1       3.515   5.058  17.892  0.00  0.00    +0.000 A 
ATOM      3  C   UNL     1       3.502   3.839  17.203  0.00  0.00    +0.000 A 
ATOM      4  F   UNL     1       4.437   3.584  16.275  0.00  0.00    +0.000 F 
ATOM      5  C   UNL     1       2.531   2.866  17.435  0.00  0.00    +0.000 A 
ATOM      6  C   UNL     1       1.540   3.094  18.384  0.00  0.00    +0.000 A 
ATOM      7  C   UNL     1       1.519   4.303  19.075  0.00  0.00    +0.000 A 
ATOM      8  C   UNL     1       2.489   5.283  18.824  0.00  0.00    +0.000 A 
ATOM      9 CL   UNL     1       2.346   6.773  19.691  0.00  0.00    +0.000 Cl
ENDBRANCH   1   2
BRANCH   1  10
ATOM     10  S   UNL     1       6.140   5.688  18.510  0.00  0.00    +0.000 S 
BRANCH  10  12
ATOM     11  N   UNL     1       7.405   6.387  16.298  0.00  0.00    +0.000 NA
ATOM     12  C   UNL     1       7.248   5.480  17.190  0.00  0.00    +0.000 C 
ATOM     13  N   UNL     1       7.888   4.288  17.170  0.00  0.00    +0.000 N 
ATOM     14  H   UNL     1       8.109   6.076  15.627  0.00  0.00    +0.000 HD
ATOM     15  H   UNL     1       8.144   3.937  16.256  0.00  0.00    +0.000 HD
ATOM     16  H   UNL     1       7.455   3.588  17.761  0.00  0.00    +0.000 HD
ENDBRANCH  10  12
ENDBRANCH   1  10
TORSDOF 3
ENDMDL
