MODEL 1
REMARK VINA RESULT:      -7.6      0.000      0.000
REMARK  Name = 
REMARK  8 active torsions:
REMARK  status: ('A' for Active; 'I' for Inactive)
REMARK    1  A    between atoms: C_1  and  O_2
REMARK    2  A    between atoms: O_2  and  C_3
REMARK    3  A    between atoms: C_4  and  C_5
REMARK    4  A    between atoms: C_5  and  C_7
REMARK    5  A    between atoms: C_7  and  C_8
REMARK    6  A    between atoms: C_8  and  C_9
REMARK    7  A    between atoms: N_12  and  C_13
REMARK    8  A    between atoms: C_13  and  C_14
REMARK                            x       y       z     vdW  Elec       q    Type
REMARK                         _______ _______ _______ _____ _____    ______ ____
ROOT
ATOM      1  C   UNL     1       2.546   3.327  17.669  0.00  0.00    +0.000 C 
ATOM      2  O   UNL     1       2.236   2.220  17.234  0.00  0.00    +0.000 OA
ENDROOT
BRANCH   1   4
ATOM      3  C   UNL     1       4.763   4.042  18.740  0.00  0.00    +0.000 A 
ATOM      4  C   UNL     1       3.965   3.832  17.591  0.00  0.00    +0.000 A 
ATOM      5  C   UNL     1       4.466   4.155  16.317  0.00  0.00    +0.000 A 
ATOM      6  C   UNL     1       5.709   4.760  16.153  0.00  0.00    +0.000 A 
ATOM      7 CL   UNL     1       6.259   5.204  14.592  0.00  0.00    +0.000 Cl
ATOM      8  C   UNL     1       6.450   5.046  17.300  0.00  0.00    +0.000 A 
ATOM      9  N   UNL     1       7.660   5.690  17.411  0.00  0.00    +0.000 N 
ATOM     10  C   UNL     1       8.011   5.810  18.724  0.00  0.00    +0.000 A 
ATOM     11  C   UNL     1       7.019   5.223  19.472  0.00  0.00    +0.000 A 
ATOM     12  C   UNL     1       6.018   4.710  18.587  0.00  0.00    +0.000 A 
ATOM     13  H   UNL     1       8.190   6.048  16.625  0.00  0.00    +0.000 HD
BRANCH   3  15
ATOM     14  C   UNL     1       4.345   2.381  20.365  0.00  0.00    +0.000 C 
ATOM     15  O   UNL     1       4.217   3.749  19.976  0.00  0.00    +0.000 OA
ENDBRANCH   3  15
ENDBRANCH   1   4
BRANCH   1  16
ATOM     16  C   UNL     1       1.533   4.294  18.292  0.00  0.00    +0.000 C 
BRANCH  16  17
ATOM     17  C   UNL     1       1.515   5.736  17.778  0.00  0.00    +0.000 C 
BRANCH  17  18
ATOM     18  C   UNL     1       2.667   6.569  18.422  0.00  0.00    +0.000 C 
ATOM     19  C   UNL     1       2.515   6.738  19.940  0.00  0.00    +0.000 C 
ATOM     20  C   UNL     1       1.385   7.699  20.324  0.00  0.00    +0.000 C 
ATOM     21  N   UNL     1       1.379   8.973  19.591  0.00  0.00    +0.000 NA
ATOM     22  C   UNL     1       1.601   8.848  18.151  0.00  0.00    +0.000 C 
ATOM     23  C   UNL     1       2.822   7.983  17.840  0.00  0.00    +0.000 C 
BRANCH  21  24
ATOM     24  C   UNL     1       0.200   9.806  19.904  0.00  0.00    +0.000 C 
BRANCH  24  25
ATOM     25  C   UNL     1       0.285  11.278  19.532  0.00  0.00    +0.000 A 
ATOM     26  C   UNL     1      -0.636  11.836  18.629  0.00  0.00    +0.000 A 
ATOM     27  C   UNL     1      -0.542  13.174  18.247  0.00  0.00    +0.000 A 
ATOM     28  C   UNL     1       0.459  13.981  18.777  0.00  0.00    +0.000 A 
ATOM     29  C   UNL     1       1.374  13.449  19.683  0.00  0.00    +0.000 A 
ATOM     30  C   UNL     1       1.289  12.103  20.058  0.00  0.00    +0.000 A 
ENDBRANCH  24  25
ENDBRANCH  21  24
ENDBRANCH  17  18
ENDBRANCH  16  17
ENDBRANCH   1  16
TORSDOF 7
ENDMDL
MODEL 2
REMARK VINA RESULT:      -7.4      3.442      8.410
REMARK  Name = 
REMARK  8 active torsions:
REMARK  status: ('A' for Active; 'I' for Inactive)
REMARK    1  A    between atoms: C_1  and  O_2
REMARK    2  A    between atoms: O_2  and  C_3
REMARK    3  A    between atoms: C_4  and  C_5
REMARK    4  A    between atoms: C_5  and  C_7
REMARK    5  A    between atoms: C_7  and  C_8
REMARK    6  A    between atoms: C_8  and  C_9
REMARK    7  A    between atoms: N_12  and  C_13
REMARK    8  A    between atoms: C_13  and  C_14
REMARK                            x       y       z     vdW  Elec       q    Type
REMARK                         _______ _______ _______ _____ _____    ______ ____
ROOT
ATOM      1  C   UNL     1       1.557   9.493  18.150  0.00  0.00    +0.000 C 
ATOM      2  O   UNL     1       2.517  10.002  17.576  0.00  0.00    +0.000 OA
ENDROOT
BRANCH   1   4
ATOM      3  C   UNL     1      -0.042  11.150  19.275  0.00  0.00    +0.000 A 
ATOM      4  C   UNL     1       0.235  10.211  18.255  0.00  0.00    +0.000 A 
ATOM      5  C   UNL     1      -0.762   9.867  17.324  0.00  0.00    +0.000 A 
ATOM      6  C   UNL     1      -2.058  10.367  17.425  0.00  0.00    +0.000 A 
ATOM      7 CL   UNL     1      -3.266   9.873  16.315  0.00  0.00    +0.000 Cl
ATOM      8  C   UNL     1      -2.345  11.223  18.489  0.00  0.00    +0.000 A 
ATOM      9  N   UNL     1      -3.546  11.790  18.843  0.00  0.00    +0.000 N 
ATOM     10  C   UNL     1      -3.402  12.524  19.984  0.00  0.00    +0.000 A 
ATOM     11  C   UNL     1      -2.085  12.439  20.366  0.00  0.00    +0.000 A 
ATOM     12  C   UNL     1      -1.382  11.628  19.418  0.00  0.00    +0.000 A 
ATOM     13  H   UNL     1      -4.414  11.651  18.338  0.00  0.00    +0.000 HD
BRANCH   3  15
ATOM     14  C   UNL     1       0.838  10.710  21.422  0.00  0.00    +0.000 C 
ATOM     15  O   UNL     1       0.954  11.429  20.194  0.00  0.00    +0.000 OA
ENDBRANCH   3  15
ENDBRANCH   1   4
BRANCH   1  16
ATOM     16  C   UNL     1       1.602   8.094  18.773  0.00  0.00    +0.000 C 
BRANCH  16  17
ATOM     17  C   UNL     1       2.063   6.933  17.888  0.00  0.00    +0.000 C 
BRANCH  17  18
ATOM     18  C   UNL     1       1.897   5.570  18.628  0.00  0.00    +0.000 C 
ATOM     19  C   UNL     1       2.776   5.453  19.882  0.00  0.00    +0.000 C 
ATOM     20  C   UNL     1       4.263   5.280  19.555  0.00  0.00    +0.000 C 
ATOM     21  N   UNL     1       4.560   4.264  18.537  0.00  0.00    +0.000 NA
ATOM     22  C   UNL     1       3.686   4.303  17.365  0.00  0.00    +0.000 C 
ATOM     23  C   UNL     1       2.210   4.340  17.761  0.00  0.00    +0.000 C 
BRANCH  21  24
ATOM     24  C   UNL     1       5.990   4.227  18.166  0.00  0.00    +0.000 C 
BRANCH  24  25
ATOM     25  C   UNL     1       6.705   5.565  18.071  0.00  0.00    +0.000 A 
ATOM     26  C   UNL     1       7.735   5.885  18.972  0.00  0.00    +0.000 A 
ATOM     27  C   UNL     1       8.370   7.126  18.921  0.00  0.00    +0.000 A 
ATOM     28  C   UNL     1       8.002   8.058  17.955  0.00  0.00    +0.000 A 
ATOM     29  C   UNL     1       6.992   7.753  17.046  0.00  0.00    +0.000 A 
ATOM     30  C   UNL     1       6.345   6.514  17.104  0.00  0.00    +0.000 A 
ENDBRANCH  24  25
ENDBRANCH  21  24
ENDBRANCH  17  18
ENDBRANCH  16  17
ENDBRANCH   1  16
TORSDOF 7
ENDMDL
MODEL 3
REMARK VINA RESULT:      -7.3      3.168      7.960
REMARK  Name = 
REMARK  8 active torsions:
REMARK  status: ('A' for Active; 'I' for Inactive)
REMARK    1  A    between atoms: C_1  and  O_2
REMARK    2  A    between atoms: O_2  and  C_3
REMARK    3  A    between atoms: C_4  and  C_5
REMARK    4  A    between atoms: C_5  and  C_7
REMARK    5  A    between atoms: C_7  and  C_8
REMARK    6  A    between atoms: C_8  and  C_9
REMARK    7  A    between atoms: N_12  and  C_13
REMARK    8  A    between atoms: C_13  and  C_14
REMARK                            x       y       z     vdW  Elec       q    Type
REMARK                         _______ _______ _______ _____ _____    ______ ____
ROOT
ATOM      1  C   UNL     1       2.027   7.213  19.881  0.00  0.00    +0.000 C 
ATOM      2  O   UNL     1       2.931   7.328  19.056  0.00  0.00    +0.000 OA
ENDROOT
BRANCH   1   4
ATOM      3  C   UNL     1       0.908   9.490  19.513  0.00  0.00    +0.000 A 
ATOM      4  C   UNL     1       1.249   8.412  20.363  0.00  0.00    +0.000 A 
ATOM      5  C   UNL     1       0.916   8.459  21.729  0.00  0.00    +0.000 A 
ATOM      6  C   UNL     1       0.325   9.585  22.297  0.00  0.00    +0.000 A 
ATOM      7 CL   UNL     1      -0.003   9.636  23.978  0.00  0.00    +0.000 Cl
ATOM      8  C   UNL     1       0.076  10.679  21.467  0.00  0.00    +0.000 A 
ATOM      9  N   UNL     1      -0.431  11.915  21.793  0.00  0.00    +0.000 N 
ATOM     10  C   UNL     1      -0.467  12.715  20.689  0.00  0.00    +0.000 A 
ATOM     11  C   UNL     1       0.013  11.981  19.631  0.00  0.00    +0.000 A 
ATOM     12  C   UNL     1       0.350  10.670  20.096  0.00  0.00    +0.000 A 
ATOM     13  H   UNL     1      -0.706  12.190  22.729  0.00  0.00    +0.000 HD
BRANCH   3  15
ATOM     14  C   UNL     1       2.263  10.393  17.803  0.00  0.00    +0.000 C 
ATOM     15  O   UNL     1       1.290   9.420  18.185  0.00  0.00    +0.000 OA
ENDBRANCH   3  15
ENDBRANCH   1   4
BRANCH   1  16
ATOM     16  C   UNL     1       1.593   5.865  20.464  0.00  0.00    +0.000 C 
BRANCH  16  17
ATOM     17  C   UNL     1       2.639   4.749  20.537  0.00  0.00    +0.000 C 
BRANCH  17  18
ATOM     18  C   UNL     1       2.141   3.471  19.794  0.00  0.00    +0.000 C 
ATOM     19  C   UNL     1       3.239   2.414  19.607  0.00  0.00    +0.000 C 
ATOM     20  C   UNL     1       4.282   2.815  18.560  0.00  0.00    +0.000 C 
ATOM     21  N   UNL     1       3.729   3.312  17.293  0.00  0.00    +0.000 NA
ATOM     22  C   UNL     1       2.628   4.263  17.441  0.00  0.00    +0.000 C 
ATOM     23  C   UNL     1       1.557   3.742  18.398  0.00  0.00    +0.000 C 
BRANCH  21  24
ATOM     24  C   UNL     1       4.772   3.804  16.369  0.00  0.00    +0.000 C 
BRANCH  24  25
ATOM     25  C   UNL     1       5.718   4.864  16.909  0.00  0.00    +0.000 A 
ATOM     26  C   UNL     1       6.858   4.491  17.642  0.00  0.00    +0.000 A 
ATOM     27  C   UNL     1       7.711   5.456  18.178  0.00  0.00    +0.000 A 
ATOM     28  C   UNL     1       7.451   6.807  17.972  0.00  0.00    +0.000 A 
ATOM     29  C   UNL     1       6.333   7.196  17.237  0.00  0.00    +0.000 A 
ATOM     30  C   UNL     1       5.469   6.229  16.709  0.00  0.00    +0.000 A 
ENDBRANCH  24  25
ENDBRANCH  21  24
ENDBRANCH  17  18
ENDBRANCH  16  17
ENDBRANCH   1  16
TORSDOF 7
ENDMDL
MODEL 4
REMARK VINA RESULT:      -7.3      3.267      6.754
REMARK  Name = 
REMARK  8 active torsions:
REMARK  status: ('A' for Active; 'I' for Inactive)
REMARK    1  A    between atoms: C_1  and  O_2
REMARK    2  A    between atoms: O_2  and  C_3
REMARK    3  A    between atoms: C_4  and  C_5
REMARK    4  A    between atoms: C_5  and  C_7
REMARK    5  A    between atoms: C_7  and  C_8
REMARK    6  A    between atoms: C_8  and  C_9
REMARK    7  A    between atoms: N_12  and  C_13
REMARK    8  A    between atoms: C_13  and  C_14
REMARK                            x       y       z     vdW  Elec       q    Type
REMARK                         _______ _______ _______ _____ _____    ______ ____
ROOT
ATOM      1  C   UNL     1       3.504   5.013  18.121  0.00  0.00    +0.000 C 
ATOM      2  O   UNL     1       2.987   4.502  17.130  0.00  0.00    +0.000 OA
ENDROOT
BRANCH   1   4
ATOM      3  C   UNL     1       2.316   6.203  20.056  0.00  0.00    +0.000 A 
ATOM      4  C   UNL     1       2.909   6.236  18.772  0.00  0.00    +0.000 A 
ATOM      5  C   UNL     1       2.904   7.428  18.025  0.00  0.00    +0.000 A 
ATOM      6  C   UNL     1       2.252   8.572  18.479  0.00  0.00    +0.000 A 
ATOM      7 CL   UNL     1       2.206   9.985  17.512  0.00  0.00    +0.000 Cl
ATOM      8  C   UNL     1       1.593   8.501  19.707  0.00  0.00    +0.000 A 
ATOM      9  N   UNL     1       0.832   9.457  20.337  0.00  0.00    +0.000 N 
ATOM     10  C   UNL     1       0.322   8.962  21.502  0.00  0.00    +0.000 A 
ATOM     11  C   UNL     1       0.771   7.670  21.632  0.00  0.00    +0.000 A 
ATOM     12  C   UNL     1       1.600   7.355  20.508  0.00  0.00    +0.000 A 
ATOM     13  H   UNL     1       0.657  10.383  19.964  0.00  0.00    +0.000 HD
BRANCH   3  15
ATOM     14  C   UNL     1       1.126   4.222  20.544  0.00  0.00    +0.000 C 
ATOM     15  O   UNL     1       2.307   5.000  20.740  0.00  0.00    +0.000 OA
ENDBRANCH   3  15
ENDBRANCH   1   4
BRANCH   1  16
ATOM     16  C   UNL     1       4.759   4.449  18.795  0.00  0.00    +0.000 C 
BRANCH  16  17
ATOM     17  C   UNL     1       5.828   5.442  19.257  0.00  0.00    +0.000 C 
BRANCH  17  18
ATOM     18  C   UNL     1       7.131   5.288  18.413  0.00  0.00    +0.000 C 
ATOM     19  C   UNL     1       8.364   5.908  19.086  0.00  0.00    +0.000 C 
ATOM     20  C   UNL     1       8.343   7.440  19.076  0.00  0.00    +0.000 C 
ATOM     21  N   UNL     1       8.019   8.047  17.778  0.00  0.00    +0.000 NA
ATOM     22  C   UNL     1       6.897   7.425  17.077  0.00  0.00    +0.000 C 
ATOM     23  C   UNL     1       7.046   5.906  17.007  0.00  0.00    +0.000 C 
BRANCH  21  24
ATOM     24  C   UNL     1       7.887   9.517  17.852  0.00  0.00    +0.000 C 
BRANCH  24  25
ATOM     25  C   UNL     1       9.047  10.278  18.474  0.00  0.00    +0.000 A 
ATOM     26  C   UNL     1       9.129  10.429  19.869  0.00  0.00    +0.000 A 
ATOM     27  C   UNL     1      10.166  11.161  20.449  0.00  0.00    +0.000 A 
ATOM     28  C   UNL     1      11.148  11.733  19.646  0.00  0.00    +0.000 A 
ATOM     29  C   UNL     1      11.090  11.583  18.263  0.00  0.00    +0.000 A 
ATOM     30  C   UNL     1      10.043  10.860  17.679  0.00  0.00    +0.000 A 
ENDBRANCH  24  25
ENDBRANCH  21  24
ENDBRANCH  17  18
ENDBRANCH  16  17
ENDBRANCH   1  16
TORSDOF 7
ENDMDL
MODEL 5
REMARK VINA RESULT:      -7.2      1.568      2.428
REMARK  Name = 
REMARK  8 active torsions:
REMARK  status: ('A' for Active; 'I' for Inactive)
REMARK    1  A    between atoms: C_1  and  O_2
REMARK    2  A    between atoms: O_2  and  C_3
REMARK    3  A    between atoms: C_4  and  C_5
REMARK    4  A    between atoms: C_5  and  C_7
REMARK    5  A    between atoms: C_7  and  C_8
REMARK    6  A    between atoms: C_8  and  C_9
REMARK    7  A    between atoms: N_12  and  C_13
REMARK    8  A    between atoms: C_13  and  C_14
REMARK                            x       y       z     vdW  Elec       q    Type
REMARK                         _______ _______ _______ _____ _____    ______ ____
ROOT
ATOM      1  C   UNL     1       3.076   4.139  19.868  0.00  0.00    +0.000 C 
ATOM      2  O   UNL     1       3.187   3.173  20.619  0.00  0.00    +0.000 OA
ENDROOT
BRANCH   1   4
ATOM      3  C   UNL     1       4.028   4.131  17.488  0.00  0.00    +0.000 A 
ATOM      4  C   UNL     1       4.143   4.473  18.856  0.00  0.00    +0.000 A 
ATOM      5  C   UNL     1       5.311   5.094  19.331  0.00  0.00    +0.000 A 
ATOM      6  C   UNL     1       6.410   5.313  18.504  0.00  0.00    +0.000 A 
ATOM      7 CL   UNL     1       7.844   6.009  19.132  0.00  0.00    +0.000 Cl
ATOM      8  C   UNL     1       6.321   4.890  17.177  0.00  0.00    +0.000 A 
ATOM      9  N   UNL     1       7.276   4.930  16.190  0.00  0.00    +0.000 N 
ATOM     10  C   UNL     1       6.795   4.364  15.045  0.00  0.00    +0.000 A 
ATOM     11  C   UNL     1       5.504   3.964  15.293  0.00  0.00    +0.000 A 
ATOM     12  C   UNL     1       5.169   4.304  16.643  0.00  0.00    +0.000 A 
ATOM     13  H   UNL     1       8.211   5.301  16.315  0.00  0.00    +0.000 HD
BRANCH   3  15
ATOM     14  C   UNL     1       2.843   2.092  17.381  0.00  0.00    +0.000 C 
ATOM     15  O   UNL     1       2.879   3.485  17.070  0.00  0.00    +0.000 OA
ENDBRANCH   3  15
ENDBRANCH   1   4
BRANCH   1  16
ATOM     16  C   UNL     1       1.851   5.059  19.866  0.00  0.00    +0.000 C 
BRANCH  16  17
ATOM     17  C   UNL     1       1.768   6.134  18.779  0.00  0.00    +0.000 C 
BRANCH  17  18
ATOM     18  C   UNL     1       2.602   7.392  19.177  0.00  0.00    +0.000 C 
ATOM     19  C   UNL     1       2.039   8.126  20.402  0.00  0.00    +0.000 C 
ATOM     20  C   UNL     1       0.740   8.881  20.102  0.00  0.00    +0.000 C 
ATOM     21  N   UNL     1       0.770   9.708  18.889  0.00  0.00    +0.000 NA
ATOM     22  C   UNL     1       1.373   9.060  17.724  0.00  0.00    +0.000 C 
ATOM     23  C   UNL     1       2.729   8.441  18.061  0.00  0.00    +0.000 C 
BRANCH  21  24
ATOM     24  C   UNL     1      -0.542  10.310  18.576  0.00  0.00    +0.000 C 
BRANCH  24  25
ATOM     25  C   UNL     1      -0.789  11.718  19.095  0.00  0.00    +0.000 A 
ATOM     26  C   UNL     1      -1.745  11.946  20.099  0.00  0.00    +0.000 A 
ATOM     27  C   UNL     1      -2.011  13.238  20.553  0.00  0.00    +0.000 A 
ATOM     28  C   UNL     1      -1.310  14.319  20.027  0.00  0.00    +0.000 A 
ATOM     29  C   UNL     1      -0.350  14.111  19.040  0.00  0.00    +0.000 A 
ATOM     30  C   UNL     1      -0.092  12.817  18.574  0.00  0.00    +0.000 A 
ENDBRANCH  24  25
ENDBRANCH  21  24
ENDBRANCH  17  18
ENDBRANCH  16  17
ENDBRANCH   1  16
TORSDOF 7
ENDMDL
MODEL 6
REMARK VINA RESULT:      -7.1      2.965      4.779
REMARK  Name = 
REMARK  8 active torsions:
REMARK  status: ('A' for Active; 'I' for Inactive)
REMARK    1  A    between atoms: C_1  and  O_2
REMARK    2  A    between atoms: O_2  and  C_3
REMARK    3  A    between atoms: C_4  and  C_5
REMARK    4  A    between atoms: C_5  and  C_7
REMARK    5  A    between atoms: C_7  and  C_8
REMARK    6  A    between atoms: C_8  and  C_9
REMARK    7  A    between atoms: N_12  and  C_13
REMARK    8  A    between atoms: C_13  and  C_14
REMARK                            x       y       z     vdW  Elec       q    Type
REMARK                         _______ _______ _______ _____ _____    ______ ____
ROOT
ATOM      1  C   UNL     1       1.963   7.490  19.760  0.00  0.00    +0.000 C 
ATOM      2  O   UNL     1       2.293   8.289  18.886  0.00  0.00    +0.000 OA
ENDROOT
BRANCH   1   4
ATOM      3  C   UNL     1       3.057   5.496  18.576  0.00  0.00    +0.000 A 
ATOM      4  C   UNL     1       2.322   6.028  19.661  0.00  0.00    +0.000 A 
ATOM      5  C   UNL     1       1.841   5.176  20.672  0.00  0.00    +0.000 A 
ATOM      6  C   UNL     1       1.996   3.794  20.596  0.00  0.00    +0.000 A 
ATOM      7 CL   UNL     1       1.336   2.780  21.810  0.00  0.00    +0.000 Cl
ATOM      8  C   UNL     1       2.643   3.272  19.476  0.00  0.00    +0.000 A 
ATOM      9  N   UNL     1       2.862   1.958  19.137  0.00  0.00    +0.000 N 
ATOM     10  C   UNL     1       3.489   1.881  17.927  0.00  0.00    +0.000 A 
ATOM     11  C   UNL     1       3.690   3.166  17.484  0.00  0.00    +0.000 A 
ATOM     12  C   UNL     1       3.176   4.076  18.463  0.00  0.00    +0.000 A 
ATOM     13  H   UNL     1       2.566   1.167  19.698  0.00  0.00    +0.000 HD
BRANCH   3  15
ATOM     14  C   UNL     1       4.894   6.521  17.503  0.00  0.00    +0.000 C 
ATOM     15  O   UNL     1       3.477   6.364  17.584  0.00  0.00    +0.000 OA
ENDBRANCH   3  15
ENDBRANCH   1   4
BRANCH   1  16
ATOM     16  C   UNL     1       1.199   7.900  21.023  0.00  0.00    +0.000 C 
BRANCH  16  17
ATOM     17  C   UNL     1       1.214   9.380  21.416  0.00  0.00    +0.000 C 
BRANCH  17  18
ATOM     18  C   UNL     1      -0.186  10.029  21.187  0.00  0.00    +0.000 C 
ATOM     19  C   UNL     1      -0.609  10.050  19.711  0.00  0.00    +0.000 C 
ATOM     20  C   UNL     1       0.179  11.066  18.878  0.00  0.00    +0.000 C 
ATOM     21  N   UNL     1       0.288  12.404  19.473  0.00  0.00    +0.000 NA
ATOM     22  C   UNL     1       0.613  12.413  20.899  0.00  0.00    +0.000 C 
ATOM     23  C   UNL     1      -0.299  11.477  21.692  0.00  0.00    +0.000 C 
BRANCH  21  24
ATOM     24  C   UNL     1       1.162  13.306  18.696  0.00  0.00    +0.000 C 
BRANCH  24  25
ATOM     25  C   UNL     1       0.983  14.798  18.925  0.00  0.00    +0.000 A 
ATOM     26  C   UNL     1      -0.270  15.401  18.725  0.00  0.00    +0.000 A 
ATOM     27  C   UNL     1      -0.437  16.776  18.891  0.00  0.00    +0.000 A 
ATOM     28  C   UNL     1       0.639  17.566  19.283  0.00  0.00    +0.000 A 
ATOM     29  C   UNL     1       1.886  16.984  19.498  0.00  0.00    +0.000 A 
ATOM     30  C   UNL     1       2.059  15.607  19.319  0.00  0.00    +0.000 A 
ENDBRANCH  24  25
ENDBRANCH  21  24
ENDBRANCH  17  18
ENDBRANCH  16  17
ENDBRANCH   1  16
TORSDOF 7
ENDMDL
MODEL 7
REMARK VINA RESULT:      -7.1      3.548      8.778
REMARK  Name = 
REMARK  8 active torsions:
REMARK  status: ('A' for Active; 'I' for Inactive)
REMARK    1  A    between atoms: C_1  and  O_2
REMARK    2  A    between atoms: O_2  and  C_3
REMARK    3  A    between atoms: C_4  and  C_5
REMARK    4  A    between atoms: C_5  and  C_7
REMARK    5  A    between atoms: C_7  and  C_8
REMARK    6  A    between atoms: C_8  and  C_9
REMARK    7  A    between atoms: N_12  and  C_13
REMARK    8  A    between atoms: C_13  and  C_14
REMARK                            x       y       z     vdW  Elec       q    Type
REMARK                         _______ _______ _______ _____ _____    ______ ____
ROOT
ATOM      1  C   UNL     1       1.202   9.540  18.539  0.00  0.00    +0.000 C 
ATOM      2  O   UNL     1       1.968   9.646  17.583  0.00  0.00    +0.000 OA
ENDROOT
BRANCH   1   4
ATOM      3  C   UNL     1      -0.162  11.417  19.627  0.00  0.00    +0.000 A 
ATOM      4  C   UNL     1      -0.032  10.399  18.654  0.00  0.00    +0.000 A 
ATOM      5  C   UNL     1      -1.102  10.113  17.787  0.00  0.00    +0.000 A 
ATOM      6  C   UNL     1      -2.333  10.753  17.910  0.00  0.00    +0.000 A 
ATOM      7 CL   UNL     1      -3.636  10.329  16.881  0.00  0.00    +0.000 Cl
ATOM      8  C   UNL     1      -2.479  11.691  18.932  0.00  0.00    +0.000 A 
ATOM      9  N   UNL     1      -3.597  12.402  19.300  0.00  0.00    +0.000 N 
ATOM     10  C   UNL     1      -3.324  13.178  20.389  0.00  0.00    +0.000 A 
ATOM     11  C   UNL     1      -2.007  12.974  20.721  0.00  0.00    +0.000 A 
ATOM     12  C   UNL     1      -1.437  12.043  19.795  0.00  0.00    +0.000 A 
ATOM     13  H   UNL     1      -4.497  12.329  18.840  0.00  0.00    +0.000 HD
BRANCH   3  15
ATOM     14  C   UNL     1       1.677  12.794  20.172  0.00  0.00    +0.000 C 
ATOM     15  O   UNL     1       0.899  11.639  20.487  0.00  0.00    +0.000 OA
ENDBRANCH   3  15
ENDBRANCH   1   4
BRANCH   1  16
ATOM     16  C   UNL     1       1.407   8.522  19.665  0.00  0.00    +0.000 C 
BRANCH  16  17
ATOM     17  C   UNL     1       2.348   7.343  19.398  0.00  0.00    +0.000 C 
BRANCH  17  18
ATOM     18  C   UNL     1       1.580   5.988  19.490  0.00  0.00    +0.000 C 
ATOM     19  C   UNL     1       2.100   5.074  20.609  0.00  0.00    +0.000 C 
ATOM     20  C   UNL     1       3.470   4.464  20.294  0.00  0.00    +0.000 C 
ATOM     21  N   UNL     1       3.592   3.875  18.953  0.00  0.00    +0.000 NA
ATOM     22  C   UNL     1       3.034   4.690  17.876  0.00  0.00    +0.000 C 
ATOM     23  C   UNL     1       1.614   5.157  18.198  0.00  0.00    +0.000 C 
BRANCH  21  24
ATOM     24  C   UNL     1       4.965   3.417  18.654  0.00  0.00    +0.000 C 
BRANCH  24  25
ATOM     25  C   UNL     1       5.929   4.459  18.109  0.00  0.00    +0.000 A 
ATOM     26  C   UNL     1       6.563   5.363  18.979  0.00  0.00    +0.000 A 
ATOM     27  C   UNL     1       7.416   6.350  18.486  0.00  0.00    +0.000 A 
ATOM     28  C   UNL     1       7.667   6.436  17.120  0.00  0.00    +0.000 A 
ATOM     29  C   UNL     1       7.057   5.541  16.244  0.00  0.00    +0.000 A 
ATOM     30  C   UNL     1       6.190   4.558  16.735  0.00  0.00    +0.000 A 
ENDBRANCH  24  25
ENDBRANCH  21  24
ENDBRANCH  17  18
ENDBRANCH  16  17
ENDBRANCH   1  16
TORSDOF 7
ENDMDL
MODEL 8
REMARK VINA RESULT:      -7.1      3.220      4.465
REMARK  Name = 
REMARK  8 active torsions:
REMARK  status: ('A' for Active; 'I' for Inactive)
REMARK    1  A    between atoms: C_1  and  O_2
REMARK    2  A    between atoms: O_2  and  C_3
REMARK    3  A    between atoms: C_4  and  C_5
REMARK    4  A    between atoms: C_5  and  C_7
REMARK    5  A    between atoms: C_7  and  C_8
REMARK    6  A    between atoms: C_8  and  C_9
REMARK    7  A    between atoms: N_12  and  C_13
REMARK    8  A    between atoms: C_13  and  C_14
REMARK                            x       y       z     vdW  Elec       q    Type
REMARK                         _______ _______ _______ _____ _____    ______ ____
ROOT
ATOM      1  C   UNL     1       2.169   7.824  19.019  0.00  0.00    +0.000 C 
ATOM      2  O   UNL     1       2.036   7.946  20.235  0.00  0.00    +0.000 OA
ENDROOT
BRANCH   1   4
ATOM      3  C   UNL     1       2.290   5.274  18.790  0.00  0.00    +0.000 A 
ATOM      4  C   UNL     1       2.734   6.563  18.414  0.00  0.00    +0.000 A 
ATOM      5  C   UNL     1       3.783   6.705  17.488  0.00  0.00    +0.000 A 
ATOM      6  C   UNL     1       4.465   5.600  16.983  0.00  0.00    +0.000 A 
ATOM      7 CL   UNL     1       5.784   5.812  15.911  0.00  0.00    +0.000 Cl
ATOM      8  C   UNL     1       4.078   4.336  17.430  0.00  0.00    +0.000 A 
ATOM      9  N   UNL     1       4.627   3.110  17.139  0.00  0.00    +0.000 N 
ATOM     10  C   UNL     1       3.978   2.127  17.828  0.00  0.00    +0.000 A 
ATOM     11  C   UNL     1       2.987   2.727  18.568  0.00  0.00    +0.000 A 
ATOM     12  C   UNL     1       3.016   4.137  18.318  0.00  0.00    +0.000 A 
ATOM     13  H   UNL     1       5.419   2.972  16.522  0.00  0.00    +0.000 HD
BRANCH   3  15
ATOM     14  C   UNL     1       1.677   4.545  20.951  0.00  0.00    +0.000 C 
ATOM     15  O   UNL     1       1.283   5.180  19.734  0.00  0.00    +0.000 OA
ENDBRANCH   3  15
ENDBRANCH   1   4
BRANCH   1  16
ATOM     16  C   UNL     1       1.753   8.909  18.020  0.00  0.00    +0.000 C 
BRANCH  16  17
ATOM     17  C   UNL     1       0.419   9.622  18.256  0.00  0.00    +0.000 C 
BRANCH  17  18
ATOM     18  C   UNL     1       0.642  11.145  18.514  0.00  0.00    +0.000 C 
ATOM     19  C   UNL     1       1.438  11.430  19.796  0.00  0.00    +0.000 C 
ATOM     20  C   UNL     1       0.631  11.166  21.071  0.00  0.00    +0.000 C 
ATOM     21  N   UNL     1      -0.720  11.744  21.081  0.00  0.00    +0.000 NA
ATOM     22  C   UNL     1      -1.472  11.555  19.842  0.00  0.00    +0.000 C 
ATOM     23  C   UNL     1      -0.655  11.963  18.617  0.00  0.00    +0.000 C 
BRANCH  21  24
ATOM     24  C   UNL     1      -1.499  11.353  22.274  0.00  0.00    +0.000 C 
BRANCH  24  25
ATOM     25  C   UNL     1      -2.030  12.482  23.144  0.00  0.00    +0.000 A 
ATOM     26  C   UNL     1      -3.301  12.384  23.735  0.00  0.00    +0.000 A 
ATOM     27  C   UNL     1      -3.816  13.431  24.500  0.00  0.00    +0.000 A 
ATOM     28  C   UNL     1      -3.061  14.581  24.704  0.00  0.00    +0.000 A 
ATOM     29  C   UNL     1      -1.794  14.691  24.136  0.00  0.00    +0.000 A 
ATOM     30  C   UNL     1      -1.281  13.647  23.358  0.00  0.00    +0.000 A 
ENDBRANCH  24  25
ENDBRANCH  21  24
ENDBRANCH  17  18
ENDBRANCH  16  17
ENDBRANCH   1  16
TORSDOF 7
ENDMDL
MODEL 9
REMARK VINA RESULT:      -7.1      3.338      8.173
REMARK  Name = 
REMARK  8 active torsions:
REMARK  status: ('A' for Active; 'I' for Inactive)
REMARK    1  A    between atoms: C_1  and  O_2
REMARK    2  A    between atoms: O_2  and  C_3
REMARK    3  A    between atoms: C_4  and  C_5
REMARK    4  A    between atoms: C_5  and  C_7
REMARK    5  A    between atoms: C_7  and  C_8
REMARK    6  A    between atoms: C_8  and  C_9
REMARK    7  A    between atoms: N_12  and  C_13
REMARK    8  A    between atoms: C_13  and  C_14
REMARK                            x       y       z     vdW  Elec       q    Type
REMARK                         _______ _______ _______ _____ _____    ______ ____
ROOT
ATOM      1  C   UNL     1       1.692   7.599  20.111  0.00  0.00    +0.000 C 
ATOM      2  O   UNL     1       2.704   7.611  19.414  0.00  0.00    +0.000 OA
ENDROOT
BRANCH   1   4
ATOM      3  C   UNL     1       0.664   9.776  19.231  0.00  0.00    +0.000 A 
ATOM      4  C   UNL     1       0.833   8.829  20.268  0.00  0.00    +0.000 A 
ATOM      5  C   UNL     1       0.240   9.046  21.524  0.00  0.00    +0.000 A 
ATOM      6  C   UNL     1      -0.451  10.221  21.812  0.00  0.00    +0.000 A 
ATOM      7 CL   UNL     1      -1.101  10.483  23.375  0.00  0.00    +0.000 Cl
ATOM      8  C   UNL     1      -0.536  11.189  20.810  0.00  0.00    +0.000 A 
ATOM      9  N   UNL     1      -1.098  12.442  20.863  0.00  0.00    +0.000 N 
ATOM     10  C   UNL     1      -0.919  13.089  19.675  0.00  0.00    +0.000 A 
ATOM     11  C   UNL     1      -0.241  12.236  18.838  0.00  0.00    +0.000 A 
ATOM     12  C   UNL     1       0.000  11.007  19.532  0.00  0.00    +0.000 A 
ATOM     13  H   UNL     1      -1.550  12.830  21.683  0.00  0.00    +0.000 HD
BRANCH   3  15
ATOM     14  C   UNL     1       2.372  10.440  17.742  0.00  0.00    +0.000 C 
ATOM     15  O   UNL     1       1.297   9.543  18.023  0.00  0.00    +0.000 OA
ENDBRANCH   3  15
ENDBRANCH   1   4
BRANCH   1  16
ATOM     16  C   UNL     1       1.199   6.350  20.848  0.00  0.00    +0.000 C 
BRANCH  16  17
ATOM     17  C   UNL     1       2.219   5.246  21.142  0.00  0.00    +0.000 C 
BRANCH  17  18
ATOM     18  C   UNL     1       1.574   3.835  20.974  0.00  0.00    +0.000 C 
ATOM     19  C   UNL     1       2.568   2.686  21.194  0.00  0.00    +0.000 C 
ATOM     20  C   UNL     1       3.577   2.541  20.050  0.00  0.00    +0.000 C 
ATOM     21  N   UNL     1       2.991   2.557  18.702  0.00  0.00    +0.000 NA
ATOM     22  C   UNL     1       1.982   3.593  18.488  0.00  0.00    +0.000 C 
ATOM     23  C   UNL     1       0.931   3.596  19.598  0.00  0.00    +0.000 C 
BRANCH  21  24
ATOM     24  C   UNL     1       4.014   2.543  17.636  0.00  0.00    +0.000 C 
BRANCH  24  25
ATOM     25  C   UNL     1       4.691   3.868  17.321  0.00  0.00    +0.000 A 
ATOM     26  C   UNL     1       5.236   4.649  18.354  0.00  0.00    +0.000 A 
ATOM     27  C   UNL     1       5.822   5.885  18.084  0.00  0.00    +0.000 A 
ATOM     28  C   UNL     1       5.892   6.351  16.774  0.00  0.00    +0.000 A 
ATOM     29  C   UNL     1       5.368   5.585  15.736  0.00  0.00    +0.000 A 
ATOM     30  C   UNL     1       4.768   4.350  16.007  0.00  0.00    +0.000 A 
ENDBRANCH  24  25
ENDBRANCH  21  24
ENDBRANCH  17  18
ENDBRANCH  16  17
ENDBRANCH   1  16
TORSDOF 7
ENDMDL
