MODEL 1
REMARK VINA RESULT:      -6.4      0.000      0.000
REMARK  Name = 
REMARK  7 active torsions:
REMARK  status: ('A' for Active; 'I' for Inactive)
REMARK    1  A    between atoms: C_1  and  S_2
REMARK    2  A    between atoms: S_2  and  C_3
REMARK    3  A    between atoms: C_6  and  C_7
REMARK    4  A    between atoms: C_7  and  C_8
REMARK    5  A    between atoms: C_8  and  C_9
REMARK    6  A    between atoms: C_8  and  N_11
REMARK    7  A    between atoms: C_12  and  C_14
REMARK                            x       y       z     vdW  Elec       q    Type
REMARK                         _______ _______ _______ _____ _____    ______ ____
ROOT
ATOM      1  C   UNL     1       4.883   5.769  17.449  0.00  0.00    +0.000 C 
ENDROOT
BRANCH   1   2
ATOM      2  N   UNL     1       5.311   5.010  16.283  0.00  0.00    +0.000 N 
ATOM      3  C   UNL     1       6.509   5.271  15.663  0.00  0.00    +0.000 C 
ATOM      4  O   UNL     1       7.253   6.180  16.020  0.00  0.00    +0.000 OA
ATOM      5  H   UNL     1       4.754   4.250  15.896  0.00  0.00    +0.000 HD
BRANCH   3   6
ATOM      6  C   UNL     1       6.830   4.380  14.462  0.00  0.00    +0.000 C 
ATOM      7  C   UNL     1       7.490   5.161  13.344  0.00  0.00    +0.000 C 
ATOM      8  C   UNL     1       7.293   4.257  12.141  0.00  0.00    +0.000 C 
ATOM      9  C   UNL     1       6.021   3.475  12.446  0.00  0.00    +0.000 C 
ATOM     10  N   UNL     1       5.606   3.860  13.802  0.00  0.00    +0.000 NA
ATOM     11  H   UNL     1       5.272   3.036  14.306  0.00  0.00    +0.000 HD
ENDBRANCH   3   6
ENDBRANCH   1   2
BRANCH   1  12
ATOM     12  C   UNL     1       5.741   5.457  18.665  0.00  0.00    +0.000 C 
ATOM     13  N   UNL     1       6.452   5.199  19.673  0.00  0.00    +0.000 NA
ENDBRANCH   1  12
BRANCH   1  14
ATOM     14  C   UNL     1       3.393   5.535  17.788  0.00  0.00    +0.000 C 
BRANCH  14  18
ATOM     15  C   UNL     1       1.449   8.970  19.603  0.00  0.00    +0.000 A 
ATOM     16  C   UNL     1       1.828   8.996  18.260  0.00  0.00    +0.000 A 
ATOM     17  C   UNL     1       2.450   7.888  17.671  0.00  0.00    +0.000 A 
ATOM     18  C   UNL     1       2.706   6.732  18.421  0.00  0.00    +0.000 A 
ATOM     19  C   UNL     1       2.337   6.716  19.774  0.00  0.00    +0.000 A 
ATOM     20  C   UNL     1       1.722   7.829  20.361  0.00  0.00    +0.000 A 
BRANCH  15  22
ATOM     21  C   UNL     1      -0.511  10.841  19.100  0.00  0.00    +0.000 C 
ATOM     22  S   UNL     1       0.680  10.376  20.385  0.00  0.00    +0.000 S 
ENDBRANCH  15  22
ENDBRANCH  14  18
ENDBRANCH   1  14
TORSDOF 6
ENDMDL
MODEL 2
REMARK VINA RESULT:      -6.4      2.992      3.835
REMARK  Name = 
REMARK  7 active torsions:
REMARK  status: ('A' for Active; 'I' for Inactive)
REMARK    1  A    between atoms: C_1  and  S_2
REMARK    2  A    between atoms: S_2  and  C_3
REMARK    3  A    between atoms: C_6  and  C_7
REMARK    4  A    between atoms: C_7  and  C_8
REMARK    5  A    between atoms: C_8  and  C_9
REMARK    6  A    between atoms: C_8  and  N_11
REMARK    7  A    between atoms: C_12  and  C_14
REMARK                            x       y       z     vdW  Elec       q    Type
REMARK                         _______ _______ _______ _____ _____    ______ ____
ROOT
ATOM      1  C   UNL     1       6.639   6.478  17.434  0.00  0.00    +0.000 C 
ENDROOT
BRANCH   1   2
ATOM      2  N   UNL     1       7.084   5.738  16.262  0.00  0.00    +0.000 N 
ATOM      3  C   UNL     1       6.204   5.003  15.506  0.00  0.00    +0.000 C 
ATOM      4  O   UNL     1       5.018   4.888  15.799  0.00  0.00    +0.000 OA
ATOM      5  H   UNL     1       8.053   5.751  15.949  0.00  0.00    +0.000 HD
BRANCH   3   6
ATOM      6  C   UNL     1       6.816   4.294  14.296  0.00  0.00    +0.000 C 
ATOM      7  C   UNL     1       7.309   5.281  13.257  0.00  0.00    +0.000 C 
ATOM      8  C   UNL     1       7.426   4.425  12.010  0.00  0.00    +0.000 C 
ATOM      9  C   UNL     1       6.391   3.322  12.196  0.00  0.00    +0.000 C 
ATOM     10  N   UNL     1       5.813   3.510  13.534  0.00  0.00    +0.000 NA
ATOM     11  H   UNL     1       5.680   2.601  13.982  0.00  0.00    +0.000 HD
ENDBRANCH   3   6
ENDBRANCH   1   2
BRANCH   1  12
ATOM     12  C   UNL     1       7.448   7.750  17.632  0.00  0.00    +0.000 C 
ATOM     13  N   UNL     1       8.119   8.805  17.795  0.00  0.00    +0.000 NA
ENDBRANCH   1  12
BRANCH   1  14
ATOM     14  C   UNL     1       6.685   5.625  18.721  0.00  0.00    +0.000 C 
BRANCH  14  18
ATOM     15  C   UNL     1       2.830   3.993  19.883  0.00  0.00    +0.000 A 
ATOM     16  C   UNL     1       3.919   3.149  19.656  0.00  0.00    +0.000 A 
ATOM     17  C   UNL     1       5.164   3.673  19.287  0.00  0.00    +0.000 A 
ATOM     18  C   UNL     1       5.339   5.056  19.136  0.00  0.00    +0.000 A 
ATOM     19  C   UNL     1       4.238   5.898  19.350  0.00  0.00    +0.000 A 
ATOM     20  C   UNL     1       2.993   5.369  19.713  0.00  0.00    +0.000 A 
BRANCH  15  22
ATOM     21  C   UNL     1       0.794   2.489  18.794  0.00  0.00    +0.000 C 
ATOM     22  S   UNL     1       1.227   3.350  20.329  0.00  0.00    +0.000 S 
ENDBRANCH  15  22
ENDBRANCH  14  18
ENDBRANCH   1  14
TORSDOF 6
ENDMDL
MODEL 3
REMARK VINA RESULT:      -6.4      2.543      3.271
REMARK  Name = 
REMARK  7 active torsions:
REMARK  status: ('A' for Active; 'I' for Inactive)
REMARK    1  A    between atoms: C_1  and  S_2
REMARK    2  A    between atoms: S_2  and  C_3
REMARK    3  A    between atoms: C_6  and  C_7
REMARK    4  A    between atoms: C_7  and  C_8
REMARK    5  A    between atoms: C_8  and  C_9
REMARK    6  A    between atoms: C_8  and  N_11
REMARK    7  A    between atoms: C_12  and  C_14
REMARK                            x       y       z     vdW  Elec       q    Type
REMARK                         _______ _______ _______ _____ _____    ______ ____
ROOT
ATOM      1  C   UNL     1       5.805   6.255  16.957  0.00  0.00    +0.000 C 
ENDROOT
BRANCH   1   2
ATOM      2  N   UNL     1       5.721   5.261  15.897  0.00  0.00    +0.000 N 
ATOM      3  C   UNL     1       6.756   5.070  15.014  0.00  0.00    +0.000 C 
ATOM      4  O   UNL     1       7.776   5.752  15.035  0.00  0.00    +0.000 OA
ATOM      5  H   UNL     1       4.907   4.659  15.781  0.00  0.00    +0.000 HD
BRANCH   3   6
ATOM      6  C   UNL     1       6.528   3.978  13.967  0.00  0.00    +0.000 C 
ATOM      7  C   UNL     1       7.266   4.274  12.677  0.00  0.00    +0.000 C 
ATOM      8  C   UNL     1       6.561   3.379  11.674  0.00  0.00    +0.000 C 
ATOM      9  C   UNL     1       5.146   3.225  12.218  0.00  0.00    +0.000 C 
ATOM     10  N   UNL     1       5.116   3.916  13.514  0.00  0.00    +0.000 NA
ATOM     11  H   UNL     1       4.569   3.370  14.183  0.00  0.00    +0.000 HD
ENDBRANCH   3   6
ENDBRANCH   1   2
BRANCH   1  12
ATOM     12  C   UNL     1       6.448   5.683  18.210  0.00  0.00    +0.000 C 
ATOM     13  N   UNL     1       6.981   5.209  19.250  0.00  0.00    +0.000 NA
ENDBRANCH   1  12
BRANCH   1  14
ATOM     14  C   UNL     1       4.427   6.860  17.306  0.00  0.00    +0.000 C 
BRANCH  14  18
ATOM     15  C   UNL     1       1.783   4.166  19.458  0.00  0.00    +0.000 A 
ATOM     16  C   UNL     1       2.193   3.869  18.157  0.00  0.00    +0.000 A 
ATOM     17  C   UNL     1       3.049   4.733  17.463  0.00  0.00    +0.000 A 
ATOM     18  C   UNL     1       3.510   5.914  18.062  0.00  0.00    +0.000 A 
ATOM     19  C   UNL     1       3.082   6.216  19.364  0.00  0.00    +0.000 A 
ATOM     20  C   UNL     1       2.220   5.352  20.051  0.00  0.00    +0.000 A 
BRANCH  15  22
ATOM     21  C   UNL     1       1.739   2.619  21.738  0.00  0.00    +0.000 C 
ATOM     22  S   UNL     1       0.671   3.097  20.354  0.00  0.00    +0.000 S 
ENDBRANCH  15  22
ENDBRANCH  14  18
ENDBRANCH   1  14
TORSDOF 6
ENDMDL
MODEL 4
REMARK VINA RESULT:      -6.4      0.636      1.243
REMARK  Name = 
REMARK  7 active torsions:
REMARK  status: ('A' for Active; 'I' for Inactive)
REMARK    1  A    between atoms: C_1  and  S_2
REMARK    2  A    between atoms: S_2  and  C_3
REMARK    3  A    between atoms: C_6  and  C_7
REMARK    4  A    between atoms: C_7  and  C_8
REMARK    5  A    between atoms: C_8  and  C_9
REMARK    6  A    between atoms: C_8  and  N_11
REMARK    7  A    between atoms: C_12  and  C_14
REMARK                            x       y       z     vdW  Elec       q    Type
REMARK                         _______ _______ _______ _____ _____    ______ ____
ROOT
ATOM      1  C   UNL     1       5.083   5.705  17.733  0.00  0.00    +0.000 C 
ENDROOT
BRANCH   1   2
ATOM      2  N   UNL     1       5.412   4.910  16.559  0.00  0.00    +0.000 N 
ATOM      3  C   UNL     1       6.460   5.249  15.739  0.00  0.00    +0.000 C 
ATOM      4  O   UNL     1       7.139   6.256  15.916  0.00  0.00    +0.000 OA
ATOM      5  H   UNL     1       4.895   4.068  16.313  0.00  0.00    +0.000 HD
BRANCH   3   6
ATOM      6  C   UNL     1       6.693   4.309  14.555  0.00  0.00    +0.000 C 
ATOM      7  C   UNL     1       7.501   4.974  13.459  0.00  0.00    +0.000 C 
ATOM      8  C   UNL     1       7.220   4.095  12.254  0.00  0.00    +0.000 C 
ATOM      9  C   UNL     1       5.838   3.509  12.514  0.00  0.00    +0.000 C 
ATOM     10  N   UNL     1       5.432   3.964  13.851  0.00  0.00    +0.000 NA
ATOM     11  H   UNL     1       4.965   3.202  14.347  0.00  0.00    +0.000 HD
ENDBRANCH   3   6
ENDBRANCH   1   2
BRANCH   1  12
ATOM     12  C   UNL     1       6.032   5.418  18.886  0.00  0.00    +0.000 C 
ATOM     13  N   UNL     1       6.818   5.180  19.843  0.00  0.00    +0.000 NA
ENDBRANCH   1  12
BRANCH   1  14
ATOM     14  C   UNL     1       3.623   5.497  18.194  0.00  0.00    +0.000 C 
BRANCH  14  18
ATOM     15  C   UNL     1       1.534   9.160  19.240  0.00  0.00    +0.000 A 
ATOM     16  C   UNL     1       1.657   8.123  20.167  0.00  0.00    +0.000 A 
ATOM     17  C   UNL     1       2.334   6.944  19.834  0.00  0.00    +0.000 A 
ATOM     18  C   UNL     1       2.901   6.781  18.562  0.00  0.00    +0.000 A 
ATOM     19  C   UNL     1       2.761   7.820  17.629  0.00  0.00    +0.000 A 
ATOM     20  C   UNL     1       2.077   8.994  17.964  0.00  0.00    +0.000 A 
BRANCH  15  22
ATOM     21  C   UNL     1       0.176  10.314  21.342  0.00  0.00    +0.000 C 
ATOM     22  S   UNL     1       0.653  10.661  19.628  0.00  0.00    +0.000 S 
ENDBRANCH  15  22
ENDBRANCH  14  18
ENDBRANCH   1  14
TORSDOF 6
ENDMDL
MODEL 5
REMARK VINA RESULT:      -6.3      1.659      2.174
REMARK  Name = 
REMARK  7 active torsions:
REMARK  status: ('A' for Active; 'I' for Inactive)
REMARK    1  A    between atoms: C_1  and  S_2
REMARK    2  A    between atoms: S_2  and  C_3
REMARK    3  A    between atoms: C_6  and  C_7
REMARK    4  A    between atoms: C_7  and  C_8
REMARK    5  A    between atoms: C_8  and  C_9
REMARK    6  A    between atoms: C_8  and  N_11
REMARK    7  A    between atoms: C_12  and  C_14
REMARK                            x       y       z     vdW  Elec       q    Type
REMARK                         _______ _______ _______ _____ _____    ______ ____
ROOT
ATOM      1  C   UNL     1       4.293   3.784  17.540  0.00  0.00    +0.000 C 
ENDROOT
BRANCH   1   2
ATOM      2  N   UNL     1       4.709   4.252  16.226  0.00  0.00    +0.000 N 
ATOM      3  C   UNL     1       6.038   4.383  15.904  0.00  0.00    +0.000 C 
ATOM      4  O   UNL     1       6.937   4.166  16.710  0.00  0.00    +0.000 OA
ATOM      5  H   UNL     1       4.038   4.480  15.494  0.00  0.00    +0.000 HD
BRANCH   3   6
ATOM      6  C   UNL     1       6.319   4.869  14.481  0.00  0.00    +0.000 C 
ATOM      7  C   UNL     1       6.194   3.747  13.469  0.00  0.00    +0.000 C 
ATOM      8  C   UNL     1       6.941   4.295  12.267  0.00  0.00    +0.000 C 
ATOM      9  C   UNL     1       7.975   5.250  12.852  0.00  0.00    +0.000 C 
ATOM     10  N   UNL     1       7.729   5.300  14.300  0.00  0.00    +0.000 NA
ATOM     11  H   UNL     1       7.836   6.260  14.634  0.00  0.00    +0.000 HD
ENDBRANCH   3   6
ENDBRANCH   1   2
BRANCH   1  12
ATOM     12  C   UNL     1       2.804   3.476  17.578  0.00  0.00    +0.000 C 
ATOM     13  N   UNL     1       1.570   3.221  17.610  0.00  0.00    +0.000 NA
ENDBRANCH   1  12
BRANCH   1  14
ATOM     14  C   UNL     1       4.646   4.787  18.661  0.00  0.00    +0.000 C 
BRANCH  14  18
ATOM     15  C   UNL     1       2.051   8.266  18.838  0.00  0.00    +0.000 A 
ATOM     16  C   UNL     1       2.900   8.069  17.748  0.00  0.00    +0.000 A 
ATOM     17  C   UNL     1       3.734   6.945  17.686  0.00  0.00    +0.000 A 
ATOM     18  C   UNL     1       3.733   5.998  18.719  0.00  0.00    +0.000 A 
ATOM     19  C   UNL     1       2.889   6.209  19.820  0.00  0.00    +0.000 A 
ATOM     20  C   UNL     1       2.063   7.338  19.881  0.00  0.00    +0.000 A 
BRANCH  15  22
ATOM     21  C   UNL     1       0.404   9.520  20.658  0.00  0.00    +0.000 C 
ATOM     22  S   UNL     1       0.999   9.702  18.956  0.00  0.00    +0.000 S 
ENDBRANCH  15  22
ENDBRANCH  14  18
ENDBRANCH   1  14
TORSDOF 6
ENDMDL
MODEL 6
REMARK VINA RESULT:      -6.2      3.349      3.946
REMARK  Name = 
REMARK  7 active torsions:
REMARK  status: ('A' for Active; 'I' for Inactive)
REMARK    1  A    between atoms: C_1  and  S_2
REMARK    2  A    between atoms: S_2  and  C_3
REMARK    3  A    between atoms: C_6  and  C_7
REMARK    4  A    between atoms: C_7  and  C_8
REMARK    5  A    between atoms: C_8  and  C_9
REMARK    6  A    between atoms: C_8  and  N_11
REMARK    7  A    between atoms: C_12  and  C_14
REMARK                            x       y       z     vdW  Elec       q    Type
REMARK                         _______ _______ _______ _____ _____    ______ ____
ROOT
ATOM      1  C   UNL     1       6.672   5.799  15.999  0.00  0.00    +0.000 C 
ENDROOT
BRANCH   1   2
ATOM      2  N   UNL     1       6.247   5.105  14.793  0.00  0.00    +0.000 N 
ATOM      3  C   UNL     1       7.075   5.000  13.701  0.00  0.00    +0.000 C 
ATOM      4  O   UNL     1       8.185   5.521  13.662  0.00  0.00    +0.000 OA
ATOM      5  H   UNL     1       5.335   4.658  14.717  0.00  0.00    +0.000 HD
BRANCH   3   6
ATOM      6  C   UNL     1       6.496   4.227  12.515  0.00  0.00    +0.000 C 
ATOM      7  C   UNL     1       5.010   3.978  12.678  0.00  0.00    +0.000 C 
ATOM      8  C   UNL     1       4.748   2.851  11.696  0.00  0.00    +0.000 C 
ATOM      9  C   UNL     1       6.070   2.098  11.607  0.00  0.00    +0.000 C 
ATOM     10  N   UNL     1       7.037   2.847  12.422  0.00  0.00    +0.000 NA
ATOM     11  H   UNL     1       7.942   2.869  11.948  0.00  0.00    +0.000 HD
ENDBRANCH   3   6
ENDBRANCH   1   2
BRANCH   1  12
ATOM     12  C   UNL     1       7.442   4.879  16.932  0.00  0.00    +0.000 C 
ATOM     13  N   UNL     1       8.081   4.114  17.705  0.00  0.00    +0.000 NA
ENDBRANCH   1  12
BRANCH   1  14
ATOM     14  C   UNL     1       5.487   6.438  16.758  0.00  0.00    +0.000 C 
BRANCH  14  18
ATOM     15  C   UNL     1       3.013   3.603  18.930  0.00  0.00    +0.000 A 
ATOM     16  C   UNL     1       3.109   3.542  17.539  0.00  0.00    +0.000 A 
ATOM     17  C   UNL     1       3.909   4.451  16.837  0.00  0.00    +0.000 A 
ATOM     18  C   UNL     1       4.629   5.442  17.519  0.00  0.00    +0.000 A 
ATOM     19  C   UNL     1       4.518   5.509  18.916  0.00  0.00    +0.000 A 
ATOM     20  C   UNL     1       3.711   4.602  19.613  0.00  0.00    +0.000 A 
BRANCH  15  22
ATOM     21  C   UNL     1       2.215   3.121  21.524  0.00  0.00    +0.000 C 
ATOM     22  S   UNL     1       1.980   2.475  19.847  0.00  0.00    +0.000 S 
ENDBRANCH  15  22
ENDBRANCH  14  18
ENDBRANCH   1  14
TORSDOF 6
ENDMDL
MODEL 7
REMARK VINA RESULT:      -6.2      2.966      3.802
REMARK  Name = 
REMARK  7 active torsions:
REMARK  status: ('A' for Active; 'I' for Inactive)
REMARK    1  A    between atoms: C_1  and  S_2
REMARK    2  A    between atoms: S_2  and  C_3
REMARK    3  A    between atoms: C_6  and  C_7
REMARK    4  A    between atoms: C_7  and  C_8
REMARK    5  A    between atoms: C_8  and  C_9
REMARK    6  A    between atoms: C_8  and  N_11
REMARK    7  A    between atoms: C_12  and  C_14
REMARK                            x       y       z     vdW  Elec       q    Type
REMARK                         _______ _______ _______ _____ _____    ______ ____
ROOT
ATOM      1  C   UNL     1       6.517   6.309  17.548  0.00  0.00    +0.000 C 
ENDROOT
BRANCH   1   2
ATOM      2  N   UNL     1       6.862   5.411  16.456  0.00  0.00    +0.000 N 
ATOM      3  C   UNL     1       6.228   5.491  15.240  0.00  0.00    +0.000 C 
ATOM      4  O   UNL     1       5.312   6.278  15.023  0.00  0.00    +0.000 OA
ATOM      5  H   UNL     1       7.593   4.707  16.543  0.00  0.00    +0.000 HD
BRANCH   3   6
ATOM      6  C   UNL     1       6.710   4.492  14.186  0.00  0.00    +0.000 C 
ATOM      7  C   UNL     1       7.418   5.185  13.039  0.00  0.00    +0.000 C 
ATOM      8  C   UNL     1       7.386   4.136  11.942  0.00  0.00    +0.000 C 
ATOM      9  C   UNL     1       6.143   3.305  12.234  0.00  0.00    +0.000 C 
ATOM     10  N   UNL     1       5.584   3.813  13.495  0.00  0.00    +0.000 NA
ATOM     11  H   UNL     1       5.258   3.031  14.067  0.00  0.00    +0.000 HD
ENDBRANCH   3   6
ENDBRANCH   1   2
BRANCH   1  12
ATOM     12  C   UNL     1       7.492   7.472  17.644  0.00  0.00    +0.000 C 
ATOM     13  N   UNL     1       8.301   8.436  17.723  0.00  0.00    +0.000 NA
ENDBRANCH   1  12
BRANCH   1  14
ATOM     14  C   UNL     1       6.441   5.579  18.908  0.00  0.00    +0.000 C 
BRANCH  14  18
ATOM     15  C   UNL     1       2.557   3.849  19.799  0.00  0.00    +0.000 A 
ATOM     16  C   UNL     1       2.716   5.234  19.722  0.00  0.00    +0.000 A 
ATOM     17  C   UNL     1       3.966   5.794  19.430  0.00  0.00    +0.000 A 
ATOM     18  C   UNL     1       5.082   4.973  19.211  0.00  0.00    +0.000 A 
ATOM     19  C   UNL     1       4.920   3.583  19.304  0.00  0.00    +0.000 A 
ATOM     20  C   UNL     1       3.669   3.028  19.604  0.00  0.00    +0.000 A 
BRANCH  15  22
ATOM     21  C   UNL     1       1.338   2.482  21.859  0.00  0.00    +0.000 C 
ATOM     22  S   UNL     1       0.983   3.111  20.196  0.00  0.00    +0.000 S 
ENDBRANCH  15  22
ENDBRANCH  14  18
ENDBRANCH   1  14
TORSDOF 6
ENDMDL
MODEL 8
REMARK VINA RESULT:      -6.2      2.735      5.148
REMARK  Name = 
REMARK  7 active torsions:
REMARK  status: ('A' for Active; 'I' for Inactive)
REMARK    1  A    between atoms: C_1  and  S_2
REMARK    2  A    between atoms: S_2  and  C_3
REMARK    3  A    between atoms: C_6  and  C_7
REMARK    4  A    between atoms: C_7  and  C_8
REMARK    5  A    between atoms: C_8  and  C_9
REMARK    6  A    between atoms: C_8  and  N_11
REMARK    7  A    between atoms: C_12  and  C_14
REMARK                            x       y       z     vdW  Elec       q    Type
REMARK                         _______ _______ _______ _____ _____    ______ ____
ROOT
ATOM      1  C   UNL     1       3.941   5.006  16.953  0.00  0.00    +0.000 C 
ENDROOT
BRANCH   1   2
ATOM      2  N   UNL     1       3.537   4.203  18.098  0.00  0.00    +0.000 N 
ATOM      3  C   UNL     1       2.286   3.640  18.169  0.00  0.00    +0.000 C 
ATOM      4  O   UNL     1       1.431   3.822  17.308  0.00  0.00    +0.000 OA
ATOM      5  H   UNL     1       4.167   4.011  18.876  0.00  0.00    +0.000 HD
BRANCH   3   6
ATOM      6  C   UNL     1       2.014   2.809  19.424  0.00  0.00    +0.000 C 
ATOM      7  C   UNL     1       1.002   3.479  20.332  0.00  0.00    +0.000 C 
ATOM      8  C   UNL     1       1.226   2.777  21.660  0.00  0.00    +0.000 C 
ATOM      9  C   UNL     1       2.689   2.349  21.631  0.00  0.00    +0.000 C 
ATOM     10  N   UNL     1       3.206   2.707  20.303  0.00  0.00    +0.000 NA
ATOM     11  H   UNL     1       3.818   1.963  19.960  0.00  0.00    +0.000 HD
ENDBRANCH   3   6
ENDBRANCH   1   2
BRANCH   1  12
ATOM     12  C   UNL     1       5.046   4.329  16.158  0.00  0.00    +0.000 C 
ATOM     13  N   UNL     1       5.963   3.768  15.499  0.00  0.00    +0.000 NA
ENDBRANCH   1  12
BRANCH   1  14
ATOM     14  C   UNL     1       4.388   6.427  17.361  0.00  0.00    +0.000 C 
BRANCH  14  18
ATOM     15  C   UNL     1       1.358   8.729  19.457  0.00  0.00    +0.000 A 
ATOM     16  C   UNL     1       1.767   9.096  18.174  0.00  0.00    +0.000 A 
ATOM     17  C   UNL     1       2.740   8.353  17.494  0.00  0.00    +0.000 A 
ATOM     18  C   UNL     1       3.323   7.226  18.091  0.00  0.00    +0.000 A 
ATOM     19  C   UNL     1       2.919   6.870  19.386  0.00  0.00    +0.000 A 
ATOM     20  C   UNL     1       1.951   7.621  20.065  0.00  0.00    +0.000 A 
BRANCH  15  22
ATOM     21  C   UNL     1       0.383  11.303  19.601  0.00  0.00    +0.000 C 
ATOM     22  S   UNL     1       0.141   9.673  20.356  0.00  0.00    +0.000 S 
ENDBRANCH  15  22
ENDBRANCH  14  18
ENDBRANCH   1  14
TORSDOF 6
ENDMDL
MODEL 9
REMARK VINA RESULT:      -6.2      1.492      1.841
REMARK  Name = 
REMARK  7 active torsions:
REMARK  status: ('A' for Active; 'I' for Inactive)
REMARK    1  A    between atoms: C_1  and  S_2
REMARK    2  A    between atoms: S_2  and  C_3
REMARK    3  A    between atoms: C_6  and  C_7
REMARK    4  A    between atoms: C_7  and  C_8
REMARK    5  A    between atoms: C_8  and  C_9
REMARK    6  A    between atoms: C_8  and  N_11
REMARK    7  A    between atoms: C_12  and  C_14
REMARK                            x       y       z     vdW  Elec       q    Type
REMARK                         _______ _______ _______ _____ _____    ______ ____
ROOT
ATOM      1  C   UNL     1       4.209   4.707  18.977  0.00  0.00    +0.000 C 
ENDROOT
BRANCH   1   2
ATOM      2  N   UNL     1       4.536   4.738  17.559  0.00  0.00    +0.000 N 
ATOM      3  C   UNL     1       5.627   5.430  17.093  0.00  0.00    +0.000 C 
ATOM      4  O   UNL     1       6.351   6.094  17.828  0.00  0.00    +0.000 OA
ATOM      5  H   UNL     1       3.984   4.237  16.864  0.00  0.00    +0.000 HD
BRANCH   3   6
ATOM      6  C   UNL     1       5.851   5.355  15.581  0.00  0.00    +0.000 C 
ATOM      7  C   UNL     1       5.546   3.974  15.036  0.00  0.00    +0.000 C 
ATOM      8  C   UNL     1       6.253   3.980  13.693  0.00  0.00    +0.000 C 
ATOM      9  C   UNL     1       7.414   4.952  13.868  0.00  0.00    +0.000 C 
ATOM     10  N   UNL     1       7.278   5.530  15.213  0.00  0.00    +0.000 NA
ATOM     11  H   UNL     1       7.501   6.528  15.182  0.00  0.00    +0.000 HD
ENDBRANCH   3   6
ENDBRANCH   1   2
BRANCH   1  12
ATOM     12  C   UNL     1       4.643   3.401  19.622  0.00  0.00    +0.000 C 
ATOM     13  N   UNL     1       5.002   2.316  20.156  0.00  0.00    +0.000 NA
ENDBRANCH   1  12
BRANCH   1  14
ATOM     14  C   UNL     1       2.706   4.945  19.240  0.00  0.00    +0.000 C 
BRANCH  14  18
ATOM     15  C   UNL     1       1.554   9.134  19.161  0.00  0.00    +0.000 A 
ATOM     16  C   UNL     1       2.038   8.509  18.010  0.00  0.00    +0.000 A 
ATOM     17  C   UNL     1       2.405   7.158  18.032  0.00  0.00    +0.000 A 
ATOM     18  C   UNL     1       2.295   6.407  19.211  0.00  0.00    +0.000 A 
ATOM     19  C   UNL     1       1.822   7.044  20.368  0.00  0.00    +0.000 A 
ATOM     20  C   UNL     1       1.464   8.397  20.343  0.00  0.00    +0.000 A 
BRANCH  15  22
ATOM     21  C   UNL     1      -0.435  10.782  20.121  0.00  0.00    +0.000 C 
ATOM     22  S   UNL     1       1.106  10.860  19.168  0.00  0.00    +0.000 S 
ENDBRANCH  15  22
ENDBRANCH  14  18
ENDBRANCH   1  14
TORSDOF 6
ENDMDL
