MODEL 1
REMARK VINA RESULT:      -9.4      0.000      0.000
REMARK  Name = 
REMARK  4 active torsions:
REMARK  status: ('A' for Active; 'I' for Inactive)
REMARK    1  A    between atoms: C_1  and  S_2
REMARK    2  A    between atoms: S_2  and  C_5
REMARK    3  A    between atoms: C_8  and  C_9
REMARK    4  A    between atoms: C_19  and  C_20
REMARK                            x       y       z     vdW  Elec       q    Type
REMARK                         _______ _______ _______ _____ _____    ______ ____
ROOT
ATOM      1  C   UNL     1       3.356   6.116  17.921  0.00  0.00    +0.000 A 
ATOM      2  O   UNL     1       4.209   6.648  16.958  0.00  0.00    +0.000 OA
ATOM      3  C   UNL     1       5.039   5.774  16.292  0.00  0.00    +0.000 A 
ATOM      4  C   UNL     1       6.101   6.284  15.549  0.00  0.00    +0.000 A 
ATOM      5  C   UNL     1       6.923   5.415  14.817  0.00  0.00    +0.000 A 
ATOM      6  C   UNL     1       6.670   4.044  14.799  0.00  0.00    +0.000 A 
ATOM      7  C   UNL     1       5.620   3.529  15.550  0.00  0.00    +0.000 A 
ATOM      8  C   UNL     1       4.834   4.399  16.312  0.00  0.00    +0.000 A 
ATOM      9  C   UNL     1       3.802   3.860  17.191  0.00  0.00    +0.000 A 
ATOM     10  O   UNL     1       3.450   2.689  17.105  0.00  0.00    +0.000 OA
ATOM     11  C   UNL     1       3.199   4.800  18.166  0.00  0.00    +0.000 A 
ENDROOT
BRANCH  11  12
ATOM     12  C   UNL     1       2.485   4.201  19.304  0.00  0.00    +0.000 A 
ATOM     13  C   UNL     1       1.111   3.961  19.274  0.00  0.00    +0.000 A 
ATOM     14  C   UNL     1       0.517   3.201  20.286  0.00  0.00    +0.000 A 
ATOM     15  C   UNL     1       1.289   2.680  21.328  0.00  0.00    +0.000 A 
ATOM     16  C   UNL     1       2.656   2.940  21.381  0.00  0.00    +0.000 A 
ATOM     17  C   UNL     1       3.243   3.699  20.371  0.00  0.00    +0.000 A 
ATOM     18  F   UNL     1       4.568   3.914  20.419  0.00  0.00    +0.000 F 
ENDBRANCH  11  12
BRANCH   1  22
ATOM     19  C   UNL     1       1.125   9.090  20.001  0.00  0.00    +0.000 A 
ATOM     20  C   UNL     1       1.282   9.215  18.616  0.00  0.00    +0.000 A 
ATOM     21  C   UNL     1       1.956   8.217  17.900  0.00  0.00    +0.000 A 
ATOM     22  C   UNL     1       2.484   7.111  18.574  0.00  0.00    +0.000 A 
ATOM     23  C   UNL     1       2.296   6.991  19.963  0.00  0.00    +0.000 A 
ATOM     24  C   UNL     1       1.629   7.981  20.681  0.00  0.00    +0.000 A 
BRANCH  19  26
ATOM     25  C   UNL     1      -0.197   9.527  22.395  0.00  0.00    +0.000 C 
ATOM     26  S   UNL     1       0.313  10.374  20.923  0.00  0.00    +0.000 S 
ATOM     27  O   UNL     1      -0.871  10.760  20.187  0.00  0.00    +0.000 OA
ATOM     28  O   UNL     1       1.315  11.354  21.294  0.00  0.00    +0.000 OA
ENDBRANCH  19  26
ENDBRANCH   1  22
TORSDOF 3
ENDMDL
MODEL 2
REMARK VINA RESULT:      -9.3      0.779      1.312
REMARK  Name = 
REMARK  4 active torsions:
REMARK  status: ('A' for Active; 'I' for Inactive)
REMARK    1  A    between atoms: C_1  and  S_2
REMARK    2  A    between atoms: S_2  and  C_5
REMARK    3  A    between atoms: C_8  and  C_9
REMARK    4  A    between atoms: C_19  and  C_20
REMARK                            x       y       z     vdW  Elec       q    Type
REMARK                         _______ _______ _______ _____ _____    ______ ____
ROOT
ATOM      1  C   UNL     1       3.549   6.108  17.857  0.00  0.00    +0.000 A 
ATOM      2  O   UNL     1       4.407   6.597  16.875  0.00  0.00    +0.000 OA
ATOM      3  C   UNL     1       5.132   5.678  16.151  0.00  0.00    +0.000 A 
ATOM      4  C   UNL     1       6.205   6.121  15.380  0.00  0.00    +0.000 A 
ATOM      5  C   UNL     1       6.920   5.209  14.589  0.00  0.00    +0.000 A 
ATOM      6  C   UNL     1       6.551   3.865  14.542  0.00  0.00    +0.000 A 
ATOM      7  C   UNL     1       5.490   3.417  15.321  0.00  0.00    +0.000 A 
ATOM      8  C   UNL     1       4.811   4.325  16.140  0.00  0.00    +0.000 A 
ATOM      9  C   UNL     1       3.772   3.847  17.044  0.00  0.00    +0.000 A 
ATOM     10  O   UNL     1       3.319   2.714  16.939  0.00  0.00    +0.000 OA
ATOM     11  C   UNL     1       3.290   4.803  18.071  0.00  0.00    +0.000 A 
ENDROOT
BRANCH  11  12
ATOM     12  C   UNL     1       2.573   4.230  19.220  0.00  0.00    +0.000 A 
ATOM     13  C   UNL     1       1.183   4.116  19.244  0.00  0.00    +0.000 A 
ATOM     14  C   UNL     1       0.564   3.376  20.256  0.00  0.00    +0.000 A 
ATOM     15  C   UNL     1       1.328   2.750  21.245  0.00  0.00    +0.000 A 
ATOM     16  C   UNL     1       2.714   2.883  21.245  0.00  0.00    +0.000 A 
ATOM     17  C   UNL     1       3.325   3.622  20.234  0.00  0.00    +0.000 A 
ATOM     18  F   UNL     1       4.665   3.715  20.230  0.00  0.00    +0.000 F 
ENDBRANCH  11  12
BRANCH   1  22
ATOM     19  C   UNL     1       1.080   9.033  19.727  0.00  0.00    +0.000 A 
ATOM     20  C   UNL     1       1.587   7.986  20.505  0.00  0.00    +0.000 A 
ATOM     21  C   UNL     1       2.454   7.048  19.928  0.00  0.00    +0.000 A 
ATOM     22  C   UNL     1       2.792   7.151  18.575  0.00  0.00    +0.000 A 
ATOM     23  C   UNL     1       2.291   8.224  17.815  0.00  0.00    +0.000 A 
ATOM     24  C   UNL     1       1.427   9.158  18.382  0.00  0.00    +0.000 A 
BRANCH  19  26
ATOM     25  C   UNL     1       0.930  11.667  20.565  0.00  0.00    +0.000 C 
ATOM     26  S   UNL     1      -0.057  10.199  20.439  0.00  0.00    +0.000 S 
ATOM     27  O   UNL     1      -0.370   9.746  21.776  0.00  0.00    +0.000 OA
ATOM     28  O   UNL     1      -1.105  10.445  19.468  0.00  0.00    +0.000 OA
ENDBRANCH  19  26
ENDBRANCH   1  22
TORSDOF 3
ENDMDL
MODEL 3
REMARK VINA RESULT:      -9.1      0.919      1.289
REMARK  Name = 
REMARK  4 active torsions:
REMARK  status: ('A' for Active; 'I' for Inactive)
REMARK    1  A    between atoms: C_1  and  S_2
REMARK    2  A    between atoms: S_2  and  C_5
REMARK    3  A    between atoms: C_8  and  C_9
REMARK    4  A    between atoms: C_19  and  C_20
REMARK                            x       y       z     vdW  Elec       q    Type
REMARK                         _______ _______ _______ _____ _____    ______ ____
ROOT
ATOM      1  C   UNL     1       3.492   6.021  17.882  0.00  0.00    +0.000 A 
ATOM      2  O   UNL     1       4.335   6.614  16.946  0.00  0.00    +0.000 OA
ATOM      3  C   UNL     1       5.194   5.791  16.253  0.00  0.00    +0.000 A 
ATOM      4  C   UNL     1       6.245   6.360  15.538  0.00  0.00    +0.000 A 
ATOM      5  C   UNL     1       7.097   5.543  14.779  0.00  0.00    +0.000 A 
ATOM      6  C   UNL     1       6.885   4.167  14.708  0.00  0.00    +0.000 A 
ATOM      7  C   UNL     1       5.846   3.593  15.432  0.00  0.00    +0.000 A 
ATOM      8  C   UNL     1       5.030   4.410  16.221  0.00  0.00    +0.000 A 
ATOM      9  C   UNL     1       4.009   3.808  17.071  0.00  0.00    +0.000 A 
ATOM     10  O   UNL     1       3.693   2.632  16.939  0.00  0.00    +0.000 OA
ATOM     11  C   UNL     1       3.373   4.693  18.077  0.00  0.00    +0.000 A 
ENDROOT
BRANCH  11  12
ATOM     12  C   UNL     1       2.671   4.031  19.187  0.00  0.00    +0.000 A 
ATOM     13  C   UNL     1       3.270   3.836  20.432  0.00  0.00    +0.000 A 
ATOM     14  C   UNL     1       2.499   3.399  21.513  0.00  0.00    +0.000 A 
ATOM     15  C   UNL     1       1.132   3.155  21.356  0.00  0.00    +0.000 A 
ATOM     16  C   UNL     1       0.533   3.319  20.110  0.00  0.00    +0.000 A 
ATOM     17  C   UNL     1       1.305   3.754  19.036  0.00  0.00    +0.000 A 
ATOM     18  F   UNL     1       0.706   3.938  17.848  0.00  0.00    +0.000 F 
ENDBRANCH  11  12
BRANCH   1  22
ATOM     19  C   UNL     1       1.164   8.852  20.054  0.00  0.00    +0.000 A 
ATOM     20  C   UNL     1       1.310   9.022  18.673  0.00  0.00    +0.000 A 
ATOM     21  C   UNL     1       2.017   8.070  17.926  0.00  0.00    +0.000 A 
ATOM     22  C   UNL     1       2.588   6.965  18.567  0.00  0.00    +0.000 A 
ATOM     23  C   UNL     1       2.409   6.798  19.952  0.00  0.00    +0.000 A 
ATOM     24  C   UNL     1       1.709   7.743  20.700  0.00  0.00    +0.000 A 
BRANCH  19  26
ATOM     25  C   UNL     1      -0.353   9.124  22.355  0.00  0.00    +0.000 C 
ATOM     26  S   UNL     1       0.308  10.079  21.014  0.00  0.00    +0.000 S 
ATOM     27  O   UNL     1      -0.795  10.569  20.218  0.00  0.00    +0.000 OA
ATOM     28  O   UNL     1       1.301  10.986  21.557  0.00  0.00    +0.000 OA
ENDBRANCH  19  26
ENDBRANCH   1  22
TORSDOF 3
ENDMDL
MODEL 4
REMARK VINA RESULT:      -9.0      1.185      1.857
REMARK  Name = 
REMARK  4 active torsions:
REMARK  status: ('A' for Active; 'I' for Inactive)
REMARK    1  A    between atoms: C_1  and  S_2
REMARK    2  A    between atoms: S_2  and  C_5
REMARK    3  A    between atoms: C_8  and  C_9
REMARK    4  A    between atoms: C_19  and  C_20
REMARK                            x       y       z     vdW  Elec       q    Type
REMARK                         _______ _______ _______ _____ _____    ______ ____
ROOT
ATOM      1  C   UNL     1       3.701   5.852  17.994  0.00  0.00    +0.000 A 
ATOM      2  O   UNL     1       4.552   6.438  17.060  0.00  0.00    +0.000 OA
ATOM      3  C   UNL     1       5.268   5.598  16.237  0.00  0.00    +0.000 A 
ATOM      4  C   UNL     1       6.335   6.115  15.507  0.00  0.00    +0.000 A 
ATOM      5  C   UNL     1       7.040   5.289  14.619  0.00  0.00    +0.000 A 
ATOM      6  C   UNL     1       6.666   3.958  14.437  0.00  0.00    +0.000 A 
ATOM      7  C   UNL     1       5.610   3.434  15.174  0.00  0.00    +0.000 A 
ATOM      8  C   UNL     1       4.942   4.254  16.089  0.00  0.00    +0.000 A 
ATOM      9  C   UNL     1       3.909   3.687  16.949  0.00  0.00    +0.000 A 
ATOM     10  O   UNL     1       3.451   2.572  16.731  0.00  0.00    +0.000 OA
ATOM     11  C   UNL     1       3.439   4.532  18.073  0.00  0.00    +0.000 A 
ENDROOT
BRANCH  11  12
ATOM     12  C   UNL     1       2.730   3.845  19.163  0.00  0.00    +0.000 A 
ATOM     13  C   UNL     1       3.367   3.487  20.351  0.00  0.00    +0.000 A 
ATOM     14  C   UNL     1       2.610   3.032  21.435  0.00  0.00    +0.000 A 
ATOM     15  C   UNL     1       1.219   2.932  21.336  0.00  0.00    +0.000 A 
ATOM     16  C   UNL     1       0.579   3.260  20.144  0.00  0.00    +0.000 A 
ATOM     17  C   UNL     1       1.338   3.712  19.067  0.00  0.00    +0.000 A 
ATOM     18  F   UNL     1       0.703   4.055  17.934  0.00  0.00    +0.000 F 
ENDBRANCH  11  12
BRANCH   1  22
ATOM     19  C   UNL     1       1.260   8.580  20.173  0.00  0.00    +0.000 A 
ATOM     20  C   UNL     1       1.745   7.442  20.828  0.00  0.00    +0.000 A 
ATOM     21  C   UNL     1       2.602   6.563  20.152  0.00  0.00    +0.000 A 
ATOM     22  C   UNL     1       2.954   6.817  18.822  0.00  0.00    +0.000 A 
ATOM     23  C   UNL     1       2.476   7.979  18.189  0.00  0.00    +0.000 A 
ATOM     24  C   UNL     1       1.622   8.855  18.855  0.00  0.00    +0.000 A 
BRANCH  19  26
ATOM     25  C   UNL     1      -0.814  10.344  19.669  0.00  0.00    +0.000 C 
ATOM     26  S   UNL     1       0.136   9.674  21.008  0.00  0.00    +0.000 S 
ATOM     27  O   UNL     1       0.916  10.744  21.591  0.00  0.00    +0.000 OA
ATOM     28  O   UNL     1      -0.747   8.863  21.823  0.00  0.00    +0.000 OA
ENDBRANCH  19  26
ENDBRANCH   1  22
TORSDOF 3
ENDMDL
MODEL 5
REMARK VINA RESULT:      -8.5      2.837      6.688
REMARK  Name = 
REMARK  4 active torsions:
REMARK  status: ('A' for Active; 'I' for Inactive)
REMARK    1  A    between atoms: C_1  and  S_2
REMARK    2  A    between atoms: S_2  and  C_5
REMARK    3  A    between atoms: C_8  and  C_9
REMARK    4  A    between atoms: C_19  and  C_20
REMARK                            x       y       z     vdW  Elec       q    Type
REMARK                         _______ _______ _______ _____ _____    ______ ____
ROOT
ATOM      1  C   UNL     1       2.658   7.333  18.654  0.00  0.00    +0.000 A 
ATOM      2  O   UNL     1       2.518   8.662  18.261  0.00  0.00    +0.000 OA
ATOM      3  C   UNL     1       1.577   9.422  18.918  0.00  0.00    +0.000 A 
ATOM      4  C   UNL     1       1.196  10.646  18.372  0.00  0.00    +0.000 A 
ATOM      5  C   UNL     1       0.282  11.462  19.054  0.00  0.00    +0.000 A 
ATOM      6  C   UNL     1      -0.229  11.075  20.293  0.00  0.00    +0.000 A 
ATOM      7  C   UNL     1       0.138   9.849  20.835  0.00  0.00    +0.000 A 
ATOM      8  C   UNL     1       1.015   9.023  20.125  0.00  0.00    +0.000 A 
ATOM      9  C   UNL     1       1.318   7.688  20.629  0.00  0.00    +0.000 A 
ATOM     10  O   UNL     1       1.011   7.360  21.769  0.00  0.00    +0.000 OA
ATOM     11  C   UNL     1       2.026   6.771  19.703  0.00  0.00    +0.000 A 
ENDROOT
BRANCH  11  12
ATOM     12  C   UNL     1       1.970   5.337  20.024  0.00  0.00    +0.000 A 
ATOM     13  C   UNL     1       2.338   4.843  21.276  0.00  0.00    +0.000 A 
ATOM     14  C   UNL     1       2.067   3.511  21.604  0.00  0.00    +0.000 A 
ATOM     15  C   UNL     1       1.432   2.670  20.686  0.00  0.00    +0.000 A 
ATOM     16  C   UNL     1       1.088   3.147  19.424  0.00  0.00    +0.000 A 
ATOM     17  C   UNL     1       1.360   4.475  19.102  0.00  0.00    +0.000 A 
ATOM     18  F   UNL     1       0.993   4.929  17.892  0.00  0.00    +0.000 F 
ENDBRANCH  11  12
BRANCH   1  22
ATOM     19  C   UNL     1       5.855   5.495  16.521  0.00  0.00    +0.000 A 
ATOM     20  C   UNL     1       5.557   5.036  17.809  0.00  0.00    +0.000 A 
ATOM     21  C   UNL     1       4.469   5.581  18.506  0.00  0.00    +0.000 A 
ATOM     22  C   UNL     1       3.700   6.591  17.919  0.00  0.00    +0.000 A 
ATOM     23  C   UNL     1       4.000   7.021  16.613  0.00  0.00    +0.000 A 
ATOM     24  C   UNL     1       5.082   6.486  15.917  0.00  0.00    +0.000 A 
BRANCH  19  26
ATOM     25  C   UNL     1       6.514   3.694  14.523  0.00  0.00    +0.000 C 
ATOM     26  S   UNL     1       7.260   4.843  15.649  0.00  0.00    +0.000 S 
ATOM     27  O   UNL     1       8.057   4.097  16.598  0.00  0.00    +0.000 OA
ATOM     28  O   UNL     1       7.838   5.922  14.872  0.00  0.00    +0.000 OA
ENDBRANCH  19  26
ENDBRANCH   1  22
TORSDOF 3
ENDMDL
MODEL 6
REMARK VINA RESULT:      -8.5      2.900      6.662
REMARK  Name = 
REMARK  4 active torsions:
REMARK  status: ('A' for Active; 'I' for Inactive)
REMARK    1  A    between atoms: C_1  and  S_2
REMARK    2  A    between atoms: S_2  and  C_5
REMARK    3  A    between atoms: C_8  and  C_9
REMARK    4  A    between atoms: C_19  and  C_20
REMARK                            x       y       z     vdW  Elec       q    Type
REMARK                         _______ _______ _______ _____ _____    ______ ____
ROOT
ATOM      1  C   UNL     1       2.728   7.589  18.556  0.00  0.00    +0.000 A 
ATOM      2  O   UNL     1       2.476   8.935  18.307  0.00  0.00    +0.000 OA
ATOM      3  C   UNL     1       1.426   9.520  18.979  0.00  0.00    +0.000 A 
ATOM      4  C   UNL     1       0.954  10.758  18.549  0.00  0.00    +0.000 A 
ATOM      5  C   UNL     1      -0.076  11.397  19.255  0.00  0.00    +0.000 A 
ATOM      6  C   UNL     1      -0.614  10.820  20.404  0.00  0.00    +0.000 A 
ATOM      7  C   UNL     1      -0.156   9.578  20.829  0.00  0.00    +0.000 A 
ATOM      8  C   UNL     1       0.840   8.928  20.093  0.00  0.00    +0.000 A 
ATOM      9  C   UNL     1       1.249   7.578  20.463  0.00  0.00    +0.000 A 
ATOM     10  O   UNL     1       0.912   7.090  21.535  0.00  0.00    +0.000 OA
ATOM     11  C   UNL     1       2.098   6.848  19.490  0.00  0.00    +0.000 A 
ENDROOT
BRANCH  11  12
ATOM     12  C   UNL     1       2.170   5.388  19.644  0.00  0.00    +0.000 A 
ATOM     13  C   UNL     1       2.581   4.787  20.834  0.00  0.00    +0.000 A 
ATOM     14  C   UNL     1       2.430   3.407  21.004  0.00  0.00    +0.000 A 
ATOM     15  C   UNL     1       1.872   2.625  19.989  0.00  0.00    +0.000 A 
ATOM     16  C   UNL     1       1.487   3.212  18.787  0.00  0.00    +0.000 A 
ATOM     17  C   UNL     1       1.640   4.587  18.622  0.00  0.00    +0.000 A 
ATOM     18  F   UNL     1       1.234   5.143  17.469  0.00  0.00    +0.000 F 
ENDBRANCH  11  12
BRANCH   1  22
ATOM     19  C   UNL     1       5.923   5.678  16.484  0.00  0.00    +0.000 A 
ATOM     20  C   UNL     1       5.066   6.520  15.766  0.00  0.00    +0.000 A 
ATOM     21  C   UNL     1       4.047   7.210  16.437  0.00  0.00    +0.000 A 
ATOM     22  C   UNL     1       3.880   7.040  17.816  0.00  0.00    +0.000 A 
ATOM     23  C   UNL     1       4.767   6.209  18.524  0.00  0.00    +0.000 A 
ATOM     24  C   UNL     1       5.780   5.518  17.862  0.00  0.00    +0.000 A 
BRANCH  19  26
ATOM     25  C   UNL     1       6.252   3.535  14.762  0.00  0.00    +0.000 C 
ATOM     26  S   UNL     1       7.187   4.764  15.633  0.00  0.00    +0.000 S 
ATOM     27  O   UNL     1       7.995   4.098  16.632  0.00  0.00    +0.000 OA
ATOM     28  O   UNL     1       7.788   5.648  14.654  0.00  0.00    +0.000 OA
ENDBRANCH  19  26
ENDBRANCH   1  22
TORSDOF 3
ENDMDL
MODEL 7
REMARK VINA RESULT:      -8.0      2.725      6.608
REMARK  Name = 
REMARK  4 active torsions:
REMARK  status: ('A' for Active; 'I' for Inactive)
REMARK    1  A    between atoms: C_1  and  S_2
REMARK    2  A    between atoms: S_2  and  C_5
REMARK    3  A    between atoms: C_8  and  C_9
REMARK    4  A    between atoms: C_19  and  C_20
REMARK                            x       y       z     vdW  Elec       q    Type
REMARK                         _______ _______ _______ _____ _____    ______ ____
ROOT
ATOM      1  C   UNL     1       2.577   7.412  18.460  0.00  0.00    +0.000 A 
ATOM      2  O   UNL     1       2.283   8.724  18.099  0.00  0.00    +0.000 OA
ATOM      3  C   UNL     1       1.372   9.407  18.872  0.00  0.00    +0.000 A 
ATOM      4  C   UNL     1       0.829  10.595  18.386  0.00  0.00    +0.000 A 
ATOM      5  C   UNL     1      -0.057  11.335  19.182  0.00  0.00    +0.000 A 
ATOM      6  C   UNL     1      -0.380  10.911  20.471  0.00  0.00    +0.000 A 
ATOM      7  C   UNL     1       0.149   9.719  20.954  0.00  0.00    +0.000 A 
ATOM      8  C   UNL     1       0.996   8.966  20.136  0.00  0.00    +0.000 A 
ATOM      9  C   UNL     1       1.466   7.661  20.588  0.00  0.00    +0.000 A 
ATOM     10  O   UNL     1       1.328   7.311  21.754  0.00  0.00    +0.000 OA
ATOM     11  C   UNL     1       2.126   6.802  19.575  0.00  0.00    +0.000 A 
ENDROOT
BRANCH  11  12
ATOM     12  C   UNL     1       2.226   5.369  19.889  0.00  0.00    +0.000 A 
ATOM     13  C   UNL     1       1.117   4.524  19.853  0.00  0.00    +0.000 A 
ATOM     14  C   UNL     1       1.295   3.140  19.949  0.00  0.00    +0.000 A 
ATOM     15  C   UNL     1       2.576   2.598  20.083  0.00  0.00    +0.000 A 
ATOM     16  C   UNL     1       3.685   3.437  20.149  0.00  0.00    +0.000 A 
ATOM     17  C   UNL     1       3.503   4.814  20.053  0.00  0.00    +0.000 A 
ATOM     18  F   UNL     1       4.586   5.608  20.087  0.00  0.00    +0.000 F 
ENDBRANCH  11  12
BRANCH   1  22
ATOM     19  C   UNL     1       5.686   5.512  16.252  0.00  0.00    +0.000 A 
ATOM     20  C   UNL     1       4.481   4.826  16.442  0.00  0.00    +0.000 A 
ATOM     21  C   UNL     1       3.421   5.454  17.109  0.00  0.00    +0.000 A 
ATOM     22  C   UNL     1       3.577   6.755  17.597  0.00  0.00    +0.000 A 
ATOM     23  C   UNL     1       4.787   7.438  17.375  0.00  0.00    +0.000 A 
ATOM     24  C   UNL     1       5.846   6.818  16.715  0.00  0.00    +0.000 A 
BRANCH  19  26
ATOM     25  C   UNL     1       6.239   3.516  14.414  0.00  0.00    +0.000 C 
ATOM     26  S   UNL     1       7.051   4.706  15.449  0.00  0.00    +0.000 S 
ATOM     27  O   UNL     1       7.798   3.993  16.462  0.00  0.00    +0.000 OA
ATOM     28  O   UNL     1       7.697   5.680  14.591  0.00  0.00    +0.000 OA
ENDBRANCH  19  26
ENDBRANCH   1  22
TORSDOF 3
ENDMDL
MODEL 8
REMARK VINA RESULT:      -7.6      6.598      9.073
REMARK  Name = 
REMARK  4 active torsions:
REMARK  status: ('A' for Active; 'I' for Inactive)
REMARK    1  A    between atoms: C_1  and  S_2
REMARK    2  A    between atoms: S_2  and  C_5
REMARK    3  A    between atoms: C_8  and  C_9
REMARK    4  A    between atoms: C_19  and  C_20
REMARK                            x       y       z     vdW  Elec       q    Type
REMARK                         _______ _______ _______ _____ _____    ______ ____
ROOT
ATOM      1  C   UNL     1      -1.050  13.298  19.598  0.00  0.00    +0.000 A 
ATOM      2  O   UNL     1      -0.966  14.525  18.947  0.00  0.00    +0.000 OA
ATOM      3  C   UNL     1       0.235  15.196  19.009  0.00  0.00    +0.000 A 
ATOM      4  C   UNL     1       0.279  16.538  18.637  0.00  0.00    +0.000 A 
ATOM      5  C   UNL     1       1.503  17.224  18.639  0.00  0.00    +0.000 A 
ATOM      6  C   UNL     1       2.685  16.569  18.982  0.00  0.00    +0.000 A 
ATOM      7  C   UNL     1       2.643  15.234  19.367  0.00  0.00    +0.000 A 
ATOM      8  C   UNL     1       1.412  14.571  19.405  0.00  0.00    +0.000 A 
ATOM      9  C   UNL     1       1.340  13.206  19.915  0.00  0.00    +0.000 A 
ATOM     10  O   UNL     1       2.357  12.546  20.092  0.00  0.00    +0.000 OA
ATOM     11  C   UNL     1      -0.014  12.666  20.185  0.00  0.00    +0.000 A 
ENDROOT
BRANCH  11  12
ATOM     12  C   UNL     1      -0.091  11.490  21.065  0.00  0.00    +0.000 A 
ATOM     13  C   UNL     1      -0.520  11.582  22.389  0.00  0.00    +0.000 A 
ATOM     14  C   UNL     1      -0.779  10.417  23.117  0.00  0.00    +0.000 A 
ATOM     15  C   UNL     1      -0.611   9.160  22.529  0.00  0.00    +0.000 A 
ATOM     16  C   UNL     1      -0.155   9.060  21.217  0.00  0.00    +0.000 A 
ATOM     17  C   UNL     1       0.102  10.223  20.496  0.00  0.00    +0.000 A 
ATOM     18  F   UNL     1       0.511  10.110  19.221  0.00  0.00    +0.000 F 
ENDBRANCH  11  12
BRANCH   1  22
ATOM     19  C   UNL     1      -4.972  11.696  19.150  0.00  0.00    +0.000 A 
ATOM     20  C   UNL     1      -3.973  11.285  18.259  0.00  0.00    +0.000 A 
ATOM     21  C   UNL     1      -2.661  11.748  18.425  0.00  0.00    +0.000 A 
ATOM     22  C   UNL     1      -2.360  12.631  19.467  0.00  0.00    +0.000 A 
ATOM     23  C   UNL     1      -3.372  13.013  20.367  0.00  0.00    +0.000 A 
ATOM     24  C   UNL     1      -4.679  12.558  20.205  0.00  0.00    +0.000 A 
BRANCH  19  26
ATOM     25  C   UNL     1      -7.455  11.761  20.374  0.00  0.00    +0.000 C 
ATOM     26  S   UNL     1      -6.647  11.150  18.918  0.00  0.00    +0.000 S 
ATOM     27  O   UNL     1      -6.650   9.705  18.970  0.00  0.00    +0.000 OA
ATOM     28  O   UNL     1      -7.189  11.858  17.774  0.00  0.00    +0.000 OA
ENDBRANCH  19  26
ENDBRANCH   1  22
TORSDOF 3
ENDMDL
MODEL 9
REMARK VINA RESULT:      -7.4      6.704      9.045
REMARK  Name = 
REMARK  4 active torsions:
REMARK  status: ('A' for Active; 'I' for Inactive)
REMARK    1  A    between atoms: C_1  and  S_2
REMARK    2  A    between atoms: S_2  and  C_5
REMARK    3  A    between atoms: C_8  and  C_9
REMARK    4  A    between atoms: C_19  and  C_20
REMARK                            x       y       z     vdW  Elec       q    Type
REMARK                         _______ _______ _______ _____ _____    ______ ____
ROOT
ATOM      1  C   UNL     1       0.550  13.551  21.342  0.00  0.00    +0.000 A 
ATOM      2  O   UNL     1       1.479  14.290  22.069  0.00  0.00    +0.000 OA
ATOM      3  C   UNL     1       2.706  14.516  21.486  0.00  0.00    +0.000 A 
ATOM      4  C   UNL     1       3.754  14.982  22.277  0.00  0.00    +0.000 A 
ATOM      5  C   UNL     1       4.995  15.274  21.693  0.00  0.00    +0.000 A 
ATOM      6  C   UNL     1       5.185  15.131  20.318  0.00  0.00    +0.000 A 
ATOM      7  C   UNL     1       4.146  14.652  19.528  0.00  0.00    +0.000 A 
ATOM      8  C   UNL     1       2.927  14.322  20.127  0.00  0.00    +0.000 A 
ATOM      9  C   UNL     1       1.869  13.714  19.328  0.00  0.00    +0.000 A 
ATOM     10  O   UNL     1       1.934  13.699  18.105  0.00  0.00    +0.000 OA
ATOM     11  C   UNL     1       0.719  13.141  20.069  0.00  0.00    +0.000 A 
ENDROOT
BRANCH  11  12
ATOM     12  C   UNL     1      -0.125  12.184  19.339  0.00  0.00    +0.000 A 
ATOM     13  C   UNL     1      -1.174  12.597  18.518  0.00  0.00    +0.000 A 
ATOM     14  C   UNL     1      -1.808  11.673  17.682  0.00  0.00    +0.000 A 
ATOM     15  C   UNL     1      -1.399  10.337  17.664  0.00  0.00    +0.000 A 
ATOM     16  C   UNL     1      -0.372   9.910  18.502  0.00  0.00    +0.000 A 
ATOM     17  C   UNL     1       0.256  10.835  19.333  0.00  0.00    +0.000 A 
ATOM     18  F   UNL     1       1.266  10.414  20.112  0.00  0.00    +0.000 F 
ENDBRANCH  11  12
BRANCH   1  22
ATOM     19  C   UNL     1      -3.347  13.033  22.984  0.00  0.00    +0.000 A 
ATOM     20  C   UNL     1      -2.402  12.017  23.166  0.00  0.00    +0.000 A 
ATOM     21  C   UNL     1      -1.095  12.191  22.691  0.00  0.00    +0.000 A 
ATOM     22  C   UNL     1      -0.746  13.370  22.023  0.00  0.00    +0.000 A 
ATOM     23  C   UNL     1      -1.704  14.389  21.872  0.00  0.00    +0.000 A 
ATOM     24  C   UNL     1      -3.005  14.221  22.339  0.00  0.00    +0.000 A 
BRANCH  19  26
ATOM     25  C   UNL     1      -5.569  14.465  23.809  0.00  0.00    +0.000 C 
ATOM     26  S   UNL     1      -5.019  12.801  23.542  0.00  0.00    +0.000 S 
ATOM     27  O   UNL     1      -4.965  12.129  24.821  0.00  0.00    +0.000 OA
ATOM     28  O   UNL     1      -5.780  12.248  22.438  0.00  0.00    +0.000 OA
ENDBRANCH  19  26
ENDBRANCH   1  22
TORSDOF 3
ENDMDL
