MODEL 1
REMARK VINA RESULT:      -8.3      0.000      0.000
REMARK  Name = 
REMARK  7 active torsions:
REMARK  status: ('A' for Active; 'I' for Inactive)
REMARK    1  A    between atoms: C_1  and  C_2
REMARK    2  A    between atoms: C_17  and  C_18
REMARK    3  A    between atoms: C_19  and  C_20
REMARK    4  A    between atoms: C_20  and  C_21
REMARK    5  A    between atoms: C_21  and  C_22
REMARK    6  A    between atoms: N_24  and  C_25
REMARK    7  A    between atoms: C_25  and  C_26
REMARK                            x       y       z     vdW  Elec       q    Type
REMARK                         _______ _______ _______ _____ _____    ______ ____
ROOT
ATOM      1  C   UNL     1       1.295   2.691  21.404  0.00  0.00    +0.000 C 
ATOM      2  C   UNL     1       1.828   3.943  20.800  0.00  0.00    +0.000 A 
ATOM      3  N   UNL     1       1.281   5.117  21.128  0.00  0.00    +0.000 NA
ATOM      4  N   UNL     1       1.948   6.052  20.386  0.00  0.00    +0.000 N 
ATOM      5  C   UNL     1       1.519   7.420  20.396  0.00  0.00    +0.000 A 
ATOM      6  C   UNL     1       0.539   7.849  21.276  0.00  0.00    +0.000 A 
ATOM      7  C   UNL     1       0.078   9.174  21.190  0.00  0.00    +0.000 A 
ATOM      8  C   UNL     1       0.573  10.046  20.225  0.00  0.00    +0.000 A 
ATOM      9  N   UNL     1       0.076  11.321  20.055  0.00  0.00    +0.000 N 
ATOM     10  C   UNL     1       0.119  11.937  18.728  0.00  0.00    +0.000 C 
ATOM     11  C   UNL     1       0.904  13.245  18.768  0.00  0.00    +0.000 C 
ATOM     12  C   UNL     1       0.399  14.168  19.876  0.00  0.00    +0.000 C 
ATOM     13  C   UNL     1       0.379  13.444  21.221  0.00  0.00    +0.000 C 
ATOM     14  C   UNL     1      -0.420  12.141  21.151  0.00  0.00    +0.000 C 
ATOM     15  N   UNL     1       1.540   9.583  19.406  0.00  0.00    +0.000 NA
ATOM     16  N   UNL     1       2.021   8.281  19.495  0.00  0.00    +0.000 NA
ATOM     17  C   UNL     1       2.983   5.457  19.667  0.00  0.00    +0.000 A 
ATOM     18  C   UNL     1       3.993   6.178  18.840  0.00  0.00    +0.000 C 
ATOM     19  C   UNL     1       2.910   4.086  19.898  0.00  0.00    +0.000 A 
ENDROOT
BRANCH  19  20
ATOM     20  C   UNL     1       3.853   3.044  19.364  0.00  0.00    +0.000 C 
BRANCH  20  21
ATOM     21  C   UNL     1       3.585   2.565  17.939  0.00  0.00    +0.000 C 
BRANCH  21  22
ATOM     22  C   UNL     1       4.280   3.463  16.929  0.00  0.00    +0.000 C 
ATOM     23  O   UNL     1       3.672   4.141  16.101  0.00  0.00    +0.000 OA
ATOM     24  N   UNL     1       5.653   3.455  17.014  0.00  0.00    +0.000 N 
ATOM     25  H   UNL     1       6.094   3.034  17.821  0.00  0.00    +0.000 HD
BRANCH  24  26
ATOM     26  C   UNL     1       6.452   4.328  16.179  0.00  0.00    +0.000 C 
BRANCH  26  27
ATOM     27  C   UNL     1       7.072   5.452  16.974  0.00  0.00    +0.000 A 
ATOM     28  C   UNL     1       7.173   6.737  16.418  0.00  0.00    +0.000 A 
ATOM     29  C   UNL     1       7.731   7.784  17.160  0.00  0.00    +0.000 A 
ATOM     30  C   UNL     1       8.196   7.545  18.445  0.00  0.00    +0.000 A 
ATOM     31  F   UNL     1       8.726   8.551  19.155  0.00  0.00    +0.000 F 
ATOM     32  C   UNL     1       8.118   6.276  19.009  0.00  0.00    +0.000 A 
ATOM     33  C   UNL     1       7.558   5.229  18.272  0.00  0.00    +0.000 A 
ENDBRANCH  26  27
ENDBRANCH  24  26
ENDBRANCH  21  22
ENDBRANCH  20  21
ENDBRANCH  19  20
TORSDOF 5
ENDMDL
MODEL 2
REMARK VINA RESULT:      -8.2      3.919      9.703
REMARK  Name = 
REMARK  7 active torsions:
REMARK  status: ('A' for Active; 'I' for Inactive)
REMARK    1  A    between atoms: C_1  and  C_2
REMARK    2  A    between atoms: C_17  and  C_18
REMARK    3  A    between atoms: C_19  and  C_20
REMARK    4  A    between atoms: C_20  and  C_21
REMARK    5  A    between atoms: C_21  and  C_22
REMARK    6  A    between atoms: N_24  and  C_25
REMARK    7  A    between atoms: C_25  and  C_26
REMARK                            x       y       z     vdW  Elec       q    Type
REMARK                         _______ _______ _______ _____ _____    ______ ____
ROOT
ATOM      1  C   UNL     1       0.025  13.795  19.200  0.00  0.00    +0.000 C 
ATOM      2  C   UNL     1       0.292  12.499  19.882  0.00  0.00    +0.000 A 
ATOM      3  N   UNL     1       0.944  11.532  19.229  0.00  0.00    +0.000 NA
ATOM      4  N   UNL     1       0.989  10.473  20.091  0.00  0.00    +0.000 N 
ATOM      5  C   UNL     1       1.509   9.210  19.655  0.00  0.00    +0.000 A 
ATOM      6  C   UNL     1       2.124   9.085  18.420  0.00  0.00    +0.000 A 
ATOM      7  C   UNL     1       2.535   7.813  17.988  0.00  0.00    +0.000 A 
ATOM      8  C   UNL     1       2.313   6.682  18.769  0.00  0.00    +0.000 A 
ATOM      9  N   UNL     1       2.620   5.410  18.334  0.00  0.00    +0.000 N 
ATOM     10  C   UNL     1       1.836   4.276  18.824  0.00  0.00    +0.000 C 
ATOM     11  C   UNL     1       2.737   3.257  19.516  0.00  0.00    +0.000 C 
ATOM     12  C   UNL     1       3.924   2.870  18.635  0.00  0.00    +0.000 C 
ATOM     13  C   UNL     1       4.680   4.112  18.163  0.00  0.00    +0.000 C 
ATOM     14  C   UNL     1       3.751   5.109  17.468  0.00  0.00    +0.000 C 
ATOM     15  N   UNL     1       1.728   6.862  19.972  0.00  0.00    +0.000 NA
ATOM     16  N   UNL     1       1.336   8.119  20.421  0.00  0.00    +0.000 NA
ATOM     17  C   UNL     1       0.445  10.824  21.325  0.00  0.00    +0.000 A 
ATOM     18  C   UNL     1       0.428   9.965  22.543  0.00  0.00    +0.000 C 
ATOM     19  C   UNL     1      -0.038  12.124  21.207  0.00  0.00    +0.000 A 
ENDROOT
BRANCH  19  20
ATOM     20  C   UNL     1      -0.671  12.939  22.301  0.00  0.00    +0.000 C 
BRANCH  20  21
ATOM     21  C   UNL     1      -1.895  13.761  21.902  0.00  0.00    +0.000 C 
BRANCH  21  22
ATOM     22  C   UNL     1      -2.986  12.864  21.341  0.00  0.00    +0.000 C 
ATOM     23  O   UNL     1      -3.598  12.041  22.023  0.00  0.00    +0.000 OA
ATOM     24  N   UNL     1      -3.234  13.044  20.001  0.00  0.00    +0.000 N 
ATOM     25  H   UNL     1      -2.844  13.851  19.531  0.00  0.00    +0.000 HD
BRANCH  24  26
ATOM     26  C   UNL     1      -4.307  12.327  19.342  0.00  0.00    +0.000 C 
BRANCH  26  27
ATOM     27  C   UNL     1      -3.806  11.527  18.164  0.00  0.00    +0.000 A 
ATOM     28  C   UNL     1      -4.540  11.499  16.967  0.00  0.00    +0.000 A 
ATOM     29  C   UNL     1      -4.069  10.772  15.868  0.00  0.00    +0.000 A 
ATOM     30  C   UNL     1      -2.878  10.068  15.970  0.00  0.00    +0.000 A 
ATOM     31  F   UNL     1      -2.426   9.375  14.914  0.00  0.00    +0.000 F 
ATOM     32  C   UNL     1      -2.143  10.070  17.151  0.00  0.00    +0.000 A 
ATOM     33  C   UNL     1      -2.610  10.798  18.249  0.00  0.00    +0.000 A 
ENDBRANCH  26  27
ENDBRANCH  24  26
ENDBRANCH  21  22
ENDBRANCH  20  21
ENDBRANCH  19  20
TORSDOF 5
ENDMDL
MODEL 3
REMARK VINA RESULT:      -8.2      2.543      3.275
REMARK  Name = 
REMARK  7 active torsions:
REMARK  status: ('A' for Active; 'I' for Inactive)
REMARK    1  A    between atoms: C_1  and  C_2
REMARK    2  A    between atoms: C_17  and  C_18
REMARK    3  A    between atoms: C_19  and  C_20
REMARK    4  A    between atoms: C_20  and  C_21
REMARK    5  A    between atoms: C_21  and  C_22
REMARK    6  A    between atoms: N_24  and  C_25
REMARK    7  A    between atoms: C_25  and  C_26
REMARK                            x       y       z     vdW  Elec       q    Type
REMARK                         _______ _______ _______ _____ _____    ______ ____
ROOT
ATOM      1  C   UNL     1       1.786   4.123  21.172  0.00  0.00    +0.000 C 
ATOM      2  C   UNL     1       1.924   5.435  20.482  0.00  0.00    +0.000 A 
ATOM      3  N   UNL     1       1.437   6.537  21.059  0.00  0.00    +0.000 NA
ATOM      4  N   UNL     1       1.674   7.551  20.173  0.00  0.00    +0.000 N 
ATOM      5  C   UNL     1       1.155   8.863  20.423  0.00  0.00    +0.000 A 
ATOM      6  C   UNL     1       0.554   9.169  21.633  0.00  0.00    +0.000 A 
ATOM      7  C   UNL     1      -0.027  10.437  21.805  0.00  0.00    +0.000 A 
ATOM      8  C   UNL     1      -0.028  11.372  20.774  0.00  0.00    +0.000 A 
ATOM      9  N   UNL     1      -0.671  12.588  20.878  0.00  0.00    +0.000 N 
ATOM     10  C   UNL     1      -1.201  13.226  19.673  0.00  0.00    +0.000 C 
ATOM     11  C   UNL     1      -0.590  14.611  19.483  0.00  0.00    +0.000 C 
ATOM     12  C   UNL     1      -0.713  15.456  20.750  0.00  0.00    +0.000 C 
ATOM     13  C   UNL     1      -0.144  14.714  21.958  0.00  0.00    +0.000 C 
ATOM     14  C   UNL     1      -0.781  13.333  22.126  0.00  0.00    +0.000 C 
ATOM     15  N   UNL     1       0.587  11.030  19.623  0.00  0.00    +0.000 NA
ATOM     16  N   UNL     1       1.186   9.787  19.448  0.00  0.00    +0.000 NA
ATOM     17  C   UNL     1       2.403   7.083  19.081  0.00  0.00    +0.000 A 
ATOM     18  C   UNL     1       2.942   7.922  17.973  0.00  0.00    +0.000 C 
ATOM     19  C   UNL     1       2.555   5.709  19.244  0.00  0.00    +0.000 A 
ENDROOT
BRANCH  19  20
ATOM     20  C   UNL     1       3.313   4.785  18.333  0.00  0.00    +0.000 C 
BRANCH  20  21
ATOM     21  C   UNL     1       4.535   4.098  18.940  0.00  0.00    +0.000 C 
BRANCH  21  22
ATOM     22  C   UNL     1       5.806   4.543  18.236  0.00  0.00    +0.000 C 
ATOM     23  O   UNL     1       6.934   4.242  18.628  0.00  0.00    +0.000 OA
ATOM     24  N   UNL     1       5.594   5.316  17.118  0.00  0.00    +0.000 N 
ATOM     25  H   UNL     1       4.661   5.379  16.732  0.00  0.00    +0.000 HD
BRANCH  24  26
ATOM     26  C   UNL     1       6.703   5.741  16.289  0.00  0.00    +0.000 C 
BRANCH  26  27
ATOM     27  C   UNL     1       6.699   5.048  14.947  0.00  0.00    +0.000 A 
ATOM     28  C   UNL     1       7.623   5.420  13.958  0.00  0.00    +0.000 A 
ATOM     29  C   UNL     1       7.632   4.768  12.720  0.00  0.00    +0.000 A 
ATOM     30  C   UNL     1       6.715   3.757  12.469  0.00  0.00    +0.000 A 
ATOM     31  F   UNL     1       6.728   3.130  11.284  0.00  0.00    +0.000 F 
ATOM     32  C   UNL     1       5.781   3.383  13.430  0.00  0.00    +0.000 A 
ATOM     33  C   UNL     1       5.772   4.031  14.668  0.00  0.00    +0.000 A 
ENDBRANCH  26  27
ENDBRANCH  24  26
ENDBRANCH  21  22
ENDBRANCH  20  21
ENDBRANCH  19  20
TORSDOF 5
ENDMDL
MODEL 4
REMARK VINA RESULT:      -8.0      3.964      9.349
REMARK  Name = 
REMARK  7 active torsions:
REMARK  status: ('A' for Active; 'I' for Inactive)
REMARK    1  A    between atoms: C_1  and  C_2
REMARK    2  A    between atoms: C_17  and  C_18
REMARK    3  A    between atoms: C_19  and  C_20
REMARK    4  A    between atoms: C_20  and  C_21
REMARK    5  A    between atoms: C_21  and  C_22
REMARK    6  A    between atoms: N_24  and  C_25
REMARK    7  A    between atoms: C_25  and  C_26
REMARK                            x       y       z     vdW  Elec       q    Type
REMARK                         _______ _______ _______ _____ _____    ______ ____
ROOT
ATOM      1  C   UNL     1      -0.196   9.558  23.490  0.00  0.00    +0.000 C 
ATOM      2  C   UNL     1       0.340   9.574  22.101  0.00  0.00    +0.000 A 
ATOM      3  N   UNL     1       0.880   8.463  21.591  0.00  0.00    +0.000 NA
ATOM      4  N   UNL     1       1.314   8.807  20.341  0.00  0.00    +0.000 N 
ATOM      5  C   UNL     1       2.069   7.874  19.558  0.00  0.00    +0.000 A 
ATOM      6  C   UNL     1       2.228   6.563  19.976  0.00  0.00    +0.000 A 
ATOM      7  C   UNL     1       3.053   5.704  19.231  0.00  0.00    +0.000 A 
ATOM      8  C   UNL     1       3.727   6.158  18.100  0.00  0.00    +0.000 A 
ATOM      9  N   UNL     1       4.616   5.368  17.402  0.00  0.00    +0.000 N 
ATOM     10  C   UNL     1       5.730   5.996  16.691  0.00  0.00    +0.000 C 
ATOM     11  C   UNL     1       5.685   5.649  15.206  0.00  0.00    +0.000 C 
ATOM     12  C   UNL     1       5.567   4.142  14.986  0.00  0.00    +0.000 C 
ATOM     13  C   UNL     1       4.386   3.568  15.768  0.00  0.00    +0.000 C 
ATOM     14  C   UNL     1       4.464   3.927  17.254  0.00  0.00    +0.000 C 
ATOM     15  N   UNL     1       3.523   7.438  17.726  0.00  0.00    +0.000 NA
ATOM     16  N   UNL     1       2.690   8.292  18.442  0.00  0.00    +0.000 NA
ATOM     17  C   UNL     1       0.951  10.119  20.042  0.00  0.00    +0.000 A 
ATOM     18  C   UNL     1       1.152  10.799  18.731  0.00  0.00    +0.000 C 
ATOM     19  C   UNL     1       0.341  10.647  21.177  0.00  0.00    +0.000 A 
ENDROOT
BRANCH  19  20
ATOM     20  C   UNL     1      -0.255  12.021  21.307  0.00  0.00    +0.000 C 
BRANCH  20  21
ATOM     21  C   UNL     1      -1.466  12.142  22.231  0.00  0.00    +0.000 C 
BRANCH  21  22
ATOM     22  C   UNL     1      -2.750  12.232  21.424  0.00  0.00    +0.000 C 
ATOM     23  O   UNL     1      -3.852  12.439  21.932  0.00  0.00    +0.000 OA
ATOM     24  N   UNL     1      -2.582  12.059  20.069  0.00  0.00    +0.000 N 
ATOM     25  H   UNL     1      -1.647  12.079  19.682  0.00  0.00    +0.000 HD
BRANCH  24  26
ATOM     26  C   UNL     1      -3.698  12.207  19.158  0.00  0.00    +0.000 C 
BRANCH  26  27
ATOM     27  C   UNL     1      -3.453  11.495  17.850  0.00  0.00    +0.000 A 
ATOM     28  C   UNL     1      -4.371  11.621  16.795  0.00  0.00    +0.000 A 
ATOM     29  C   UNL     1      -4.137  10.976  15.576  0.00  0.00    +0.000 A 
ATOM     30  C   UNL     1      -2.998  10.200  15.416  0.00  0.00    +0.000 A 
ATOM     31  F   UNL     1      -2.773   9.586  14.246  0.00  0.00    +0.000 F 
ATOM     32  C   UNL     1      -2.083  10.050  16.454  0.00  0.00    +0.000 A 
ATOM     33  C   UNL     1      -2.313  10.696  17.671  0.00  0.00    +0.000 A 
ENDBRANCH  26  27
ENDBRANCH  24  26
ENDBRANCH  21  22
ENDBRANCH  20  21
ENDBRANCH  19  20
TORSDOF 5
ENDMDL
MODEL 5
REMARK VINA RESULT:      -8.0      3.052      5.229
REMARK  Name = 
REMARK  7 active torsions:
REMARK  status: ('A' for Active; 'I' for Inactive)
REMARK    1  A    between atoms: C_1  and  C_2
REMARK    2  A    between atoms: C_17  and  C_18
REMARK    3  A    between atoms: C_19  and  C_20
REMARK    4  A    between atoms: C_20  and  C_21
REMARK    5  A    between atoms: C_21  and  C_22
REMARK    6  A    between atoms: N_24  and  C_25
REMARK    7  A    between atoms: C_25  and  C_26
REMARK                            x       y       z     vdW  Elec       q    Type
REMARK                         _______ _______ _______ _____ _____    ______ ____
ROOT
ATOM      1  C   UNL     1       2.083   6.331  20.615  0.00  0.00    +0.000 C 
ATOM      2  C   UNL     1       1.650   7.688  20.183  0.00  0.00    +0.000 A 
ATOM      3  N   UNL     1       1.079   8.511  21.068  0.00  0.00    +0.000 NA
ATOM      4  N   UNL     1       0.759   9.640  20.366  0.00  0.00    +0.000 N 
ATOM      5  C   UNL     1       0.004  10.686  20.990  0.00  0.00    +0.000 A 
ATOM      6  C   UNL     1      -0.267  10.652  22.349  0.00  0.00    +0.000 A 
ATOM      7  C   UNL     1      -1.089  11.646  22.906  0.00  0.00    +0.000 A 
ATOM      8  C   UNL     1      -1.650  12.642  22.112  0.00  0.00    +0.000 A 
ATOM      9  N   UNL     1      -2.535  13.576  22.610  0.00  0.00    +0.000 N 
ATOM     10  C   UNL     1      -3.552  14.144  21.726  0.00  0.00    +0.000 C 
ATOM     11  C   UNL     1      -3.423  15.663  21.663  0.00  0.00    +0.000 C 
ATOM     12  C   UNL     1      -3.385  16.281  23.060  0.00  0.00    +0.000 C 
ATOM     13  C   UNL     1      -2.302  15.625  23.916  0.00  0.00    +0.000 C 
ATOM     14  C   UNL     1      -2.463  14.104  23.966  0.00  0.00    +0.000 C 
ATOM     15  N   UNL     1      -1.339  12.641  20.799  0.00  0.00    +0.000 NA
ATOM     16  N   UNL     1      -0.507  11.676  20.239  0.00  0.00    +0.000 NA
ATOM     17  C   UNL     1       1.225   9.549  19.056  0.00  0.00    +0.000 A 
ATOM     18  C   UNL     1       1.162  10.632  18.034  0.00  0.00    +0.000 C 
ATOM     19  C   UNL     1       1.784   8.282  18.904  0.00  0.00    +0.000 A 
ENDROOT
BRANCH  19  20
ATOM     20  C   UNL     1       2.454   7.750  17.669  0.00  0.00    +0.000 C 
BRANCH  20  21
ATOM     21  C   UNL     1       3.966   7.551  17.759  0.00  0.00    +0.000 C 
BRANCH  21  22
ATOM     22  C   UNL     1       4.300   6.098  18.053  0.00  0.00    +0.000 C 
ATOM     23  O   UNL     1       5.228   5.754  18.784  0.00  0.00    +0.000 OA
ATOM     24  N   UNL     1       3.477   5.190  17.427  0.00  0.00    +0.000 N 
ATOM     25  H   UNL     1       2.624   5.516  16.992  0.00  0.00    +0.000 HD
BRANCH  24  26
ATOM     26  C   UNL     1       3.612   3.770  17.679  0.00  0.00    +0.000 C 
BRANCH  26  27
ATOM     27  C   UNL     1       2.862   3.346  18.919  0.00  0.00    +0.000 A 
ATOM     28  C   UNL     1       3.565   2.980  20.078  0.00  0.00    +0.000 A 
ATOM     29  C   UNL     1       2.871   2.604  21.233  0.00  0.00    +0.000 A 
ATOM     30  C   UNL     1       1.483   2.581  21.226  0.00  0.00    +0.000 A 
ATOM     31  F   UNL     1       0.821   2.224  22.335  0.00  0.00    +0.000 F 
ATOM     32  C   UNL     1       0.768   2.926  20.083  0.00  0.00    +0.000 A 
ATOM     33  C   UNL     1       1.459   3.306  18.929  0.00  0.00    +0.000 A 
ENDBRANCH  26  27
ENDBRANCH  24  26
ENDBRANCH  21  22
ENDBRANCH  20  21
ENDBRANCH  19  20
TORSDOF 5
ENDMDL
MODEL 6
REMARK VINA RESULT:      -7.9      3.892      6.483
REMARK  Name = 
REMARK  7 active torsions:
REMARK  status: ('A' for Active; 'I' for Inactive)
REMARK    1  A    between atoms: C_1  and  C_2
REMARK    2  A    between atoms: C_17  and  C_18
REMARK    3  A    between atoms: C_19  and  C_20
REMARK    4  A    between atoms: C_20  and  C_21
REMARK    5  A    between atoms: C_21  and  C_22
REMARK    6  A    between atoms: N_24  and  C_25
REMARK    7  A    between atoms: C_25  and  C_26
REMARK                            x       y       z     vdW  Elec       q    Type
REMARK                         _______ _______ _______ _____ _____    ______ ____
ROOT
ATOM      1  C   UNL     1       1.402   8.173  21.137  0.00  0.00    +0.000 C 
ATOM      2  C   UNL     1       0.605   9.327  20.636  0.00  0.00    +0.000 A 
ATOM      3  N   UNL     1      -0.046  10.106  21.505  0.00  0.00    +0.000 NA
ATOM      4  N   UNL     1      -0.709  11.029  20.745  0.00  0.00    +0.000 N 
ATOM      5  C   UNL     1      -1.620  11.948  21.361  0.00  0.00    +0.000 A 
ATOM      6  C   UNL     1      -1.720  12.031  22.740  0.00  0.00    +0.000 A 
ATOM      7  C   UNL     1      -2.691  12.875  23.305  0.00  0.00    +0.000 A 
ATOM      8  C   UNL     1      -3.564  13.604  22.502  0.00  0.00    +0.000 A 
ATOM      9  N   UNL     1      -4.587  14.367  23.023  0.00  0.00    +0.000 N 
ATOM     10  C   UNL     1      -5.806  14.567  22.238  0.00  0.00    +0.000 C 
ATOM     11  C   UNL     1      -6.058  16.053  22.005  0.00  0.00    +0.000 C 
ATOM     12  C   UNL     1      -6.015  16.841  23.314  0.00  0.00    +0.000 C 
ATOM     13  C   UNL     1      -4.716  16.568  24.071  0.00  0.00    +0.000 C 
ATOM     14  C   UNL     1      -4.495  15.071  24.295  0.00  0.00    +0.000 C 
ATOM     15  N   UNL     1      -3.412  13.501  21.165  0.00  0.00    +0.000 NA
ATOM     16  N   UNL     1      -2.439  12.687  20.594  0.00  0.00    +0.000 NA
ATOM     17  C   UNL     1      -0.385  10.876  19.399  0.00  0.00    +0.000 A 
ATOM     18  C   UNL     1      -0.825  11.773  18.292  0.00  0.00    +0.000 C 
ATOM     19  C   UNL     1       0.444   9.762  19.298  0.00  0.00    +0.000 A 
ENDROOT
BRANCH  19  20
ATOM     20  C   UNL     1       1.081   9.240  18.040  0.00  0.00    +0.000 C 
BRANCH  20  21
ATOM     21  C   UNL     1       2.605   9.137  18.053  0.00  0.00    +0.000 C 
BRANCH  21  22
ATOM     22  C   UNL     1       3.052   7.730  17.692  0.00  0.00    +0.000 C 
ATOM     23  O   UNL     1       4.115   7.487  17.122  0.00  0.00    +0.000 OA
ATOM     24  N   UNL     1       2.164   6.744  18.053  0.00  0.00    +0.000 N 
ATOM     25  H   UNL     1       1.401   6.971  18.677  0.00  0.00    +0.000 HD
BRANCH  24  26
ATOM     26  C   UNL     1       2.489   5.346  17.857  0.00  0.00    +0.000 C 
BRANCH  26  27
ATOM     27  C   UNL     1       2.105   4.508  19.053  0.00  0.00    +0.000 A 
ATOM     28  C   UNL     1       1.311   3.362  18.886  0.00  0.00    +0.000 A 
ATOM     29  C   UNL     1       0.969   2.575  19.991  0.00  0.00    +0.000 A 
ATOM     30  C   UNL     1       1.409   2.937  21.256  0.00  0.00    +0.000 A 
ATOM     31  F   UNL     1       1.083   2.178  22.313  0.00  0.00    +0.000 F 
ATOM     32  C   UNL     1       2.185   4.076  21.445  0.00  0.00    +0.000 A 
ATOM     33  C   UNL     1       2.530   4.863  20.343  0.00  0.00    +0.000 A 
ENDBRANCH  26  27
ENDBRANCH  24  26
ENDBRANCH  21  22
ENDBRANCH  20  21
ENDBRANCH  19  20
TORSDOF 5
ENDMDL
MODEL 7
REMARK VINA RESULT:      -7.9      3.022      3.970
REMARK  Name = 
REMARK  7 active torsions:
REMARK  status: ('A' for Active; 'I' for Inactive)
REMARK    1  A    between atoms: C_1  and  C_2
REMARK    2  A    between atoms: C_17  and  C_18
REMARK    3  A    between atoms: C_19  and  C_20
REMARK    4  A    between atoms: C_20  and  C_21
REMARK    5  A    between atoms: C_21  and  C_22
REMARK    6  A    between atoms: N_24  and  C_25
REMARK    7  A    between atoms: C_25  and  C_26
REMARK                            x       y       z     vdW  Elec       q    Type
REMARK                         _______ _______ _______ _____ _____    ______ ____
ROOT
ATOM      1  C   UNL     1       2.986   3.625  20.218  0.00  0.00    +0.000 C 
ATOM      2  C   UNL     1       2.869   5.036  19.758  0.00  0.00    +0.000 A 
ATOM      3  N   UNL     1       2.156   5.908  20.478  0.00  0.00    +0.000 NA
ATOM      4  N   UNL     1       2.202   7.083  19.781  0.00  0.00    +0.000 N 
ATOM      5  C   UNL     1       1.421   8.206  20.211  0.00  0.00    +0.000 A 
ATOM      6  C   UNL     1       0.746   8.179  21.420  0.00  0.00    +0.000 A 
ATOM      7  C   UNL     1      -0.084   9.260  21.763  0.00  0.00    +0.000 A 
ATOM      8  C   UNL     1      -0.253  10.338  20.898  0.00  0.00    +0.000 A 
ATOM      9  N   UNL     1      -1.131  11.368  21.163  0.00  0.00    +0.000 N 
ATOM     10  C   UNL     1      -1.754  12.083  20.049  0.00  0.00    +0.000 C 
ATOM     11  C   UNL     1      -1.434  13.573  20.119  0.00  0.00    +0.000 C 
ATOM     12  C   UNL     1      -1.752  14.151  21.497  0.00  0.00    +0.000 C 
ATOM     13  C   UNL     1      -1.068  13.342  22.598  0.00  0.00    +0.000 C 
ATOM     14  C   UNL     1      -1.415  11.854  22.506  0.00  0.00    +0.000 C 
ATOM     15  N   UNL     1       0.442  10.323  19.742  0.00  0.00    +0.000 NA
ATOM     16  N   UNL     1       1.285   9.270  19.401  0.00  0.00    +0.000 NA
ATOM     17  C   UNL     1       3.032   6.959  18.669  0.00  0.00    +0.000 A 
ATOM     18  C   UNL     1       3.413   8.063  17.742  0.00  0.00    +0.000 C 
ATOM     19  C   UNL     1       3.456   5.635  18.617  0.00  0.00    +0.000 A 
ENDROOT
BRANCH  19  20
ATOM     20  C   UNL     1       4.405   5.045  17.610  0.00  0.00    +0.000 C 
BRANCH  20  21
ATOM     21  C   UNL     1       5.837   4.819  18.091  0.00  0.00    +0.000 C 
BRANCH  21  22
ATOM     22  C   UNL     1       6.805   4.827  16.920  0.00  0.00    +0.000 C 
ATOM     23  O   UNL     1       7.929   4.327  16.971  0.00  0.00    +0.000 OA
ATOM     24  N   UNL     1       6.322   5.447  15.790  0.00  0.00    +0.000 N 
ATOM     25  H   UNL     1       5.338   5.674  15.735  0.00  0.00    +0.000 HD
BRANCH  24  26
ATOM     26  C   UNL     1       7.093   5.457  14.564  0.00  0.00    +0.000 C 
BRANCH  26  27
ATOM     27  C   UNL     1       6.550   4.476  13.552  0.00  0.00    +0.000 A 
ATOM     28  C   UNL     1       5.206   4.076  13.609  0.00  0.00    +0.000 A 
ATOM     29  C   UNL     1       4.697   3.180  12.662  0.00  0.00    +0.000 A 
ATOM     30  C   UNL     1       5.530   2.678  11.672  0.00  0.00    +0.000 A 
ATOM     31  F   UNL     1       5.040   1.823  10.764  0.00  0.00    +0.000 F 
ATOM     32  C   UNL     1       6.869   3.051  11.608  0.00  0.00    +0.000 A 
ATOM     33  C   UNL     1       7.379   3.948  12.550  0.00  0.00    +0.000 A 
ENDBRANCH  26  27
ENDBRANCH  24  26
ENDBRANCH  21  22
ENDBRANCH  20  21
ENDBRANCH  19  20
TORSDOF 5
ENDMDL
MODEL 8
REMARK VINA RESULT:      -7.8      3.220      5.434
REMARK  Name = 
REMARK  7 active torsions:
REMARK  status: ('A' for Active; 'I' for Inactive)
REMARK    1  A    between atoms: C_1  and  C_2
REMARK    2  A    between atoms: C_17  and  C_18
REMARK    3  A    between atoms: C_19  and  C_20
REMARK    4  A    between atoms: C_20  and  C_21
REMARK    5  A    between atoms: C_21  and  C_22
REMARK    6  A    between atoms: N_24  and  C_25
REMARK    7  A    between atoms: C_25  and  C_26
REMARK                            x       y       z     vdW  Elec       q    Type
REMARK                         _______ _______ _______ _____ _____    ______ ____
ROOT
ATOM      1  C   UNL     1       1.438   9.255  17.874  0.00  0.00    +0.000 C 
ATOM      2  C   UNL     1       0.909   9.596  19.223  0.00  0.00    +0.000 A 
ATOM      3  N   UNL     1       0.088  10.640  19.364  0.00  0.00    +0.000 NA
ATOM      4  N   UNL     1      -0.180  10.719  20.702  0.00  0.00    +0.000 N 
ATOM      5  C   UNL     1      -0.934  11.821  21.223  0.00  0.00    +0.000 A 
ATOM      6  C   UNL     1      -1.546  12.727  20.372  0.00  0.00    +0.000 A 
ATOM      7  C   UNL     1      -2.196  13.846  20.919  0.00  0.00    +0.000 A 
ATOM      8  C   UNL     1      -2.213  14.066  22.293  0.00  0.00    +0.000 A 
ATOM      9  N   UNL     1      -2.761  15.200  22.855  0.00  0.00    +0.000 N 
ATOM     10  C   UNL     1      -2.225  15.706  24.118  0.00  0.00    +0.000 C 
ATOM     11  C   UNL     1      -3.320  15.773  25.179  0.00  0.00    +0.000 C 
ATOM     12  C   UNL     1      -4.549  16.525  24.669  0.00  0.00    +0.000 C 
ATOM     13  C   UNL     1      -5.036  15.937  23.345  0.00  0.00    +0.000 C 
ATOM     14  C   UNL     1      -3.918  15.890  22.301  0.00  0.00    +0.000 C 
ATOM     15  N   UNL     1      -1.620  13.143  23.078  0.00  0.00    +0.000 NA
ATOM     16  N   UNL     1      -0.992  12.019  22.551  0.00  0.00    +0.000 NA
ATOM     17  C   UNL     1       0.407   9.653  21.381  0.00  0.00    +0.000 A 
ATOM     18  C   UNL     1       0.237   9.345  22.829  0.00  0.00    +0.000 C 
ATOM     19  C   UNL     1       1.141   8.925  20.448  0.00  0.00    +0.000 A 
ENDROOT
BRANCH  19  20
ATOM     20  C   UNL     1       1.909   7.660  20.714  0.00  0.00    +0.000 C 
BRANCH  20  21
ATOM     21  C   UNL     1       1.078   6.384  20.835  0.00  0.00    +0.000 C 
BRANCH  21  22
ATOM     22  C   UNL     1       1.832   5.195  20.264  0.00  0.00    +0.000 C 
ATOM     23  O   UNL     1       1.277   4.164  19.884  0.00  0.00    +0.000 OA
ATOM     24  N   UNL     1       3.196   5.363  20.208  0.00  0.00    +0.000 N 
ATOM     25  H   UNL     1       3.586   6.285  20.354  0.00  0.00    +0.000 HD
BRANCH  24  26
ATOM     26  C   UNL     1       4.044   4.354  19.606  0.00  0.00    +0.000 C 
BRANCH  26  27
ATOM     27  C   UNL     1       4.481   4.746  18.214  0.00  0.00    +0.000 A 
ATOM     28  C   UNL     1       4.662   6.100  17.888  0.00  0.00    +0.000 A 
ATOM     29  C   UNL     1       5.084   6.464  16.604  0.00  0.00    +0.000 A 
ATOM     30  C   UNL     1       5.311   5.482  15.650  0.00  0.00    +0.000 A 
ATOM     31  F   UNL     1       5.719   5.833  14.422  0.00  0.00    +0.000 F 
ATOM     32  C   UNL     1       5.123   4.136  15.950  0.00  0.00    +0.000 A 
ATOM     33  C   UNL     1       4.705   3.770  17.232  0.00  0.00    +0.000 A 
ENDBRANCH  26  27
ENDBRANCH  24  26
ENDBRANCH  21  22
ENDBRANCH  20  21
ENDBRANCH  19  20
TORSDOF 5
ENDMDL
MODEL 9
REMARK VINA RESULT:      -7.8      2.899      4.370
REMARK  Name = 
REMARK  7 active torsions:
REMARK  status: ('A' for Active; 'I' for Inactive)
REMARK    1  A    between atoms: C_1  and  C_2
REMARK    2  A    between atoms: C_17  and  C_18
REMARK    3  A    between atoms: C_19  and  C_20
REMARK    4  A    between atoms: C_20  and  C_21
REMARK    5  A    between atoms: C_21  and  C_22
REMARK    6  A    between atoms: N_24  and  C_25
REMARK    7  A    between atoms: C_25  and  C_26
REMARK                            x       y       z     vdW  Elec       q    Type
REMARK                         _______ _______ _______ _____ _____    ______ ____
ROOT
ATOM      1  C   UNL     1       4.461   7.403  16.132  0.00  0.00    +0.000 C 
ATOM      2  C   UNL     1       3.578   7.393  17.331  0.00  0.00    +0.000 A 
ATOM      3  N   UNL     1       2.707   8.389  17.516  0.00  0.00    +0.000 NA
ATOM      4  N   UNL     1       2.089   8.119  18.706  0.00  0.00    +0.000 N 
ATOM      5  C   UNL     1       1.180   9.069  19.277  0.00  0.00    +0.000 A 
ATOM      6  C   UNL     1       0.783  10.188  18.564  0.00  0.00    +0.000 A 
ATOM      7  C   UNL     1      -0.034  11.143  19.192  0.00  0.00    +0.000 A 
ATOM      8  C   UNL     1      -0.427  10.992  20.519  0.00  0.00    +0.000 A 
ATOM      9  N   UNL     1      -1.150  11.954  21.192  0.00  0.00    +0.000 N 
ATOM     10  C   UNL     1      -0.991  12.089  22.640  0.00  0.00    +0.000 C 
ATOM     11  C   UNL     1      -2.331  11.910  23.347  0.00  0.00    +0.000 C 
ATOM     12  C   UNL     1      -3.408  12.810  22.743  0.00  0.00    +0.000 C 
ATOM     13  C   UNL     1      -3.500  12.611  21.231  0.00  0.00    +0.000 C 
ATOM     14  C   UNL     1      -2.144  12.804  20.551  0.00  0.00    +0.000 C 
ATOM     15  N   UNL     1      -0.028   9.874  21.161  0.00  0.00    +0.000 NA
ATOM     16  N   UNL     1       0.762   8.910  20.544  0.00  0.00    +0.000 NA
ATOM     17  C   UNL     1       2.516   6.892  19.210  0.00  0.00    +0.000 A 
ATOM     18  C   UNL     1       1.977   6.218  20.425  0.00  0.00    +0.000 C 
ATOM     19  C   UNL     1       3.501   6.413  18.350  0.00  0.00    +0.000 A 
ENDROOT
BRANCH  19  20
ATOM     20  C   UNL     1       4.219   5.098  18.468  0.00  0.00    +0.000 C 
BRANCH  20  21
ATOM     21  C   UNL     1       5.556   5.128  19.206  0.00  0.00    +0.000 C 
BRANCH  21  22
ATOM     22  C   UNL     1       6.711   4.945  18.236  0.00  0.00    +0.000 C 
ATOM     23  O   UNL     1       7.766   4.391  18.542  0.00  0.00    +0.000 OA
ATOM     24  N   UNL     1       6.480   5.453  16.979  0.00  0.00    +0.000 N 
ATOM     25  H   UNL     1       5.541   5.728  16.722  0.00  0.00    +0.000 HD
BRANCH  24  26
ATOM     26  C   UNL     1       7.450   5.276  15.917  0.00  0.00    +0.000 C 
BRANCH  26  27
ATOM     27  C   UNL     1       6.823   4.685  14.677  0.00  0.00    +0.000 A 
ATOM     28  C   UNL     1       7.510   4.724  13.453  0.00  0.00    +0.000 A 
ATOM     29  C   UNL     1       6.938   4.162  12.306  0.00  0.00    +0.000 A 
ATOM     30  C   UNL     1       5.683   3.576  12.380  0.00  0.00    +0.000 A 
ATOM     31  F   UNL     1       5.139   3.034  11.281  0.00  0.00    +0.000 F 
ATOM     32  C   UNL     1       4.979   3.540  13.580  0.00  0.00    +0.000 A 
ATOM     33  C   UNL     1       5.550   4.098  14.728  0.00  0.00    +0.000 A 
ENDBRANCH  26  27
ENDBRANCH  24  26
ENDBRANCH  21  22
ENDBRANCH  20  21
ENDBRANCH  19  20
TORSDOF 5
ENDMDL
