MODEL 1
REMARK VINA RESULT:      -7.0      0.000      0.000
REMARK  Name = 
REMARK  6 active torsions:
REMARK  status: ('A' for Active; 'I' for Inactive)
REMARK    1  A    between atoms: C_1  and  O_2
REMARK    2  A    between atoms: O_2  and  C_3
REMARK    3  A    between atoms: C_3  and  C_5
REMARK    4  A    between atoms: C_5  and  C_6
REMARK    5  A    between atoms: C_5  and  C_13
REMARK    6  A    between atoms: C_9  and  C_10
REMARK                            x       y       z     vdW  Elec       q    Type
REMARK                         _______ _______ _______ _____ _____    ______ ____
ROOT
ATOM      1  C   UNL     1       6.383   4.477  16.229  0.00  0.00    +0.000 C 
ENDROOT
BRANCH   1   2
ATOM      2  C   UNL     1       5.001   4.380  16.876  0.00  0.00    +0.000 A 
ATOM      3  C   UNL     1       4.241   5.518  17.187  0.00  0.00    +0.000 A 
ATOM      4  C   UNL     1       3.009   5.402  17.839  0.00  0.00    +0.000 A 
ATOM      5  C   UNL     1       2.499   4.146  18.181  0.00  0.00    +0.000 A 
ATOM      6  C   UNL     1       1.202   4.012  18.923  0.00  0.00    +0.000 C 
ATOM      7  C   UNL     1       3.228   3.005  17.834  0.00  0.00    +0.000 A 
ATOM      8  C   UNL     1       4.467   3.120  17.192  0.00  0.00    +0.000 A 
ENDBRANCH   1   2
BRANCH   1   9
ATOM      9  C   UNL     1       6.360   4.770  14.693  0.00  0.00    +0.000 C 
ATOM     10  C   UNL     1       5.824   3.561  13.895  0.00  0.00    +0.000 C 
ATOM     11  C   UNL     1       5.884   3.792  12.386  0.00  0.00    +0.000 C 
ATOM     12  C   UNL     1       7.289   4.190  11.961  0.00  0.00    +0.000 C 
ATOM     13  C   UNL     1       7.772   5.383  12.775  0.00  0.00    +0.000 C 
ATOM     14  N   UNL     1       7.722   5.094  14.204  0.00  0.00    +0.000 NA
ATOM     15  H   UNL     1       8.101   5.892  14.715  0.00  0.00    +0.000 HD
ENDBRANCH   1   9
BRANCH   1  16
ATOM     16  C   UNL     1       7.256   5.523  16.934  0.00  0.00    +0.000 C 
ATOM     17  O   UNL     1       7.507   6.651  16.527  0.00  0.00    +0.000 OA
BRANCH  16  19
ATOM     18  C   UNL     1       7.737   5.841  19.214  0.00  0.00    +0.000 C 
ATOM     19  O   UNL     1       7.802   4.989  18.070  0.00  0.00    +0.000 OA
ENDBRANCH  16  19
ENDBRANCH   1  16
TORSDOF 4
ENDMDL
MODEL 2
REMARK VINA RESULT:      -6.9      2.390      5.457
REMARK  Name = 
REMARK  6 active torsions:
REMARK  status: ('A' for Active; 'I' for Inactive)
REMARK    1  A    between atoms: C_1  and  O_2
REMARK    2  A    between atoms: O_2  and  C_3
REMARK    3  A    between atoms: C_3  and  C_5
REMARK    4  A    between atoms: C_5  and  C_6
REMARK    5  A    between atoms: C_5  and  C_13
REMARK    6  A    between atoms: C_9  and  C_10
REMARK                            x       y       z     vdW  Elec       q    Type
REMARK                         _______ _______ _______ _____ _____    ______ ____
ROOT
ATOM      1  C   UNL     1       5.462   5.683  17.961  0.00  0.00    +0.000 C 
ENDROOT
BRANCH   1   2
ATOM      2  C   UNL     1       5.742   5.102  16.575  0.00  0.00    +0.000 A 
ATOM      3  C   UNL     1       6.952   5.330  15.901  0.00  0.00    +0.000 A 
ATOM      4  C   UNL     1       7.156   4.841  14.606  0.00  0.00    +0.000 A 
ATOM      5  C   UNL     1       6.162   4.098  13.961  0.00  0.00    +0.000 A 
ATOM      6  C   UNL     1       6.352   3.609  12.555  0.00  0.00    +0.000 C 
ATOM      7  C   UNL     1       4.972   3.828  14.642  0.00  0.00    +0.000 A 
ATOM      8  C   UNL     1       4.763   4.327  15.933  0.00  0.00    +0.000 A 
ENDBRANCH   1   2
BRANCH   1   9
ATOM      9  C   UNL     1       3.970   6.082  18.207  0.00  0.00    +0.000 C 
ATOM     10  C   UNL     1       3.674   7.507  17.691  0.00  0.00    +0.000 C 
ATOM     11  C   UNL     1       2.246   7.951  18.008  0.00  0.00    +0.000 C 
ATOM     12  C   UNL     1       1.958   7.802  19.494  0.00  0.00    +0.000 C 
ATOM     13  C   UNL     1       2.266   6.384  19.954  0.00  0.00    +0.000 C 
ATOM     14  N   UNL     1       3.648   6.027  19.654  0.00  0.00    +0.000 NA
ATOM     15  H   UNL     1       3.834   5.093  20.022  0.00  0.00    +0.000 HD
ENDBRANCH   1   9
BRANCH   1  16
ATOM     16  C   UNL     1       5.923   4.728  19.069  0.00  0.00    +0.000 C 
ATOM     17  O   UNL     1       5.529   3.582  19.249  0.00  0.00    +0.000 OA
BRANCH  16  19
ATOM     18  C   UNL     1       7.924   5.952  19.247  0.00  0.00    +0.000 C 
ATOM     19  O   UNL     1       6.799   5.368  19.905  0.00  0.00    +0.000 OA
ENDBRANCH  16  19
ENDBRANCH   1  16
TORSDOF 4
ENDMDL
MODEL 3
REMARK VINA RESULT:      -6.9      0.195      1.152
REMARK  Name = 
REMARK  6 active torsions:
REMARK  status: ('A' for Active; 'I' for Inactive)
REMARK    1  A    between atoms: C_1  and  O_2
REMARK    2  A    between atoms: O_2  and  C_3
REMARK    3  A    between atoms: C_3  and  C_5
REMARK    4  A    between atoms: C_5  and  C_6
REMARK    5  A    between atoms: C_5  and  C_13
REMARK    6  A    between atoms: C_9  and  C_10
REMARK                            x       y       z     vdW  Elec       q    Type
REMARK                         _______ _______ _______ _____ _____    ______ ____
ROOT
ATOM      1  C   UNL     1       6.443   4.369  16.286  0.00  0.00    +0.000 C 
ENDROOT
BRANCH   1   2
ATOM      2  C   UNL     1       5.066   4.192  16.929  0.00  0.00    +0.000 A 
ATOM      3  C   UNL     1       4.540   2.926  17.228  0.00  0.00    +0.000 A 
ATOM      4  C   UNL     1       3.252   2.791  17.755  0.00  0.00    +0.000 A 
ATOM      5  C   UNL     1       2.465   3.917  18.011  0.00  0.00    +0.000 A 
ATOM      6  C   UNL     1       1.064   3.781  18.532  0.00  0.00    +0.000 C 
ATOM      7  C   UNL     1       2.998   5.184  17.759  0.00  0.00    +0.000 A 
ATOM      8  C   UNL     1       4.283   5.320  17.220  0.00  0.00    +0.000 A 
ENDBRANCH   1   2
BRANCH   1   9
ATOM      9  C   UNL     1       6.407   4.722  14.763  0.00  0.00    +0.000 C 
ATOM     10  C   UNL     1       5.872   3.541  13.923  0.00  0.00    +0.000 C 
ATOM     11  C   UNL     1       5.919   3.832  12.423  0.00  0.00    +0.000 C 
ATOM     12  C   UNL     1       7.319   4.255  12.005  0.00  0.00    +0.000 C 
ATOM     13  C   UNL     1       7.801   5.418  12.860  0.00  0.00    +0.000 C 
ATOM     14  N   UNL     1       7.764   5.072  14.278  0.00  0.00    +0.000 NA
ATOM     15  H   UNL     1       8.141   5.853  14.816  0.00  0.00    +0.000 HD
ENDBRANCH   1   9
BRANCH   1  16
ATOM     16  C   UNL     1       7.274   5.420  17.033  0.00  0.00    +0.000 C 
ATOM     17  O   UNL     1       7.527   6.554  16.645  0.00  0.00    +0.000 OA
BRANCH  16  19
ATOM     18  C   UNL     1       7.759   5.766  19.308  0.00  0.00    +0.000 C 
ATOM     19  O   UNL     1       7.782   4.883  18.185  0.00  0.00    +0.000 OA
ENDBRANCH  16  19
ENDBRANCH   1  16
TORSDOF 4
ENDMDL
MODEL 4
REMARK VINA RESULT:      -6.9      1.544      1.809
REMARK  Name = 
REMARK  6 active torsions:
REMARK  status: ('A' for Active; 'I' for Inactive)
REMARK    1  A    between atoms: C_1  and  O_2
REMARK    2  A    between atoms: O_2  and  C_3
REMARK    3  A    between atoms: C_3  and  C_5
REMARK    4  A    between atoms: C_5  and  C_6
REMARK    5  A    between atoms: C_5  and  C_13
REMARK    6  A    between atoms: C_9  and  C_10
REMARK                            x       y       z     vdW  Elec       q    Type
REMARK                         _______ _______ _______ _____ _____    ______ ____
ROOT
ATOM      1  C   UNL     1       6.450   5.109  17.454  0.00  0.00    +0.000 C 
ENDROOT
BRANCH   1   2
ATOM      2  C   UNL     1       5.128   5.084  18.223  0.00  0.00    +0.000 A 
ATOM      3  C   UNL     1       4.215   6.148  18.172  0.00  0.00    +0.000 A 
ATOM      4  C   UNL     1       3.044   6.126  18.938  0.00  0.00    +0.000 A 
ATOM      5  C   UNL     1       2.750   5.033  19.758  0.00  0.00    +0.000 A 
ATOM      6  C   UNL     1       1.521   5.021  20.619  0.00  0.00    +0.000 C 
ATOM      7  C   UNL     1       3.631   3.949  19.780  0.00  0.00    +0.000 A 
ATOM      8  C   UNL     1       4.809   3.975  19.023  0.00  0.00    +0.000 A 
ENDBRANCH   1   2
BRANCH   1   9
ATOM      9  C   UNL     1       6.294   5.199  15.901  0.00  0.00    +0.000 C 
ATOM     10  C   UNL     1       5.407   4.058  15.355  0.00  0.00    +0.000 C 
ATOM     11  C   UNL     1       5.321   4.073  13.829  0.00  0.00    +0.000 C 
ATOM     12  C   UNL     1       6.713   4.068  13.216  0.00  0.00    +0.000 C 
ATOM     13  C   UNL     1       7.548   5.207  13.784  0.00  0.00    +0.000 C 
ATOM     14  N   UNL     1       7.620   5.124  15.240  0.00  0.00    +0.000 NA
ATOM     15  H   UNL     1       8.228   5.869  15.582  0.00  0.00    +0.000 HD
ENDBRANCH   1   9
BRANCH   1  16
ATOM     16  C   UNL     1       7.356   6.246  17.942  0.00  0.00    +0.000 C 
ATOM     17  O   UNL     1       8.030   6.248  18.965  0.00  0.00    +0.000 OA
BRANCH  16  19
ATOM     18  C   UNL     1       7.816   8.530  17.617  0.00  0.00    +0.000 C 
ATOM     19  O   UNL     1       7.249   7.324  17.104  0.00  0.00    +0.000 OA
ENDBRANCH  16  19
ENDBRANCH   1  16
TORSDOF 4
ENDMDL
MODEL 5
REMARK VINA RESULT:      -6.9      1.518      2.097
REMARK  Name = 
REMARK  6 active torsions:
REMARK  status: ('A' for Active; 'I' for Inactive)
REMARK    1  A    between atoms: C_1  and  O_2
REMARK    2  A    between atoms: O_2  and  C_3
REMARK    3  A    between atoms: C_3  and  C_5
REMARK    4  A    between atoms: C_5  and  C_6
REMARK    5  A    between atoms: C_5  and  C_13
REMARK    6  A    between atoms: C_9  and  C_10
REMARK                            x       y       z     vdW  Elec       q    Type
REMARK                         _______ _______ _______ _____ _____    ______ ____
ROOT
ATOM      1  C   UNL     1       6.540   5.022  17.506  0.00  0.00    +0.000 C 
ENDROOT
BRANCH   1   2
ATOM      2  C   UNL     1       5.249   4.948  18.322  0.00  0.00    +0.000 A 
ATOM      3  C   UNL     1       4.920   3.826  19.098  0.00  0.00    +0.000 A 
ATOM      4  C   UNL     1       3.702   3.758  19.783  0.00  0.00    +0.000 A 
ATOM      5  C   UNL     1       2.791   4.817  19.722  0.00  0.00    +0.000 A 
ATOM      6  C   UNL     1       1.461   4.735  20.413  0.00  0.00    +0.000 C 
ATOM      7  C   UNL     1       3.130   5.957  18.988  0.00  0.00    +0.000 A 
ATOM      8  C   UNL     1       4.344   6.021  18.293  0.00  0.00    +0.000 A 
ENDBRANCH   1   2
BRANCH   1   9
ATOM      9  C   UNL     1       6.325   5.138  15.962  0.00  0.00    +0.000 C 
ATOM     10  C   UNL     1       5.429   3.998  15.429  0.00  0.00    +0.000 C 
ATOM     11  C   UNL     1       5.286   4.039  13.908  0.00  0.00    +0.000 C 
ATOM     12  C   UNL     1       6.653   4.062  13.243  0.00  0.00    +0.000 C 
ATOM     13  C   UNL     1       7.496   5.200  13.800  0.00  0.00    +0.000 C 
ATOM     14  N   UNL     1       7.625   5.091  15.250  0.00  0.00    +0.000 NA
ATOM     15  H   UNL     1       8.238   5.837  15.583  0.00  0.00    +0.000 HD
ENDBRANCH   1   9
BRANCH   1  16
ATOM     16  C   UNL     1       7.435   6.172  17.984  0.00  0.00    +0.000 C 
ATOM     17  O   UNL     1       8.047   6.222  19.044  0.00  0.00    +0.000 OA
BRANCH  16  19
ATOM     18  C   UNL     1       7.789   8.468  17.615  0.00  0.00    +0.000 C 
ATOM     19  O   UNL     1       7.397   7.202  17.083  0.00  0.00    +0.000 OA
ENDBRANCH  16  19
ENDBRANCH   1  16
TORSDOF 4
ENDMDL
MODEL 6
REMARK VINA RESULT:      -6.8      1.393      1.761
REMARK  Name = 
REMARK  6 active torsions:
REMARK  status: ('A' for Active; 'I' for Inactive)
REMARK    1  A    between atoms: C_1  and  O_2
REMARK    2  A    between atoms: O_2  and  C_3
REMARK    3  A    between atoms: C_3  and  C_5
REMARK    4  A    between atoms: C_5  and  C_6
REMARK    5  A    between atoms: C_5  and  C_13
REMARK    6  A    between atoms: C_9  and  C_10
REMARK                            x       y       z     vdW  Elec       q    Type
REMARK                         _______ _______ _______ _____ _____    ______ ____
ROOT
ATOM      1  C   UNL     1       6.132   4.583  16.686  0.00  0.00    +0.000 C 
ENDROOT
BRANCH   1   2
ATOM      2  C   UNL     1       5.024   5.330  17.430  0.00  0.00    +0.000 A 
ATOM      3  C   UNL     1       4.426   6.488  16.910  0.00  0.00    +0.000 A 
ATOM      4  C   UNL     1       3.461   7.188  17.642  0.00  0.00    +0.000 A 
ATOM      5  C   UNL     1       3.059   6.738  18.903  0.00  0.00    +0.000 A 
ATOM      6  C   UNL     1       2.060   7.507  19.717  0.00  0.00    +0.000 C 
ATOM      7  C   UNL     1       3.616   5.561  19.409  0.00  0.00    +0.000 A 
ATOM      8  C   UNL     1       4.591   4.866  18.682  0.00  0.00    +0.000 A 
ENDBRANCH   1   2
BRANCH   1   9
ATOM      9  C   UNL     1       6.156   4.829  15.143  0.00  0.00    +0.000 C 
ATOM     10  C   UNL     1       5.586   3.620  14.369  0.00  0.00    +0.000 C 
ATOM     11  C   UNL     1       5.689   3.802  12.855  0.00  0.00    +0.000 C 
ATOM     12  C   UNL     1       7.120   4.125  12.452  0.00  0.00    +0.000 C 
ATOM     13  C   UNL     1       7.637   5.321  13.241  0.00  0.00    +0.000 C 
ATOM     14  N   UNL     1       7.543   5.078  14.677  0.00  0.00    +0.000 NA
ATOM     15  H   UNL     1       7.944   5.875  15.172  0.00  0.00    +0.000 HD
ENDBRANCH   1   9
BRANCH   1  16
ATOM     16  C   UNL     1       7.512   4.903  17.275  0.00  0.00    +0.000 C 
ATOM     17  O   UNL     1       8.314   4.094  17.725  0.00  0.00    +0.000 OA
BRANCH  16  19
ATOM     18  C   UNL     1       8.024   6.777  18.602  0.00  0.00    +0.000 C 
ATOM     19  O   UNL     1       7.704   6.258  17.310  0.00  0.00    +0.000 OA
ENDBRANCH  16  19
ENDBRANCH   1  16
TORSDOF 4
ENDMDL
MODEL 7
REMARK VINA RESULT:      -6.8      2.414      5.541
REMARK  Name = 
REMARK  6 active torsions:
REMARK  status: ('A' for Active; 'I' for Inactive)
REMARK    1  A    between atoms: C_1  and  O_2
REMARK    2  A    between atoms: O_2  and  C_3
REMARK    3  A    between atoms: C_3  and  C_5
REMARK    4  A    between atoms: C_5  and  C_6
REMARK    5  A    between atoms: C_5  and  C_13
REMARK    6  A    between atoms: C_9  and  C_10
REMARK                            x       y       z     vdW  Elec       q    Type
REMARK                         _______ _______ _______ _____ _____    ______ ____
ROOT
ATOM      1  C   UNL     1       5.390   5.720  17.922  0.00  0.00    +0.000 C 
ENDROOT
BRANCH   1   2
ATOM      2  C   UNL     1       5.654   5.203  16.508  0.00  0.00    +0.000 A 
ATOM      3  C   UNL     1       4.698   4.465  15.793  0.00  0.00    +0.000 A 
ATOM      4  C   UNL     1       4.991   3.948  14.526  0.00  0.00    +0.000 A 
ATOM      5  C   UNL     1       6.239   4.170  13.937  0.00  0.00    +0.000 A 
ATOM      6  C   UNL     1       6.580   3.580  12.600  0.00  0.00    +0.000 C 
ATOM      7  C   UNL     1       7.181   4.942  14.623  0.00  0.00    +0.000 A 
ATOM      8  C   UNL     1       6.893   5.451  15.896  0.00  0.00    +0.000 A 
ENDBRANCH   1   2
BRANCH   1   9
ATOM      9  C   UNL     1       3.903   6.112  18.202  0.00  0.00    +0.000 C 
ATOM     10  C   UNL     1       3.598   7.549  17.724  0.00  0.00    +0.000 C 
ATOM     11  C   UNL     1       2.175   7.985  18.075  0.00  0.00    +0.000 C 
ATOM     12  C   UNL     1       1.912   7.800  19.562  0.00  0.00    +0.000 C 
ATOM     13  C   UNL     1       2.227   6.372  19.984  0.00  0.00    +0.000 C 
ATOM     14  N   UNL     1       3.605   6.023  19.653  0.00  0.00    +0.000 NA
ATOM     15  H   UNL     1       3.797   5.081  19.996  0.00  0.00    +0.000 HD
ENDBRANCH   1   9
BRANCH   1  16
ATOM     16  C   UNL     1       5.860   4.714  18.980  0.00  0.00    +0.000 C 
ATOM     17  O   UNL     1       5.478   3.556  19.099  0.00  0.00    +0.000 OA
BRANCH  16  19
ATOM     18  C   UNL     1       7.898   5.858  19.239  0.00  0.00    +0.000 C 
ATOM     19  O   UNL     1       6.726   5.318  19.851  0.00  0.00    +0.000 OA
ENDBRANCH  16  19
ENDBRANCH   1  16
TORSDOF 4
ENDMDL
MODEL 8
REMARK VINA RESULT:      -6.7      2.082      5.307
REMARK  Name = 
REMARK  6 active torsions:
REMARK  status: ('A' for Active; 'I' for Inactive)
REMARK    1  A    between atoms: C_1  and  O_2
REMARK    2  A    between atoms: O_2  and  C_3
REMARK    3  A    between atoms: C_3  and  C_5
REMARK    4  A    between atoms: C_5  and  C_6
REMARK    5  A    between atoms: C_5  and  C_13
REMARK    6  A    between atoms: C_9  and  C_10
REMARK                            x       y       z     vdW  Elec       q    Type
REMARK                         _______ _______ _______ _____ _____    ______ ____
ROOT
ATOM      1  C   UNL     1       6.097   5.968  16.911  0.00  0.00    +0.000 C 
ENDROOT
BRANCH   1   2
ATOM      2  C   UNL     1       6.261   5.216  15.589  0.00  0.00    +0.000 A 
ATOM      3  C   UNL     1       7.374   5.407  14.756  0.00  0.00    +0.000 A 
ATOM      4  C   UNL     1       7.466   4.756  13.521  0.00  0.00    +0.000 A 
ATOM      5  C   UNL     1       6.457   3.886  13.098  0.00  0.00    +0.000 A 
ATOM      6  C   UNL     1       6.523   3.219  11.755  0.00  0.00    +0.000 C 
ATOM      7  C   UNL     1       5.367   3.655  13.942  0.00  0.00    +0.000 A 
ATOM      8  C   UNL     1       5.268   4.316  15.172  0.00  0.00    +0.000 A 
ENDBRANCH   1   2
BRANCH   1   9
ATOM      9  C   UNL     1       4.701   5.787  17.591  0.00  0.00    +0.000 C 
ATOM     10  C   UNL     1       3.852   7.074  17.490  0.00  0.00    +0.000 C 
ATOM     11  C   UNL     1       2.522   6.948  18.232  0.00  0.00    +0.000 C 
ATOM     12  C   UNL     1       2.752   6.516  19.672  0.00  0.00    +0.000 C 
ATOM     13  C   UNL     1       3.591   5.247  19.718  0.00  0.00    +0.000 C 
ATOM     14  N   UNL     1       4.860   5.436  19.023  0.00  0.00    +0.000 NA
ATOM     15  H   UNL     1       5.417   4.586  19.119  0.00  0.00    +0.000 HD
ENDBRANCH   1   9
BRANCH   1  16
ATOM     16  C   UNL     1       7.201   5.590  17.907  0.00  0.00    +0.000 C 
ATOM     17  O   UNL     1       7.595   4.457  18.157  0.00  0.00    +0.000 OA
BRANCH  16  19
ATOM     18  C   UNL     1       7.767   7.866  17.734  0.00  0.00    +0.000 C 
ATOM     19  O   UNL     1       7.645   6.708  18.561  0.00  0.00    +0.000 OA
ENDBRANCH  16  19
ENDBRANCH   1  16
TORSDOF 4
ENDMDL
MODEL 9
REMARK VINA RESULT:      -6.6      3.077      6.188
REMARK  Name = 
REMARK  6 active torsions:
REMARK  status: ('A' for Active; 'I' for Inactive)
REMARK    1  A    between atoms: C_1  and  O_2
REMARK    2  A    between atoms: O_2  and  C_3
REMARK    3  A    between atoms: C_3  and  C_5
REMARK    4  A    between atoms: C_5  and  C_6
REMARK    5  A    between atoms: C_5  and  C_13
REMARK    6  A    between atoms: C_9  and  C_10
REMARK                            x       y       z     vdW  Elec       q    Type
REMARK                         _______ _______ _______ _____ _____    ______ ____
ROOT
ATOM      1  C   UNL     1       4.490   4.510  19.220  0.00  0.00    +0.000 C 
ENDROOT
BRANCH   1   2
ATOM      2  C   UNL     1       5.235   4.494  17.884  0.00  0.00    +0.000 A 
ATOM      3  C   UNL     1       6.596   4.823  17.784  0.00  0.00    +0.000 A 
ATOM      4  C   UNL     1       7.235   4.863  16.541  0.00  0.00    +0.000 A 
ATOM      5  C   UNL     1       6.535   4.558  15.369  0.00  0.00    +0.000 A 
ATOM      6  C   UNL     1       7.198   4.644  14.026  0.00  0.00    +0.000 C 
ATOM      7  C   UNL     1       5.191   4.186  15.464  0.00  0.00    +0.000 A 
ATOM      8  C   UNL     1       4.547   4.157  16.707  0.00  0.00    +0.000 A 
ENDBRANCH   1   2
BRANCH   1   9
ATOM      9  C   UNL     1       3.215   5.414  19.239  0.00  0.00    +0.000 C 
ATOM     10  C   UNL     1       3.471   6.768  18.541  0.00  0.00    +0.000 C 
ATOM     11  C   UNL     1       2.266   7.704  18.634  0.00  0.00    +0.000 C 
ATOM     12  C   UNL     1       1.831   7.871  20.082  0.00  0.00    +0.000 C 
ATOM     13  C   UNL     1       1.592   6.513  20.725  0.00  0.00    +0.000 C 
ATOM     14  N   UNL     1       2.784   5.676  20.634  0.00  0.00    +0.000 NA
ATOM     15  H   UNL     1       2.606   4.796  21.120  0.00  0.00    +0.000 HD
ENDBRANCH   1   9
BRANCH   1  16
ATOM     16  C   UNL     1       4.116   3.092  19.666  0.00  0.00    +0.000 C 
ATOM     17  O   UNL     1       4.896   2.202  19.983  0.00  0.00    +0.000 OA
BRANCH  16  19
ATOM     18  C   UNL     1       2.353   1.869  18.703  0.00  0.00    +0.000 C 
ATOM     19  O   UNL     1       2.761   2.916  19.584  0.00  0.00    +0.000 OA
ENDBRANCH  16  19
ENDBRANCH   1  16
TORSDOF 4
ENDMDL
