MODEL 1
REMARK VINA RESULT:      -7.7      0.000      0.000
REMARK  Name = 
REMARK  6 active torsions:
REMARK  status: ('A' for Active; 'I' for Inactive)
REMARK    1  A    between atoms: S_2  and  N_4
REMARK    2  A    between atoms: S_2  and  C_22
REMARK    3  A    between atoms: N_4  and  C_5
REMARK    4  A    between atoms: C_7  and  S_8
REMARK    5  A    between atoms: S_8  and  C_9
REMARK    6  A    between atoms: C_14  and  O_15
REMARK                            x       y       z     vdW  Elec       q    Type
REMARK                         _______ _______ _______ _____ _____    ______ ____
ROOT
ATOM      1  C   UNL     1       2.616   6.250  20.184  0.00  0.00    +0.000 A 
ATOM      2  C   UNL     1       3.500   5.997  19.130  0.00  0.00    +0.000 A 
ATOM      3  C   UNL     1       3.592   6.874  18.046  0.00  0.00    +0.000 A 
ATOM      4  C   UNL     1       2.792   8.028  18.052  0.00  0.00    +0.000 A 
ATOM      5  C   UNL     1       1.886   8.305  19.103  0.00  0.00    +0.000 A 
ATOM      6  C   UNL     1       1.057   9.448  19.087  0.00  0.00    +0.000 A 
ATOM      7  C   UNL     1       0.167   9.723  20.125  0.00  0.00    +0.000 A 
ATOM      8  C   UNL     1       0.089   8.862  21.208  0.00  0.00    +0.000 A 
ATOM      9  C   UNL     1       0.895   7.722  21.246  0.00  0.00    +0.000 A 
ATOM     10  C   UNL     1       1.800   7.412  20.200  0.00  0.00    +0.000 A 
ENDROOT
BRANCH   1  11
ATOM     11  N   UNL     1       2.568   5.281  21.243  0.00  0.00    +0.000 N 
ATOM     12  H   UNL     1       3.480   5.011  21.612  0.00  0.00    +0.000 HD
BRANCH  11  14
ATOM     13  O   UNL     1       1.811   2.968  22.074  0.00  0.00    +0.000 OA
ATOM     14  S   UNL     1       1.657   3.878  20.960  0.00  0.00    +0.000 S 
ATOM     15  O   UNL     1       0.348   4.322  20.533  0.00  0.00    +0.000 OA
BRANCH  14  16
ATOM     16  C   UNL     1       2.354   3.024  19.565  0.00  0.00    +0.000 A 
ATOM     17  C   UNL     1       1.878   2.790  18.289  0.00  0.00    +0.000 A 
ATOM     18  C   UNL     1       2.796   2.043  17.496  0.00  0.00    +0.000 A 
ATOM     19  C   UNL     1       3.945   1.738  18.190  0.00  0.00    +0.000 A 
ATOM     20  S   UNL     1       3.908   2.343  19.791  0.00  0.00    +0.000 S 
ENDBRANCH  14  16
ENDBRANCH  11  14
ENDBRANCH   1  11
BRANCH   4  21
ATOM     21  O   UNL     1       2.862   8.928  17.013  0.00  0.00    +0.000 OA
ATOM     22  H   UNL     1       2.403   8.514  16.253  0.00  0.00    +0.000 HD
ENDBRANCH   4  21
BRANCH   3  23
ATOM     23  S   UNL     1       4.573   6.336  16.648  0.00  0.00    +0.000 S 
BRANCH  23  24
ATOM     24  C   UNL     1       6.019   5.809  17.410  0.00  0.00    +0.000 A 
ATOM     25  N   UNL     1       6.950   6.529  17.989  0.00  0.00    +0.000 NA
ATOM     26  C   UNL     1       7.881   5.579  18.328  0.00  0.00    +0.000 A 
ATOM     27  N   UNL     1       7.583   4.328  17.968  0.00  0.00    +0.000 NA
ATOM     28  N   UNL     1       6.393   4.504  17.367  0.00  0.00    +0.000 N 
ATOM     29  H   UNL     1       5.913   3.719  16.947  0.00  0.00    +0.000 HD
ENDBRANCH  23  24
ENDBRANCH   3  23
TORSDOF 6
ENDMDL
MODEL 2
REMARK VINA RESULT:      -7.7      2.697      5.388
REMARK  Name = 
REMARK  6 active torsions:
REMARK  status: ('A' for Active; 'I' for Inactive)
REMARK    1  A    between atoms: S_2  and  N_4
REMARK    2  A    between atoms: S_2  and  C_22
REMARK    3  A    between atoms: N_4  and  C_5
REMARK    4  A    between atoms: C_7  and  S_8
REMARK    5  A    between atoms: S_8  and  C_9
REMARK    6  A    between atoms: C_14  and  O_15
REMARK                            x       y       z     vdW  Elec       q    Type
REMARK                         _______ _______ _______ _____ _____    ______ ____
ROOT
ATOM      1  C   UNL     1       2.868   5.457  18.223  0.00  0.00    +0.000 A 
ATOM      2  C   UNL     1       4.183   5.450  17.749  0.00  0.00    +0.000 A 
ATOM      3  C   UNL     1       5.110   4.515  18.218  0.00  0.00    +0.000 A 
ATOM      4  C   UNL     1       4.681   3.569  19.162  0.00  0.00    +0.000 A 
ATOM      5  C   UNL     1       3.358   3.556  19.663  0.00  0.00    +0.000 A 
ATOM      6  C   UNL     1       2.941   2.625  20.640  0.00  0.00    +0.000 A 
ATOM      7  C   UNL     1       1.636   2.611  21.130  0.00  0.00    +0.000 A 
ATOM      8  C   UNL     1       0.713   3.526  20.650  0.00  0.00    +0.000 A 
ATOM      9  C   UNL     1       1.101   4.461  19.687  0.00  0.00    +0.000 A 
ATOM     10  C   UNL     1       2.423   4.506  19.180  0.00  0.00    +0.000 A 
ENDROOT
BRANCH   1  11
ATOM     11  N   UNL     1       1.991   6.469  17.704  0.00  0.00    +0.000 N 
ATOM     12  H   UNL     1       1.807   6.398  16.703  0.00  0.00    +0.000 HD
BRANCH  11  14
ATOM     13  O   UNL     1       3.801   8.205  18.277  0.00  0.00    +0.000 OA
ATOM     14  S   UNL     1       2.374   8.080  18.075  0.00  0.00    +0.000 S 
ATOM     15  O   UNL     1       1.683   8.898  17.102  0.00  0.00    +0.000 OA
BRANCH  14  16
ATOM     16  C   UNL     1       1.648   8.485  19.646  0.00  0.00    +0.000 A 
ATOM     17  C   UNL     1       1.648   7.831  20.864  0.00  0.00    +0.000 A 
ATOM     18  C   UNL     1       0.920   8.542  21.861  0.00  0.00    +0.000 A 
ATOM     19  C   UNL     1       0.395   9.719  21.374  0.00  0.00    +0.000 A 
ATOM     20  S   UNL     1       0.774   9.955  19.722  0.00  0.00    +0.000 S 
ENDBRANCH  14  16
ENDBRANCH  11  14
ENDBRANCH   1  11
BRANCH   4  21
ATOM     21  O   UNL     1       5.556   2.619  19.641  0.00  0.00    +0.000 OA
ATOM     22  H   UNL     1       6.190   2.433  18.918  0.00  0.00    +0.000 HD
ENDBRANCH   4  21
BRANCH   3  23
ATOM     23  S   UNL     1       6.816   4.746  17.726  0.00  0.00    +0.000 S 
BRANCH  23  24
ATOM     24  C   UNL     1       6.710   4.638  16.016  0.00  0.00    +0.000 A 
ATOM     25  N   UNL     1       6.091   3.740  15.288  0.00  0.00    +0.000 NA
ATOM     26  C   UNL     1       6.427   4.120  14.012  0.00  0.00    +0.000 A 
ATOM     27  N   UNL     1       7.235   5.180  13.922  0.00  0.00    +0.000 NA
ATOM     28  N   UNL     1       7.415   5.484  15.220  0.00  0.00    +0.000 N 
ATOM     29  H   UNL     1       8.025   6.246  15.485  0.00  0.00    +0.000 HD
ENDBRANCH  23  24
ENDBRANCH   3  23
TORSDOF 6
ENDMDL
MODEL 3
REMARK VINA RESULT:      -7.6      2.932      4.203
REMARK  Name = 
REMARK  6 active torsions:
REMARK  status: ('A' for Active; 'I' for Inactive)
REMARK    1  A    between atoms: S_2  and  N_4
REMARK    2  A    between atoms: S_2  and  C_22
REMARK    3  A    between atoms: N_4  and  C_5
REMARK    4  A    between atoms: C_7  and  S_8
REMARK    5  A    between atoms: S_8  and  C_9
REMARK    6  A    between atoms: C_14  and  O_15
REMARK                            x       y       z     vdW  Elec       q    Type
REMARK                         _______ _______ _______ _____ _____    ______ ____
ROOT
ATOM      1  C   UNL     1       5.410   4.511  18.356  0.00  0.00    +0.000 A 
ATOM      2  C   UNL     1       6.335   4.383  17.315  0.00  0.00    +0.000 A 
ATOM      3  C   UNL     1       6.302   5.246  16.216  0.00  0.00    +0.000 A 
ATOM      4  C   UNL     1       5.331   6.259  16.194  0.00  0.00    +0.000 A 
ATOM      5  C   UNL     1       4.379   6.408  17.230  0.00  0.00    +0.000 A 
ATOM      6  C   UNL     1       3.382   7.406  17.186  0.00  0.00    +0.000 A 
ATOM      7  C   UNL     1       2.447   7.555  18.210  0.00  0.00    +0.000 A 
ATOM      8  C   UNL     1       2.492   6.711  19.308  0.00  0.00    +0.000 A 
ATOM      9  C   UNL     1       3.467   5.712  19.375  0.00  0.00    +0.000 A 
ATOM     10  C   UNL     1       4.422   5.530  18.343  0.00  0.00    +0.000 A 
ENDROOT
BRANCH   1  11
ATOM     11  N   UNL     1       5.502   3.565  19.432  0.00  0.00    +0.000 N 
ATOM     12  H   UNL     1       6.453   3.274  19.661  0.00  0.00    +0.000 HD
BRANCH  11  14
ATOM     13  O   UNL     1       4.199   1.924  17.941  0.00  0.00    +0.000 OA
ATOM     14  S   UNL     1       4.520   2.185  19.327  0.00  0.00    +0.000 S 
ATOM     15  O   UNL     1       5.147   1.175  20.152  0.00  0.00    +0.000 OA
BRANCH  14  16
ATOM     16  C   UNL     1       2.962   2.540  20.104  0.00  0.00    +0.000 A 
ATOM     17  C   UNL     1       2.611   2.754  21.424  0.00  0.00    +0.000 A 
ATOM     18  C   UNL     1       1.217   3.006  21.581  0.00  0.00    +0.000 A 
ATOM     19  C   UNL     1       0.552   2.983  20.376  0.00  0.00    +0.000 A 
ATOM     20  S   UNL     1       1.604   2.652  19.067  0.00  0.00    +0.000 S 
ENDBRANCH  14  16
ENDBRANCH  11  14
ENDBRANCH   1  11
BRANCH   4  21
ATOM     21  O   UNL     1       5.271   7.142  15.139  0.00  0.00    +0.000 OA
ATOM     22  H   UNL     1       4.421   7.622  15.225  0.00  0.00    +0.000 HD
ENDBRANCH   4  21
BRANCH   3  23
ATOM     23  S   UNL     1       7.372   4.845  14.837  0.00  0.00    +0.000 S 
BRANCH  23  24
ATOM     24  C   UNL     1       6.269   4.147  13.723  0.00  0.00    +0.000 A 
ATOM     25  N   UNL     1       4.958   4.120  13.773  0.00  0.00    +0.000 NA
ATOM     26  C   UNL     1       4.642   3.363  12.672  0.00  0.00    +0.000 A 
ATOM     27  N   UNL     1       5.682   2.906  11.970  0.00  0.00    +0.000 NA
ATOM     28  N   UNL     1       6.714   3.408  12.673  0.00  0.00    +0.000 N 
ATOM     29  H   UNL     1       7.666   3.201  12.399  0.00  0.00    +0.000 HD
ENDBRANCH  23  24
ENDBRANCH   3  23
TORSDOF 6
ENDMDL
MODEL 4
REMARK VINA RESULT:      -7.5      2.621      5.549
REMARK  Name = 
REMARK  6 active torsions:
REMARK  status: ('A' for Active; 'I' for Inactive)
REMARK    1  A    between atoms: S_2  and  N_4
REMARK    2  A    between atoms: S_2  and  C_22
REMARK    3  A    between atoms: N_4  and  C_5
REMARK    4  A    between atoms: C_7  and  S_8
REMARK    5  A    between atoms: S_8  and  C_9
REMARK    6  A    between atoms: C_14  and  O_15
REMARK                            x       y       z     vdW  Elec       q    Type
REMARK                         _______ _______ _______ _____ _____    ______ ____
ROOT
ATOM      1  C   UNL     1       3.054   6.302  19.545  0.00  0.00    +0.000 A 
ATOM      2  C   UNL     1       4.330   6.457  18.996  0.00  0.00    +0.000 A 
ATOM      3  C   UNL     1       5.167   5.354  18.805  0.00  0.00    +0.000 A 
ATOM      4  C   UNL     1       4.686   4.084  19.159  0.00  0.00    +0.000 A 
ATOM      5  C   UNL     1       3.402   3.899  19.722  0.00  0.00    +0.000 A 
ATOM      6  C   UNL     1       2.936   2.623  20.109  0.00  0.00    +0.000 A 
ATOM      7  C   UNL     1       1.668   2.442  20.661  0.00  0.00    +0.000 A 
ATOM      8  C   UNL     1       0.832   3.533  20.832  0.00  0.00    +0.000 A 
ATOM      9  C   UNL     1       1.269   4.807  20.461  0.00  0.00    +0.000 A 
ATOM     10  C   UNL     1       2.557   5.023  19.909  0.00  0.00    +0.000 A 
ENDROOT
BRANCH   1  11
ATOM     11  N   UNL     1       2.273   7.493  19.729  0.00  0.00    +0.000 N 
ATOM     12  H   UNL     1       1.420   7.361  20.273  0.00  0.00    +0.000 HD
BRANCH  11  14
ATOM     13  O   UNL     1       3.028   9.220  17.980  0.00  0.00    +0.000 OA
ATOM     14  S   UNL     1       1.899   8.389  18.338  0.00  0.00    +0.000 S 
ATOM     15  O   UNL     1       1.330   7.454  17.391  0.00  0.00    +0.000 OA
BRANCH  14  16
ATOM     16  C   UNL     1       0.593   9.528  18.733  0.00  0.00    +0.000 A 
ATOM     17  C   UNL     1      -0.485   9.991  18.003  0.00  0.00    +0.000 A 
ATOM     18  C   UNL     1      -1.282  10.915  18.740  0.00  0.00    +0.000 A 
ATOM     19  C   UNL     1      -0.790  11.121  20.009  0.00  0.00    +0.000 A 
ATOM     20  S   UNL     1       0.629  10.210  20.303  0.00  0.00    +0.000 S 
ENDBRANCH  14  16
ENDBRANCH  11  14
ENDBRANCH   1  11
BRANCH   4  21
ATOM     21  O   UNL     1       5.470   2.967  18.973  0.00  0.00    +0.000 OA
ATOM     22  H   UNL     1       6.398   3.280  18.939  0.00  0.00    +0.000 HD
ENDBRANCH   4  21
BRANCH   3  23
ATOM     23  S   UNL     1       6.858   5.693  18.321  0.00  0.00    +0.000 S 
BRANCH  23  24
ATOM     24  C   UNL     1       6.853   5.232  16.667  0.00  0.00    +0.000 A 
ATOM     25  N   UNL     1       6.346   4.154  16.117  0.00  0.00    +0.000 NA
ATOM     26  C   UNL     1       6.720   4.297  14.804  0.00  0.00    +0.000 A 
ATOM     27  N   UNL     1       7.445   5.384  14.527  0.00  0.00    +0.000 NA
ATOM     28  N   UNL     1       7.531   5.958  15.740  0.00  0.00    +0.000 N 
ATOM     29  H   UNL     1       8.064   6.809  15.865  0.00  0.00    +0.000 HD
ENDBRANCH  23  24
ENDBRANCH   3  23
TORSDOF 6
ENDMDL
MODEL 5
REMARK VINA RESULT:      -7.5      2.778      5.550
REMARK  Name = 
REMARK  6 active torsions:
REMARK  status: ('A' for Active; 'I' for Inactive)
REMARK    1  A    between atoms: S_2  and  N_4
REMARK    2  A    between atoms: S_2  and  C_22
REMARK    3  A    between atoms: N_4  and  C_5
REMARK    4  A    between atoms: C_7  and  S_8
REMARK    5  A    between atoms: S_8  and  C_9
REMARK    6  A    between atoms: C_14  and  O_15
REMARK                            x       y       z     vdW  Elec       q    Type
REMARK                         _______ _______ _______ _____ _____    ______ ____
ROOT
ATOM      1  C   UNL     1       2.770   5.831  18.306  0.00  0.00    +0.000 A 
ATOM      2  C   UNL     1       4.078   5.896  17.815  0.00  0.00    +0.000 A 
ATOM      3  C   UNL     1       5.020   4.922  18.154  0.00  0.00    +0.000 A 
ATOM      4  C   UNL     1       4.615   3.863  18.981  0.00  0.00    +0.000 A 
ATOM      5  C   UNL     1       3.300   3.774  19.496  0.00  0.00    +0.000 A 
ATOM      6  C   UNL     1       2.907   2.726  20.357  0.00  0.00    +0.000 A 
ATOM      7  C   UNL     1       1.610   2.638  20.861  0.00  0.00    +0.000 A 
ATOM      8  C   UNL     1       0.671   3.595  20.509  0.00  0.00    +0.000 A 
ATOM      9  C   UNL     1       1.035   4.644  19.662  0.00  0.00    +0.000 A 
ATOM     10  C   UNL     1       2.349   4.766  19.145  0.00  0.00    +0.000 A 
ENDROOT
BRANCH   1  11
ATOM     11  N   UNL     1       1.876   6.889  17.927  0.00  0.00    +0.000 N 
ATOM     12  H   UNL     1       1.847   7.081  16.926  0.00  0.00    +0.000 HD
BRANCH  11  14
ATOM     13  O   UNL     1       2.130   8.102  20.181  0.00  0.00    +0.000 OA
ATOM     14  S   UNL     1       2.030   8.359  18.760  0.00  0.00    +0.000 S 
ATOM     15  O   UNL     1       3.047   9.118  18.065  0.00  0.00    +0.000 OA
BRANCH  14  16
ATOM     16  C   UNL     1       0.523   9.281  18.563  0.00  0.00    +0.000 A 
ATOM     17  C   UNL     1      -0.352   9.411  17.501  0.00  0.00    +0.000 A 
ATOM     18  C   UNL     1      -1.445  10.274  17.801  0.00  0.00    +0.000 A 
ATOM     19  C   UNL     1      -1.372  10.769  19.084  0.00  0.00    +0.000 A 
ATOM     20  S   UNL     1       0.012  10.200  19.914  0.00  0.00    +0.000 S 
ENDBRANCH  14  16
ENDBRANCH  11  14
ENDBRANCH   1  11
BRANCH   4  21
ATOM     21  O   UNL     1       5.506   2.871  19.328  0.00  0.00    +0.000 OA
ATOM     22  H   UNL     1       5.937   2.580  18.497  0.00  0.00    +0.000 HD
ENDBRANCH   4  21
BRANCH   3  23
ATOM     23  S   UNL     1       6.716   5.230  17.669  0.00  0.00    +0.000 S 
BRANCH  23  24
ATOM     24  C   UNL     1       6.668   4.910  15.983  0.00  0.00    +0.000 A 
ATOM     25  N   UNL     1       6.029   3.957  15.347  0.00  0.00    +0.000 NA
ATOM     26  C   UNL     1       6.432   4.155  14.050  0.00  0.00    +0.000 A 
ATOM     27  N   UNL     1       7.297   5.155  13.862  0.00  0.00    +0.000 NA
ATOM     28  N   UNL     1       7.445   5.613  15.118  0.00  0.00    +0.000 N 
ATOM     29  H   UNL     1       8.084   6.373  15.312  0.00  0.00    +0.000 HD
ENDBRANCH  23  24
ENDBRANCH   3  23
TORSDOF 6
ENDMDL
MODEL 6
REMARK VINA RESULT:      -7.5      1.666      2.309
REMARK  Name = 
REMARK  6 active torsions:
REMARK  status: ('A' for Active; 'I' for Inactive)
REMARK    1  A    between atoms: S_2  and  N_4
REMARK    2  A    between atoms: S_2  and  C_22
REMARK    3  A    between atoms: N_4  and  C_5
REMARK    4  A    between atoms: C_7  and  S_8
REMARK    5  A    between atoms: S_8  and  C_9
REMARK    6  A    between atoms: C_14  and  O_15
REMARK                            x       y       z     vdW  Elec       q    Type
REMARK                         _______ _______ _______ _____ _____    ______ ____
ROOT
ATOM      1  C   UNL     1       3.543   5.754  19.887  0.00  0.00    +0.000 A 
ATOM      2  C   UNL     1       4.730   5.137  19.482  0.00  0.00    +0.000 A 
ATOM      3  C   UNL     1       5.409   5.567  18.339  0.00  0.00    +0.000 A 
ATOM      4  C   UNL     1       4.880   6.649  17.618  0.00  0.00    +0.000 A 
ATOM      5  C   UNL     1       3.677   7.288  18.001  0.00  0.00    +0.000 A 
ATOM      6  C   UNL     1       3.130   8.353  17.253  0.00  0.00    +0.000 A 
ATOM      7  C   UNL     1       1.947   8.985  17.633  0.00  0.00    +0.000 A 
ATOM      8  C   UNL     1       1.285   8.571  18.778  0.00  0.00    +0.000 A 
ATOM      9  C   UNL     1       1.803   7.516  19.535  0.00  0.00    +0.000 A 
ATOM     10  C   UNL     1       2.997   6.848  19.165  0.00  0.00    +0.000 A 
ENDROOT
BRANCH   1  11
ATOM     11  N   UNL     1       2.900   5.230  21.059  0.00  0.00    +0.000 N 
ATOM     12  H   UNL     1       3.528   5.049  21.842  0.00  0.00    +0.000 HD
BRANCH  11  14
ATOM     13  O   UNL     1       2.085   2.954  21.939  0.00  0.00    +0.000 OA
ATOM     14  S   UNL     1       1.893   3.881  20.845  0.00  0.00    +0.000 S 
ATOM     15  O   UNL     1       0.580   4.400  20.527  0.00  0.00    +0.000 OA
BRANCH  14  16
ATOM     16  C   UNL     1       2.427   3.002  19.395  0.00  0.00    +0.000 A 
ATOM     17  C   UNL     1       1.974   3.006  18.089  0.00  0.00    +0.000 A 
ATOM     18  C   UNL     1       2.718   2.123  17.254  0.00  0.00    +0.000 A 
ATOM     19  C   UNL     1       3.719   1.480  17.949  0.00  0.00    +0.000 A 
ATOM     20  S   UNL     1       3.751   1.936  19.598  0.00  0.00    +0.000 S 
ENDBRANCH  14  16
ENDBRANCH  11  14
ENDBRANCH   1  11
BRANCH   4  21
ATOM     21  O   UNL     1       5.523   7.117  16.494  0.00  0.00    +0.000 OA
ATOM     22  H   UNL     1       5.813   8.030  16.699  0.00  0.00    +0.000 HD
ENDBRANCH   4  21
BRANCH   3  23
ATOM     23  S   UNL     1       6.780   4.559  17.782  0.00  0.00    +0.000 S 
BRANCH  23  24
ATOM     24  C   UNL     1       6.578   4.596  16.077  0.00  0.00    +0.000 A 
ATOM     25  N   UNL     1       5.685   3.975  15.343  0.00  0.00    +0.000 NA
ATOM     26  C   UNL     1       6.071   4.315  14.070  0.00  0.00    +0.000 A 
ATOM     27  N   UNL     1       7.160   5.084  13.985  0.00  0.00    +0.000 NA
ATOM     28  N   UNL     1       7.475   5.237  15.283  0.00  0.00    +0.000 N 
ATOM     29  H   UNL     1       8.299   5.760  15.550  0.00  0.00    +0.000 HD
ENDBRANCH  23  24
ENDBRANCH   3  23
TORSDOF 6
ENDMDL
MODEL 7
REMARK VINA RESULT:      -7.4      2.547      5.480
REMARK  Name = 
REMARK  6 active torsions:
REMARK  status: ('A' for Active; 'I' for Inactive)
REMARK    1  A    between atoms: S_2  and  N_4
REMARK    2  A    between atoms: S_2  and  C_22
REMARK    3  A    between atoms: N_4  and  C_5
REMARK    4  A    between atoms: C_7  and  S_8
REMARK    5  A    between atoms: S_8  and  C_9
REMARK    6  A    between atoms: C_14  and  O_15
REMARK                            x       y       z     vdW  Elec       q    Type
REMARK                         _______ _______ _______ _____ _____    ______ ____
ROOT
ATOM      1  C   UNL     1       3.033   6.254  18.839  0.00  0.00    +0.000 A 
ATOM      2  C   UNL     1       4.023   6.318  17.853  0.00  0.00    +0.000 A 
ATOM      3  C   UNL     1       4.552   5.153  17.291  0.00  0.00    +0.000 A 
ATOM      4  C   UNL     1       4.049   3.917  17.724  0.00  0.00    +0.000 A 
ATOM      5  C   UNL     1       3.051   3.822  18.724  0.00  0.00    +0.000 A 
ATOM      6  C   UNL     1       2.574   2.575  19.183  0.00  0.00    +0.000 A 
ATOM      7  C   UNL     1       1.588   2.483  20.165  0.00  0.00    +0.000 A 
ATOM      8  C   UNL     1       1.051   3.639  20.708  0.00  0.00    +0.000 A 
ATOM      9  C   UNL     1       1.509   4.885  20.275  0.00  0.00    +0.000 A 
ATOM     10  C   UNL     1       2.518   5.009  19.287  0.00  0.00    +0.000 A 
ENDROOT
BRANCH   1  11
ATOM     11  N   UNL     1       2.567   7.500  19.379  0.00  0.00    +0.000 N 
ATOM     12  H   UNL     1       1.982   7.409  20.210  0.00  0.00    +0.000 HD
BRANCH  11  14
ATOM     13  O   UNL     1       2.815   9.437  17.705  0.00  0.00    +0.000 OA
ATOM     14  S   UNL     1       1.818   8.573  18.299  0.00  0.00    +0.000 S 
ATOM     15  O   UNL     1       0.936   7.773  17.475  0.00  0.00    +0.000 OA
BRANCH  14  16
ATOM     16  C   UNL     1       0.758   9.658  19.224  0.00  0.00    +0.000 A 
ATOM     17  C   UNL     1      -0.055  10.709  18.842  0.00  0.00    +0.000 A 
ATOM     18  C   UNL     1      -0.731  11.303  19.947  0.00  0.00    +0.000 A 
ATOM     19  C   UNL     1      -0.417  10.682  21.135  0.00  0.00    +0.000 A 
ATOM     20  S   UNL     1       0.692   9.397  20.915  0.00  0.00    +0.000 S 
ENDBRANCH  14  16
ENDBRANCH  11  14
ENDBRANCH   1  11
BRANCH   4  21
ATOM     21  O   UNL     1       4.529   2.743  17.187  0.00  0.00    +0.000 OA
ATOM     22  H   UNL     1       5.369   2.546  17.651  0.00  0.00    +0.000 HD
ENDBRANCH   4  21
BRANCH   3  23
ATOM     23  S   UNL     1       5.974   5.343  16.219  0.00  0.00    +0.000 S 
BRANCH  23  24
ATOM     24  C   UNL     1       7.003   6.337  17.167  0.00  0.00    +0.000 A 
ATOM     25  N   UNL     1       7.622   6.045  18.286  0.00  0.00    +0.000 NA
ATOM     26  C   UNL     1       8.213   7.241  18.610  0.00  0.00    +0.000 A 
ATOM     27  N   UNL     1       7.971   8.250  17.767  0.00  0.00    +0.000 NA
ATOM     28  N   UNL     1       7.180   7.649  16.860  0.00  0.00    +0.000 N 
ATOM     29  H   UNL     1       6.794   8.179  16.090  0.00  0.00    +0.000 HD
ENDBRANCH  23  24
ENDBRANCH   3  23
TORSDOF 6
ENDMDL
MODEL 8
REMARK VINA RESULT:      -7.3      2.618      5.576
REMARK  Name = 
REMARK  6 active torsions:
REMARK  status: ('A' for Active; 'I' for Inactive)
REMARK    1  A    between atoms: S_2  and  N_4
REMARK    2  A    between atoms: S_2  and  C_22
REMARK    3  A    between atoms: N_4  and  C_5
REMARK    4  A    between atoms: C_7  and  S_8
REMARK    5  A    between atoms: S_8  and  C_9
REMARK    6  A    between atoms: C_14  and  O_15
REMARK                            x       y       z     vdW  Elec       q    Type
REMARK                         _______ _______ _______ _____ _____    ______ ____
ROOT
ATOM      1  C   UNL     1       3.295   5.765  19.096  0.00  0.00    +0.000 A 
ATOM      2  C   UNL     1       4.571   5.787  18.525  0.00  0.00    +0.000 A 
ATOM      3  C   UNL     1       5.134   4.629  17.982  0.00  0.00    +0.000 A 
ATOM      4  C   UNL     1       4.377   3.448  18.004  0.00  0.00    +0.000 A 
ATOM      5  C   UNL     1       3.086   3.395  18.581  0.00  0.00    +0.000 A 
ATOM      6  C   UNL     1       2.342   2.196  18.633  0.00  0.00    +0.000 A 
ATOM      7  C   UNL     1       1.069   2.146  19.198  0.00  0.00    +0.000 A 
ATOM      8  C   UNL     1       0.504   3.299  19.719  0.00  0.00    +0.000 A 
ATOM      9  C   UNL     1       1.220   4.498  19.684  0.00  0.00    +0.000 A 
ATOM     10  C   UNL     1       2.521   4.575  19.127  0.00  0.00    +0.000 A 
ENDROOT
BRANCH   1  11
ATOM     11  N   UNL     1       2.807   6.996  19.654  0.00  0.00    +0.000 N 
ATOM     12  H   UNL     1       2.165   6.880  20.439  0.00  0.00    +0.000 HD
BRANCH  11  14
ATOM     13  O   UNL     1       3.196   8.979  18.064  0.00  0.00    +0.000 OA
ATOM     14  S   UNL     1       2.147   8.121  18.570  0.00  0.00    +0.000 S 
ATOM     15  O   UNL     1       1.297   7.371  17.671  0.00  0.00    +0.000 OA
BRANCH  14  16
ATOM     16  C   UNL     1       1.060   9.202  19.470  0.00  0.00    +0.000 A 
ATOM     17  C   UNL     1       0.276  10.269  19.073  0.00  0.00    +0.000 A 
ATOM     18  C   UNL     1      -0.439  10.850  20.159  0.00  0.00    +0.000 A 
ATOM     19  C   UNL     1      -0.184  10.204  21.348  0.00  0.00    +0.000 A 
ATOM     20  S   UNL     1       0.919   8.910  21.151  0.00  0.00    +0.000 S 
ENDBRANCH  14  16
ENDBRANCH  11  14
ENDBRANCH   1  11
BRANCH   4  21
ATOM     21  O   UNL     1       4.885   2.286  17.466  0.00  0.00    +0.000 OA
ATOM     22  H   UNL     1       4.129   1.670  17.368  0.00  0.00    +0.000 HD
ENDBRANCH   4  21
BRANCH   3  23
ATOM     23  S   UNL     1       6.855   4.714  17.496  0.00  0.00    +0.000 S 
BRANCH  23  24
ATOM     24  C   UNL     1       6.746   4.637  15.785  0.00  0.00    +0.000 A 
ATOM     25  N   UNL     1       6.092   3.774  15.043  0.00  0.00    +0.000 NA
ATOM     26  C   UNL     1       6.443   4.161  13.773  0.00  0.00    +0.000 A 
ATOM     27  N   UNL     1       7.291   5.191  13.699  0.00  0.00    +0.000 NA
ATOM     28  N   UNL     1       7.483   5.467  15.001  0.00  0.00    +0.000 N 
ATOM     29  H   UNL     1       8.121   6.201  15.278  0.00  0.00    +0.000 HD
ENDBRANCH  23  24
ENDBRANCH   3  23
TORSDOF 6
ENDMDL
MODEL 9
REMARK VINA RESULT:      -7.2      2.566      5.228
REMARK  Name = 
REMARK  6 active torsions:
REMARK  status: ('A' for Active; 'I' for Inactive)
REMARK    1  A    between atoms: S_2  and  N_4
REMARK    2  A    between atoms: S_2  and  C_22
REMARK    3  A    between atoms: N_4  and  C_5
REMARK    4  A    between atoms: C_7  and  S_8
REMARK    5  A    between atoms: S_8  and  C_9
REMARK    6  A    between atoms: C_14  and  O_15
REMARK                            x       y       z     vdW  Elec       q    Type
REMARK                         _______ _______ _______ _____ _____    ______ ____
ROOT
ATOM      1  C   UNL     1       2.686   5.476  18.151  0.00  0.00    +0.000 A 
ATOM      2  C   UNL     1       3.851   5.361  17.387  0.00  0.00    +0.000 A 
ATOM      3  C   UNL     1       4.817   4.398  17.693  0.00  0.00    +0.000 A 
ATOM      4  C   UNL     1       4.577   3.534  18.773  0.00  0.00    +0.000 A 
ATOM      5  C   UNL     1       3.409   3.631  19.566  0.00  0.00    +0.000 A 
ATOM      6  C   UNL     1       3.188   2.783  20.673  0.00  0.00    +0.000 A 
ATOM      7  C   UNL     1       2.036   2.878  21.451  0.00  0.00    +0.000 A 
ATOM      8  C   UNL     1       1.070   3.820  21.136  0.00  0.00    +0.000 A 
ATOM      9  C   UNL     1       1.265   4.675  20.048  0.00  0.00    +0.000 A 
ATOM     10  C   UNL     1       2.433   4.609  19.247  0.00  0.00    +0.000 A 
ENDROOT
BRANCH   1  11
ATOM     11  N   UNL     1       1.761   6.511  17.781  0.00  0.00    +0.000 N 
ATOM     12  H   UNL     1       1.419   6.450  16.821  0.00  0.00    +0.000 HD
BRANCH  11  14
ATOM     13  O   UNL     1       3.671   8.170  18.241  0.00  0.00    +0.000 OA
ATOM     14  S   UNL     1       2.234   8.110  18.092  0.00  0.00    +0.000 S 
ATOM     15  O   UNL     1       1.549   8.934  17.119  0.00  0.00    +0.000 OA
BRANCH  14  16
ATOM     16  C   UNL     1       1.584   8.594  19.674  0.00  0.00    +0.000 A 
ATOM     17  C   UNL     1       1.614   7.985  20.914  0.00  0.00    +0.000 A 
ATOM     18  C   UNL     1       0.947   8.753  21.912  0.00  0.00    +0.000 A 
ATOM     19  C   UNL     1       0.437   9.926  21.402  0.00  0.00    +0.000 A 
ATOM     20  S   UNL     1       0.755  10.091  19.729  0.00  0.00    +0.000 S 
ENDBRANCH  14  16
ENDBRANCH  11  14
ENDBRANCH   1  11
BRANCH   4  21
ATOM     21  O   UNL     1       5.493   2.559  19.101  0.00  0.00    +0.000 OA
ATOM     22  H   UNL     1       6.197   3.001  19.620  0.00  0.00    +0.000 HD
ENDBRANCH   4  21
BRANCH   3  23
ATOM     23  S   UNL     1       6.369   4.495  16.806  0.00  0.00    +0.000 S 
BRANCH  23  24
ATOM     24  C   UNL     1       6.995   5.998  17.348  0.00  0.00    +0.000 A 
ATOM     25  N   UNL     1       6.927   7.173  16.768  0.00  0.00    +0.000 NA
ATOM     26  C   UNL     1       7.668   7.958  17.615  0.00  0.00    +0.000 A 
ATOM     27  N   UNL     1       8.205   7.326  18.663  0.00  0.00    +0.000 NA
ATOM     28  N   UNL     1       7.773   6.069  18.460  0.00  0.00    +0.000 N 
ATOM     29  H   UNL     1       8.049   5.326  19.090  0.00  0.00    +0.000 HD
ENDBRANCH  23  24
ENDBRANCH   3  23
TORSDOF 6
ENDMDL
