MODEL 1
REMARK VINA RESULT:      -7.0      0.000      0.000
REMARK  Name = 
REMARK  9 active torsions:
REMARK  status: ('A' for Active; 'I' for Inactive)
REMARK    1  A    between atoms: C_1  and  C_2
REMARK    2  A    between atoms: C_5  and  C_6
REMARK    3  A    between atoms: C_6  and  N_7
REMARK    4  A    between atoms: C_14  and  C_15
REMARK    5  A    between atoms: C_15  and  O_16
REMARK    6  A    between atoms: O_16  and  C_17
REMARK    7  A    between atoms: C_17  and  C_18
REMARK    8  A    between atoms: N_20  and  C_21
REMARK    9  A    between atoms: N_20  and  C_22
REMARK                            x       y       z     vdW  Elec       q    Type
REMARK                         _______ _______ _______ _____ _____    ______ ____
ROOT
ATOM      1  N   UNL     1       3.582   6.140  18.041  0.00  0.00    +0.000 NA
ATOM      2  C   UNL     1       3.626   7.440  17.372  0.00  0.00    +0.000 C 
ATOM      3  C   UNL     1       2.365   8.278  17.749  0.00  0.00    +0.000 C 
ATOM      4  C   UNL     1       2.065   8.270  19.276  0.00  0.00    +0.000 C 
ATOM      5  O   UNL     1       1.048   9.223  19.597  0.00  0.00    +0.000 OA
ATOM      6  C   UNL     1       0.929   9.112  21.015  0.00  0.00    +0.000 C 
ATOM      7  C   UNL     1       1.311   7.672  21.362  0.00  0.00    +0.000 C 
ATOM      8  C   UNL     1       1.604   6.926  20.037  0.00  0.00    +0.000 C 
ATOM      9  C   UNL     1       2.900   6.280  19.330  0.00  0.00    +0.000 C 
ENDROOT
BRANCH   1  10
ATOM     10  C   UNL     1       4.817   5.386  18.279  0.00  0.00    +0.000 C 
BRANCH  10  15
ATOM     11  C   UNL     1       6.179   3.733  13.449  0.00  0.00    +0.000 C 
ATOM     12  C   UNL     1       6.221   4.336  14.806  0.00  0.00    +0.000 A 
ATOM     13  C   UNL     1       7.281   4.925  15.463  0.00  0.00    +0.000 A 
ATOM     14  C   UNL     1       6.922   5.387  16.760  0.00  0.00    +0.000 A 
ATOM     15  C   UNL     1       5.613   5.085  17.067  0.00  0.00    +0.000 A 
ATOM     16  S   UNL     1       4.804   4.351  15.751  0.00  0.00    +0.000 S 
ENDBRANCH  10  15
ENDBRANCH   1  10
BRANCH   8  17
ATOM     17  C   UNL     1       1.738   5.437  20.658  0.00  0.00    +0.000 C 
BRANCH  17  18
ATOM     18  O   UNL     1       0.697   4.454  20.615  0.00  0.00    +0.000 OA
BRANCH  18  19
ATOM     19  C   UNL     1       1.383   3.189  20.565  0.00  0.00    +0.000 C 
BRANCH  19  20
ATOM     20  C   UNL     1       1.902   2.687  19.231  0.00  0.00    +0.000 C 
ATOM     21  O   UNL     1       1.136   2.607  18.267  0.00  0.00    +0.000 OA
ATOM     22  N   UNL     1       3.207   2.221  19.198  0.00  0.00    +0.000 N 
ATOM     23  C   UNL     1       4.184   2.372  20.272  0.00  0.00    +0.000 C 
ATOM     24  C   UNL     1       3.698   1.642  17.967  0.00  0.00    +0.000 C 
ENDBRANCH  19  20
ENDBRANCH  18  19
ENDBRANCH  17  18
ENDBRANCH   8  17
TORSDOF 6
ENDMDL
MODEL 2
REMARK VINA RESULT:      -6.8      2.312      5.835
REMARK  Name = 
REMARK  9 active torsions:
REMARK  status: ('A' for Active; 'I' for Inactive)
REMARK    1  A    between atoms: C_1  and  C_2
REMARK    2  A    between atoms: C_5  and  C_6
REMARK    3  A    between atoms: C_6  and  N_7
REMARK    4  A    between atoms: C_14  and  C_15
REMARK    5  A    between atoms: C_15  and  O_16
REMARK    6  A    between atoms: O_16  and  C_17
REMARK    7  A    between atoms: C_17  and  C_18
REMARK    8  A    between atoms: N_20  and  C_21
REMARK    9  A    between atoms: N_20  and  C_22
REMARK                            x       y       z     vdW  Elec       q    Type
REMARK                         _______ _______ _______ _____ _____    ______ ____
ROOT
ATOM      1  N   UNL     1       3.999   6.367  18.099  0.00  0.00    +0.000 NA
ATOM      2  C   UNL     1       4.803   7.515  17.679  0.00  0.00    +0.000 C 
ATOM      3  C   UNL     1       6.174   7.029  17.114  0.00  0.00    +0.000 C 
ATOM      4  C   UNL     1       6.033   5.849  16.109  0.00  0.00    +0.000 C 
ATOM      5  O   UNL     1       7.277   5.591  15.454  0.00  0.00    +0.000 OA
ATOM      6  C   UNL     1       6.962   4.527  14.556  0.00  0.00    +0.000 C 
ATOM      7  C   UNL     1       5.818   3.748  15.207  0.00  0.00    +0.000 C 
ATOM      8  C   UNL     1       5.524   4.395  16.583  0.00  0.00    +0.000 C 
ATOM      9  C   UNL     1       4.307   5.219  17.242  0.00  0.00    +0.000 C 
ENDROOT
BRANCH   1  10
ATOM     10  C   UNL     1       2.539   6.474  18.179  0.00  0.00    +0.000 C 
BRANCH  10  15
ATOM     11  C   UNL     1       0.571  10.825  20.441  0.00  0.00    +0.000 C 
ATOM     12  C   UNL     1       1.089   9.449  20.224  0.00  0.00    +0.000 A 
ATOM     13  C   UNL     1       1.284   8.439  21.142  0.00  0.00    +0.000 A 
ATOM     14  C   UNL     1       1.801   7.258  20.542  0.00  0.00    +0.000 A 
ATOM     15  C   UNL     1       2.033   7.427  19.194  0.00  0.00    +0.000 A 
ATOM     16  S   UNL     1       1.521   8.966  18.649  0.00  0.00    +0.000 S 
ENDBRANCH  10  15
ENDBRANCH   1  10
BRANCH   8  17
ATOM     17  C   UNL     1       4.488   3.276  17.126  0.00  0.00    +0.000 C 
BRANCH  17  18
ATOM     18  O   UNL     1       3.067   3.358  16.972  0.00  0.00    +0.000 OA
BRANCH  18  19
ATOM     19  C   UNL     1       2.553   2.187  17.636  0.00  0.00    +0.000 C 
BRANCH  19  20
ATOM     20  C   UNL     1       1.560   2.361  18.769  0.00  0.00    +0.000 C 
ATOM     21  O   UNL     1       0.349   2.345  18.529  0.00  0.00    +0.000 OA
ATOM     22  N   UNL     1       2.078   2.656  20.020  0.00  0.00    +0.000 N 
ATOM     23  C   UNL     1       3.490   2.599  20.383  0.00  0.00    +0.000 C 
ATOM     24  C   UNL     1       1.153   2.928  21.098  0.00  0.00    +0.000 C 
ENDBRANCH  19  20
ENDBRANCH  18  19
ENDBRANCH  17  18
ENDBRANCH   8  17
TORSDOF 6
ENDMDL
MODEL 3
REMARK VINA RESULT:      -6.8      0.883      1.135
REMARK  Name = 
REMARK  9 active torsions:
REMARK  status: ('A' for Active; 'I' for Inactive)
REMARK    1  A    between atoms: C_1  and  C_2
REMARK    2  A    between atoms: C_5  and  C_6
REMARK    3  A    between atoms: C_6  and  N_7
REMARK    4  A    between atoms: C_14  and  C_15
REMARK    5  A    between atoms: C_15  and  O_16
REMARK    6  A    between atoms: O_16  and  C_17
REMARK    7  A    between atoms: C_17  and  C_18
REMARK    8  A    between atoms: N_20  and  C_21
REMARK    9  A    between atoms: N_20  and  C_22
REMARK                            x       y       z     vdW  Elec       q    Type
REMARK                         _______ _______ _______ _____ _____    ______ ____
ROOT
ATOM      1  N   UNL     1       3.575   6.126  18.208  0.00  0.00    +0.000 NA
ATOM      2  C   UNL     1       3.601   7.382  17.458  0.00  0.00    +0.000 C 
ATOM      3  C   UNL     1       2.333   8.229  17.789  0.00  0.00    +0.000 C 
ATOM      4  C   UNL     1       2.040   8.313  19.315  0.00  0.00    +0.000 C 
ATOM      5  O   UNL     1       1.014   9.273  19.581  0.00  0.00    +0.000 OA
ATOM      6  C   UNL     1       0.904   9.252  21.004  0.00  0.00    +0.000 C 
ATOM      7  C   UNL     1       1.304   7.840  21.439  0.00  0.00    +0.000 C 
ATOM      8  C   UNL     1       1.599   7.015  20.162  0.00  0.00    +0.000 C 
ATOM      9  C   UNL     1       2.898   6.340  19.490  0.00  0.00    +0.000 C 
ENDROOT
BRANCH   1  10
ATOM     10  C   UNL     1       4.820   5.403  18.486  0.00  0.00    +0.000 C 
BRANCH  10  15
ATOM     11  C   UNL     1       6.247   3.731  13.682  0.00  0.00    +0.000 C 
ATOM     12  C   UNL     1       6.277   4.320  15.045  0.00  0.00    +0.000 A 
ATOM     13  C   UNL     1       7.342   4.856  15.737  0.00  0.00    +0.000 A 
ATOM     14  C   UNL     1       6.966   5.322  17.028  0.00  0.00    +0.000 A 
ATOM     15  C   UNL     1       5.637   5.076  17.294  0.00  0.00    +0.000 A 
ATOM     16  S   UNL     1       4.834   4.391  15.948  0.00  0.00    +0.000 S 
ENDBRANCH  10  15
ENDBRANCH   1  10
BRANCH   8  17
ATOM     17  C   UNL     1       1.753   5.570  20.875  0.00  0.00    +0.000 C 
BRANCH  17  18
ATOM     18  O   UNL     1       0.886   4.458  20.627  0.00  0.00    +0.000 OA
BRANCH  18  19
ATOM     19  C   UNL     1       1.574   3.320  21.181  0.00  0.00    +0.000 C 
BRANCH  19  20
ATOM     20  C   UNL     1       2.668   2.656  20.368  0.00  0.00    +0.000 C 
ATOM     21  O   UNL     1       3.816   2.595  20.819  0.00  0.00    +0.000 OA
ATOM     22  N   UNL     1       2.340   2.251  19.083  0.00  0.00    +0.000 N 
ATOM     23  C   UNL     1       0.990   2.212  18.530  0.00  0.00    +0.000 C 
ATOM     24  C   UNL     1       3.388   1.707  18.247  0.00  0.00    +0.000 C 
ENDBRANCH  19  20
ENDBRANCH  18  19
ENDBRANCH  17  18
ENDBRANCH   8  17
TORSDOF 6
ENDMDL
MODEL 4
REMARK VINA RESULT:      -6.6      2.427      5.816
REMARK  Name = 
REMARK  9 active torsions:
REMARK  status: ('A' for Active; 'I' for Inactive)
REMARK    1  A    between atoms: C_1  and  C_2
REMARK    2  A    between atoms: C_5  and  C_6
REMARK    3  A    between atoms: C_6  and  N_7
REMARK    4  A    between atoms: C_14  and  C_15
REMARK    5  A    between atoms: C_15  and  O_16
REMARK    6  A    between atoms: O_16  and  C_17
REMARK    7  A    between atoms: C_17  and  C_18
REMARK    8  A    between atoms: N_20  and  C_21
REMARK    9  A    between atoms: N_20  and  C_22
REMARK                            x       y       z     vdW  Elec       q    Type
REMARK                         _______ _______ _______ _____ _____    ______ ____
ROOT
ATOM      1  N   UNL     1       4.102   6.186  18.068  0.00  0.00    +0.000 NA
ATOM      2  C   UNL     1       4.869   7.372  17.688  0.00  0.00    +0.000 C 
ATOM      3  C   UNL     1       6.222   6.948  17.038  0.00  0.00    +0.000 C 
ATOM      4  C   UNL     1       6.059   5.829  15.969  0.00  0.00    +0.000 C 
ATOM      5  O   UNL     1       7.279   5.636  15.249  0.00  0.00    +0.000 OA
ATOM      6  C   UNL     1       6.945   4.623  14.301  0.00  0.00    +0.000 C 
ATOM      7  C   UNL     1       5.841   3.783  14.948  0.00  0.00    +0.000 C 
ATOM      8  C   UNL     1       5.595   4.340  16.373  0.00  0.00    +0.000 C 
ATOM      9  C   UNL     1       4.392   5.099  17.131  0.00  0.00    +0.000 C 
ENDROOT
BRANCH   1  10
ATOM     10  C   UNL     1       2.645   6.260  18.214  0.00  0.00    +0.000 C 
BRANCH  10  15
ATOM     11  C   UNL     1       0.675  10.359  20.904  0.00  0.00    +0.000 C 
ATOM     12  C   UNL     1       1.224   9.508  19.817  0.00  0.00    +0.000 A 
ATOM     13  C   UNL     1       1.441   9.823  18.492  0.00  0.00    +0.000 A 
ATOM     14  C   UNL     1       1.985   8.730  17.761  0.00  0.00    +0.000 A 
ATOM     15  C   UNL     1       2.113   7.603  18.543  0.00  0.00    +0.000 A 
ATOM     16  S   UNL     1       1.683   7.906  20.172  0.00  0.00    +0.000 S 
ENDBRANCH  10  15
ENDBRANCH   1  10
BRANCH   8  17
ATOM     17  C   UNL     1       4.601   3.169  16.887  0.00  0.00    +0.000 C 
BRANCH  17  18
ATOM     18  O   UNL     1       4.527   2.722  18.245  0.00  0.00    +0.000 OA
BRANCH  18  19
ATOM     19  C   UNL     1       3.278   2.010  18.334  0.00  0.00    +0.000 C 
BRANCH  19  20
ATOM     20  C   UNL     1       2.023   2.772  18.712  0.00  0.00    +0.000 C 
ATOM     21  O   UNL     1       1.238   3.135  17.831  0.00  0.00    +0.000 OA
ATOM     22  N   UNL     1       1.883   3.134  20.042  0.00  0.00    +0.000 N 
ATOM     23  C   UNL     1       2.722   2.660  21.138  0.00  0.00    +0.000 C 
ATOM     24  C   UNL     1       0.748   3.949  20.416  0.00  0.00    +0.000 C 
ENDBRANCH  19  20
ENDBRANCH  18  19
ENDBRANCH  17  18
ENDBRANCH   8  17
TORSDOF 6
ENDMDL
MODEL 5
REMARK VINA RESULT:      -6.5      2.448      5.898
REMARK  Name = 
REMARK  9 active torsions:
REMARK  status: ('A' for Active; 'I' for Inactive)
REMARK    1  A    between atoms: C_1  and  C_2
REMARK    2  A    between atoms: C_5  and  C_6
REMARK    3  A    between atoms: C_6  and  N_7
REMARK    4  A    between atoms: C_14  and  C_15
REMARK    5  A    between atoms: C_15  and  O_16
REMARK    6  A    between atoms: O_16  and  C_17
REMARK    7  A    between atoms: C_17  and  C_18
REMARK    8  A    between atoms: N_20  and  C_21
REMARK    9  A    between atoms: N_20  and  C_22
REMARK                            x       y       z     vdW  Elec       q    Type
REMARK                         _______ _______ _______ _____ _____    ______ ____
ROOT
ATOM      1  N   UNL     1       4.130   6.175  18.125  0.00  0.00    +0.000 NA
ATOM      2  C   UNL     1       4.848   7.387  17.727  0.00  0.00    +0.000 C 
ATOM      3  C   UNL     1       6.221   7.010  17.091  0.00  0.00    +0.000 C 
ATOM      4  C   UNL     1       6.112   5.867  16.040  0.00  0.00    +0.000 C 
ATOM      5  O   UNL     1       7.342   5.714  15.329  0.00  0.00    +0.000 OA
ATOM      6  C   UNL     1       7.057   4.672  14.397  0.00  0.00    +0.000 C 
ATOM      7  C   UNL     1       5.987   3.797  15.054  0.00  0.00    +0.000 C 
ATOM      8  C   UNL     1       5.710   4.366  16.468  0.00  0.00    +0.000 C 
ATOM      9  C   UNL     1       4.472   5.085  17.207  0.00  0.00    +0.000 C 
ENDROOT
BRANCH   1  10
ATOM     10  C   UNL     1       2.671   6.189  18.263  0.00  0.00    +0.000 C 
BRANCH  10  15
ATOM     11  C   UNL     1       0.650  10.725  20.066  0.00  0.00    +0.000 C 
ATOM     12  C   UNL     1       1.167   9.335  19.989  0.00  0.00    +0.000 A 
ATOM     13  C   UNL     1       1.324   8.408  20.998  0.00  0.00    +0.000 A 
ATOM     14  C   UNL     1       1.856   7.177  20.522  0.00  0.00    +0.000 A 
ATOM     15  C   UNL     1       2.135   7.228  19.173  0.00  0.00    +0.000 A 
ATOM     16  S   UNL     1       1.651   8.715  18.478  0.00  0.00    +0.000 S 
ENDBRANCH  10  15
ENDBRANCH   1  10
BRANCH   8  17
ATOM     17  C   UNL     1       4.765   3.163  16.998  0.00  0.00    +0.000 C 
BRANCH  17  18
ATOM     18  O   UNL     1       3.340   3.251  17.103  0.00  0.00    +0.000 OA
BRANCH  18  19
ATOM     19  C   UNL     1       2.970   2.206  18.023  0.00  0.00    +0.000 C 
BRANCH  19  20
ATOM     20  C   UNL     1       3.175   2.430  19.509  0.00  0.00    +0.000 C 
ATOM     21  O   UNL     1       4.245   2.109  20.035  0.00  0.00    +0.000 OA
ATOM     22  N   UNL     1       2.084   2.879  20.235  0.00  0.00    +0.000 N 
ATOM     23  C   UNL     1       0.829   3.359  19.662  0.00  0.00    +0.000 C 
ATOM     24  C   UNL     1       2.218   3.004  21.670  0.00  0.00    +0.000 C 
ENDBRANCH  19  20
ENDBRANCH  18  19
ENDBRANCH  17  18
ENDBRANCH   8  17
TORSDOF 6
ENDMDL
MODEL 6
REMARK VINA RESULT:      -6.4      2.942      6.397
REMARK  Name = 
REMARK  9 active torsions:
REMARK  status: ('A' for Active; 'I' for Inactive)
REMARK    1  A    between atoms: C_1  and  C_2
REMARK    2  A    between atoms: C_5  and  C_6
REMARK    3  A    between atoms: C_6  and  N_7
REMARK    4  A    between atoms: C_14  and  C_15
REMARK    5  A    between atoms: C_15  and  O_16
REMARK    6  A    between atoms: O_16  and  C_17
REMARK    7  A    between atoms: C_17  and  C_18
REMARK    8  A    between atoms: N_20  and  C_21
REMARK    9  A    between atoms: N_20  and  C_22
REMARK                            x       y       z     vdW  Elec       q    Type
REMARK                         _______ _______ _______ _____ _____    ______ ____
ROOT
ATOM      1  N   UNL     1       2.667   6.014  18.634  0.00  0.00    +0.000 NA
ATOM      2  C   UNL     1       1.475   5.387  18.062  0.00  0.00    +0.000 C 
ATOM      3  C   UNL     1       1.847   4.014  17.422  0.00  0.00    +0.000 C 
ATOM      4  C   UNL     1       2.744   3.137  18.344  0.00  0.00    +0.000 C 
ATOM      5  O   UNL     1       2.870   1.814  17.817  0.00  0.00    +0.000 OA
ATOM      6  C   UNL     1       3.675   1.148  18.790  0.00  0.00    +0.000 C 
ATOM      7  C   UNL     1       4.556   2.227  19.422  0.00  0.00    +0.000 C 
ATOM      8  C   UNL     1       4.254   3.567  18.707  0.00  0.00    +0.000 C 
ATOM      9  C   UNL     1       3.580   4.974  19.112  0.00  0.00    +0.000 C 
ENDROOT
BRANCH   1  10
ATOM     10  C   UNL     1       2.541   7.010  19.702  0.00  0.00    +0.000 C 
BRANCH  10  15
ATOM     11  C   UNL     1      -0.512  11.317  19.919  0.00  0.00    +0.000 C 
ATOM     12  C   UNL     1       0.432  10.270  19.451  0.00  0.00    +0.000 A 
ATOM     13  C   UNL     1       1.060  10.150  18.229  0.00  0.00    +0.000 A 
ATOM     14  C   UNL     1       1.896   9.000  18.164  0.00  0.00    +0.000 A 
ATOM     15  C   UNL     1       1.834   8.255  19.321  0.00  0.00    +0.000 A 
ATOM     16  S   UNL     1       0.859   9.006  20.510  0.00  0.00    +0.000 S 
ENDBRANCH  10  15
ENDBRANCH   1  10
BRANCH   8  17
ATOM     17  C   UNL     1       5.442   4.438  19.379  0.00  0.00    +0.000 C 
BRANCH  17  18
ATOM     18  O   UNL     1       5.717   5.804  19.051  0.00  0.00    +0.000 OA
BRANCH  18  19
ATOM     19  C   UNL     1       7.035   5.789  18.469  0.00  0.00    +0.000 C 
BRANCH  19  20
ATOM     20  C   UNL     1       7.264   5.003  17.192  0.00  0.00    +0.000 C 
ATOM     21  O   UNL     1       8.153   4.148  17.151  0.00  0.00    +0.000 OA
ATOM     22  N   UNL     1       6.529   5.381  16.080  0.00  0.00    +0.000 N 
ATOM     23  C   UNL     1       5.407   6.315  16.088  0.00  0.00    +0.000 C 
ATOM     24  C   UNL     1       6.798   4.719  14.822  0.00  0.00    +0.000 C 
ENDBRANCH  19  20
ENDBRANCH  18  19
ENDBRANCH  17  18
ENDBRANCH   8  17
TORSDOF 6
ENDMDL
MODEL 7
REMARK VINA RESULT:      -6.4      2.022      5.227
REMARK  Name = 
REMARK  9 active torsions:
REMARK  status: ('A' for Active; 'I' for Inactive)
REMARK    1  A    between atoms: C_1  and  C_2
REMARK    2  A    between atoms: C_5  and  C_6
REMARK    3  A    between atoms: C_6  and  N_7
REMARK    4  A    between atoms: C_14  and  C_15
REMARK    5  A    between atoms: C_15  and  O_16
REMARK    6  A    between atoms: O_16  and  C_17
REMARK    7  A    between atoms: C_17  and  C_18
REMARK    8  A    between atoms: N_20  and  C_21
REMARK    9  A    between atoms: N_20  and  C_22
REMARK                            x       y       z     vdW  Elec       q    Type
REMARK                         _______ _______ _______ _____ _____    ______ ____
ROOT
ATOM      1  N   UNL     1       4.815   5.297  18.691  0.00  0.00    +0.000 NA
ATOM      2  C   UNL     1       5.282   3.911  18.673  0.00  0.00    +0.000 C 
ATOM      3  C   UNL     1       4.606   3.104  19.825  0.00  0.00    +0.000 C 
ATOM      4  C   UNL     1       3.070   3.340  19.912  0.00  0.00    +0.000 C 
ATOM      5  O   UNL     1       2.468   2.418  20.824  0.00  0.00    +0.000 OA
ATOM      6  C   UNL     1       1.080   2.743  20.753  0.00  0.00    +0.000 C 
ATOM      7  C   UNL     1       1.010   4.231  20.401  0.00  0.00    +0.000 C 
ATOM      8  C   UNL     1       2.461   4.771  20.332  0.00  0.00    +0.000 C 
ATOM      9  C   UNL     1       3.435   5.338  19.181  0.00  0.00    +0.000 C 
ENDROOT
BRANCH   1  10
ATOM     10  C   UNL     1       4.872   6.115  17.476  0.00  0.00    +0.000 C 
BRANCH  10  15
ATOM     11  C   UNL     1       6.200   3.595  13.026  0.00  0.00    +0.000 C 
ATOM     12  C   UNL     1       6.266   4.389  14.279  0.00  0.00    +0.000 A 
ATOM     13  C   UNL     1       7.365   4.944  14.900  0.00  0.00    +0.000 A 
ATOM     14  C   UNL     1       7.017   5.637  16.093  0.00  0.00    +0.000 A 
ATOM     15  C   UNL     1       5.670   5.540  16.368  0.00  0.00    +0.000 A 
ATOM     16  S   UNL     1       4.826   4.713  15.131  0.00  0.00    +0.000 S 
ENDBRANCH  10  15
ENDBRANCH   1  10
BRANCH   8  17
ATOM     17  C   UNL     1       2.094   6.341  20.190  0.00  0.00    +0.000 C 
BRANCH  17  18
ATOM     18  O   UNL     1       1.353   7.082  21.167  0.00  0.00    +0.000 OA
BRANCH  18  19
ATOM     19  C   UNL     1       1.277   8.420  20.639  0.00  0.00    +0.000 C 
BRANCH  19  20
ATOM     20  C   UNL     1       0.907   9.557  21.572  0.00  0.00    +0.000 C 
ATOM     21  O   UNL     1       1.410   9.614  22.698  0.00  0.00    +0.000 OA
ATOM     22  N   UNL     1      -0.089  10.422  21.147  0.00  0.00    +0.000 N 
ATOM     23  C   UNL     1      -0.653  10.463  19.801  0.00  0.00    +0.000 C 
ATOM     24  C   UNL     1      -0.535  11.456  22.056  0.00  0.00    +0.000 C 
ENDBRANCH  19  20
ENDBRANCH  18  19
ENDBRANCH  17  18
ENDBRANCH   8  17
TORSDOF 6
ENDMDL
MODEL 8
REMARK VINA RESULT:      -6.4      2.814      6.600
REMARK  Name = 
REMARK  9 active torsions:
REMARK  status: ('A' for Active; 'I' for Inactive)
REMARK    1  A    between atoms: C_1  and  C_2
REMARK    2  A    between atoms: C_5  and  C_6
REMARK    3  A    between atoms: C_6  and  N_7
REMARK    4  A    between atoms: C_14  and  C_15
REMARK    5  A    between atoms: C_15  and  O_16
REMARK    6  A    between atoms: O_16  and  C_17
REMARK    7  A    between atoms: C_17  and  C_18
REMARK    8  A    between atoms: N_20  and  C_21
REMARK    9  A    between atoms: N_20  and  C_22
REMARK                            x       y       z     vdW  Elec       q    Type
REMARK                         _______ _______ _______ _____ _____    ______ ____
ROOT
ATOM      1  N   UNL     1       2.072   5.759  19.092  0.00  0.00    +0.000 NA
ATOM      2  C   UNL     1       1.364   5.034  20.147  0.00  0.00    +0.000 C 
ATOM      3  C   UNL     1       1.232   3.528  19.765  0.00  0.00    +0.000 C 
ATOM      4  C   UNL     1       2.565   2.913  19.247  0.00  0.00    +0.000 C 
ATOM      5  O   UNL     1       2.453   1.493  19.126  0.00  0.00    +0.000 OA
ATOM      6  C   UNL     1       3.753   1.097  18.687  0.00  0.00    +0.000 C 
ATOM      7  C   UNL     1       4.313   2.282  17.897  0.00  0.00    +0.000 C 
ATOM      8  C   UNL     1       3.222   3.381  17.852  0.00  0.00    +0.000 C 
ATOM      9  C   UNL     1       3.042   4.864  18.456  0.00  0.00    +0.000 C 
ENDROOT
BRANCH   1  10
ATOM     10  C   UNL     1       2.766   7.014  19.392  0.00  0.00    +0.000 C 
BRANCH  10  15
ATOM     11  C   UNL     1      -0.432  11.114  20.331  0.00  0.00    +0.000 C 
ATOM     12  C   UNL     1       0.492  10.159  19.667  0.00  0.00    +0.000 A 
ATOM     13  C   UNL     1       0.963  10.164  18.371  0.00  0.00    +0.000 A 
ATOM     14  C   UNL     1       1.836   9.072  18.110  0.00  0.00    +0.000 A 
ATOM     15  C   UNL     1       1.958   8.242  19.203  0.00  0.00    +0.000 A 
ATOM     16  S   UNL     1       1.111   8.847  20.560  0.00  0.00    +0.000 S 
ENDBRANCH  10  15
ENDBRANCH   1  10
BRANCH   8  17
ATOM     17  C   UNL     1       3.960   4.368  16.802  0.00  0.00    +0.000 C 
BRANCH  17  18
ATOM     18  O   UNL     1       4.967   3.943  15.877  0.00  0.00    +0.000 OA
BRANCH  18  19
ATOM     19  C   UNL     1       5.859   5.068  15.758  0.00  0.00    +0.000 C 
BRANCH  19  20
ATOM     20  C   UNL     1       6.988   5.220  16.759  0.00  0.00    +0.000 C 
ATOM     21  O   UNL     1       7.839   4.331  16.862  0.00  0.00    +0.000 OA
ATOM     22  N   UNL     1       6.935   6.314  17.608  0.00  0.00    +0.000 N 
ATOM     23  C   UNL     1       6.013   7.438  17.477  0.00  0.00    +0.000 C 
ATOM     24  C   UNL     1       7.941   6.432  18.640  0.00  0.00    +0.000 C 
ENDBRANCH  19  20
ENDBRANCH  18  19
ENDBRANCH  17  18
ENDBRANCH   8  17
TORSDOF 6
ENDMDL
MODEL 9
REMARK VINA RESULT:      -6.3      2.910      6.324
REMARK  Name = 
REMARK  9 active torsions:
REMARK  status: ('A' for Active; 'I' for Inactive)
REMARK    1  A    between atoms: C_1  and  C_2
REMARK    2  A    between atoms: C_5  and  C_6
REMARK    3  A    between atoms: C_6  and  N_7
REMARK    4  A    between atoms: C_14  and  C_15
REMARK    5  A    between atoms: C_15  and  O_16
REMARK    6  A    between atoms: O_16  and  C_17
REMARK    7  A    between atoms: C_17  and  C_18
REMARK    8  A    between atoms: N_20  and  C_21
REMARK    9  A    between atoms: N_20  and  C_22
REMARK                            x       y       z     vdW  Elec       q    Type
REMARK                         _______ _______ _______ _____ _____    ______ ____
ROOT
ATOM      1  N   UNL     1       1.627   5.574  19.726  0.00  0.00    +0.000 NA
ATOM      2  C   UNL     1       1.085   4.601  20.675  0.00  0.00    +0.000 C 
ATOM      3  C   UNL     1       1.047   3.183  20.025  0.00  0.00    +0.000 C 
ATOM      4  C   UNL     1       2.373   2.812  19.299  0.00  0.00    +0.000 C 
ATOM      5  O   UNL     1       2.373   1.433  18.919  0.00  0.00    +0.000 OA
ATOM      6  C   UNL     1       3.654   1.258  18.315  0.00  0.00    +0.000 C 
ATOM      7  C   UNL     1       4.035   2.618  17.725  0.00  0.00    +0.000 C 
ATOM      8  C   UNL     1       2.855   3.590  17.973  0.00  0.00    +0.000 C 
ATOM      9  C   UNL     1       2.606   4.912  18.859  0.00  0.00    +0.000 C 
ENDROOT
BRANCH   1  10
ATOM     10  C   UNL     1       2.237   6.817  20.206  0.00  0.00    +0.000 C 
BRANCH  10  15
ATOM     11  C   UNL     1       0.236  11.524  18.879  0.00  0.00    +0.000 C 
ATOM     12  C   UNL     1       0.973  10.234  18.842  0.00  0.00    +0.000 A 
ATOM     13  C   UNL     1       1.716   9.687  17.817  0.00  0.00    +0.000 A 
ATOM     14  C   UNL     1       2.271   8.425  18.168  0.00  0.00    +0.000 A 
ATOM     15  C   UNL     1       1.887   8.030  19.431  0.00  0.00    +0.000 A 
ATOM     16  S   UNL     1       0.957   9.231  20.218  0.00  0.00    +0.000 S 
ENDBRANCH  10  15
ENDBRANCH   1  10
BRANCH   8  17
ATOM     17  C   UNL     1       3.404   4.821  17.076  0.00  0.00    +0.000 C 
BRANCH  17  18
ATOM     18  O   UNL     1       4.669   4.820  16.405  0.00  0.00    +0.000 OA
BRANCH  18  19
ATOM     19  C   UNL     1       5.229   6.121  16.667  0.00  0.00    +0.000 C 
BRANCH  19  20
ATOM     20  C   UNL     1       6.643   6.216  17.208  0.00  0.00    +0.000 C 
ATOM     21  O   UNL     1       7.560   6.579  16.464  0.00  0.00    +0.000 OA
ATOM     22  N   UNL     1       6.854   5.766  18.501  0.00  0.00    +0.000 N 
ATOM     23  C   UNL     1       5.806   5.415  19.454  0.00  0.00    +0.000 C 
ATOM     24  C   UNL     1       8.209   5.749  19.009  0.00  0.00    +0.000 C 
ENDBRANCH  19  20
ENDBRANCH  18  19
ENDBRANCH  17  18
ENDBRANCH   8  17
TORSDOF 6
ENDMDL
