MODEL 1
REMARK VINA RESULT:      -7.2      0.000      0.000
REMARK  Name = 
REMARK  4 active torsions:
REMARK  status: ('A' for Active; 'I' for Inactive)
REMARK    1  A    between atoms: C_1  and  C_2
REMARK    2  A    between atoms: N_6  and  C_7
REMARK    3  A    between atoms: N_10  and  S_11
REMARK    4  A    between atoms: S_11  and  C_14
REMARK                            x       y       z     vdW  Elec       q    Type
REMARK                         _______ _______ _______ _____ _____    ______ ____
ROOT
ATOM      1  C   UNL     1       3.050   6.389  19.531  0.00  0.00    +0.000 C 
ATOM      2  C   UNL     1       2.628   6.826  18.127  0.00  0.00    +0.000 C 
ATOM      3  C   UNL     1       2.327   8.322  18.123  0.00  0.00    +0.000 C 
ATOM      4  N   UNL     1       1.291   8.678  19.143  0.00  0.00    +0.000 NA
ATOM      5  C   UNL     1       1.573   8.133  20.511  0.00  0.00    +0.000 C 
ATOM      6  C   UNL     1       1.877   6.640  20.479  0.00  0.00    +0.000 C 
ENDROOT
BRANCH   1  12
ATOM      7  C   UNL     1       5.999   5.490  19.041  0.00  0.00    +0.000 C 
ATOM      8  C   UNL     1       4.843   4.610  19.326  0.00  0.00    +0.000 A 
ATOM      9  N   UNL     1       4.877   3.294  19.397  0.00  0.00    +0.000 NA
ATOM     10  N   UNL     1       3.616   2.848  19.704  0.00  0.00    +0.000 NA
ATOM     11  C   UNL     1       2.836   3.898  19.810  0.00  0.00    +0.000 A 
ATOM     12  N   UNL     1       3.555   5.028  19.566  0.00  0.00    +0.000 N 
ENDBRANCH   1  12
BRANCH   4  13
ATOM     13  S   UNL     1       0.999  10.392  19.242  0.00  0.00    +0.000 S 
ATOM     14  O   UNL     1       0.999  10.763  20.641  0.00  0.00    +0.000 OA
ATOM     15  O   UNL     1       1.898  11.023  18.300  0.00  0.00    +0.000 OA
BRANCH  13  16
ATOM     16  C   UNL     1      -0.664  10.594  18.656  0.00  0.00    +0.000 A 
ATOM     17  C   UNL     1      -1.481  11.556  19.258  0.00  0.00    +0.000 A 
ATOM     18  C   UNL     1      -2.767  11.774  18.758  0.00  0.00    +0.000 A 
ATOM     19  C   UNL     1      -3.221  11.041  17.660  0.00  0.00    +0.000 A 
ATOM     20 CL   UNL     1      -4.803  11.318  17.045  0.00  0.00    +0.000 Cl
ATOM     21  C   UNL     1      -2.398  10.091  17.052  0.00  0.00    +0.000 A 
ATOM     22  C   UNL     1      -1.112   9.864  17.550  0.00  0.00    +0.000 A 
ENDBRANCH  13  16
ENDBRANCH   4  13
TORSDOF 3
ENDMDL
MODEL 2
REMARK VINA RESULT:      -7.1      0.105      1.040
REMARK  Name = 
REMARK  4 active torsions:
REMARK  status: ('A' for Active; 'I' for Inactive)
REMARK    1  A    between atoms: C_1  and  C_2
REMARK    2  A    between atoms: N_6  and  C_7
REMARK    3  A    between atoms: N_10  and  S_11
REMARK    4  A    between atoms: S_11  and  C_14
REMARK                            x       y       z     vdW  Elec       q    Type
REMARK                         _______ _______ _______ _____ _____    ______ ____
ROOT
ATOM      1  C   UNL     1       3.026   6.416  19.529  0.00  0.00    +0.000 C 
ATOM      2  C   UNL     1       2.639   6.861  18.118  0.00  0.00    +0.000 C 
ATOM      3  C   UNL     1       2.365   8.363  18.110  0.00  0.00    +0.000 C 
ATOM      4  N   UNL     1       1.317   8.736  19.110  0.00  0.00    +0.000 NA
ATOM      5  C   UNL     1       1.564   8.185  20.483  0.00  0.00    +0.000 C 
ATOM      6  C   UNL     1       1.840   6.687  20.455  0.00  0.00    +0.000 C 
ENDROOT
BRANCH   1  12
ATOM      7  C   UNL     1       5.950   5.454  19.007  0.00  0.00    +0.000 C 
ATOM      8  C   UNL     1       4.782   4.600  19.318  0.00  0.00    +0.000 A 
ATOM      9  N   UNL     1       4.792   3.284  19.404  0.00  0.00    +0.000 NA
ATOM     10  N   UNL     1       3.527   2.866  19.733  0.00  0.00    +0.000 NA
ATOM     11  C   UNL     1       2.769   3.932  19.839  0.00  0.00    +0.000 A 
ATOM     12  N   UNL     1       3.506   5.045  19.572  0.00  0.00    +0.000 N 
ENDBRANCH   1  12
BRANCH   4  13
ATOM     13  S   UNL     1       1.054  10.456  19.205  0.00  0.00    +0.000 S 
ATOM     14  O   UNL     1       1.044  10.826  20.605  0.00  0.00    +0.000 OA
ATOM     15  O   UNL     1       1.976  11.070  18.275  0.00  0.00    +0.000 OA
BRANCH  13  16
ATOM     16  C   UNL     1      -0.597  10.687  18.599  0.00  0.00    +0.000 A 
ATOM     17  C   UNL     1      -1.067   9.851  17.582  0.00  0.00    +0.000 A 
ATOM     18  C   UNL     1      -2.389   9.975  17.148  0.00  0.00    +0.000 A 
ATOM     19  C   UNL     1      -3.229  10.922  17.736  0.00  0.00    +0.000 A 
ATOM     20 CL   UNL     1      -4.858  11.067  17.202  0.00  0.00    +0.000 Cl
ATOM     21  C   UNL     1      -2.761  11.745  18.761  0.00  0.00    +0.000 A 
ATOM     22  C   UNL     1      -1.439  11.630  19.198  0.00  0.00    +0.000 A 
ENDBRANCH  13  16
ENDBRANCH   4  13
TORSDOF 3
ENDMDL
MODEL 3
REMARK VINA RESULT:      -7.0      4.740      8.043
REMARK  Name = 
REMARK  4 active torsions:
REMARK  status: ('A' for Active; 'I' for Inactive)
REMARK    1  A    between atoms: C_1  and  C_2
REMARK    2  A    between atoms: N_6  and  C_7
REMARK    3  A    between atoms: N_10  and  S_11
REMARK    4  A    between atoms: S_11  and  C_14
REMARK                            x       y       z     vdW  Elec       q    Type
REMARK                         _______ _______ _______ _____ _____    ______ ____
ROOT
ATOM      1  C   UNL     1       2.243   7.857  19.541  0.00  0.00    +0.000 C 
ATOM      2  C   UNL     1       1.758   6.509  20.078  0.00  0.00    +0.000 C 
ATOM      3  C   UNL     1       2.914   5.511  20.076  0.00  0.00    +0.000 C 
ATOM      4  N   UNL     1       3.521   5.374  18.717  0.00  0.00    +0.000 NA
ATOM      5  C   UNL     1       3.868   6.683  18.071  0.00  0.00    +0.000 C 
ATOM      6  C   UNL     1       2.697   7.658  18.095  0.00  0.00    +0.000 C 
ENDROOT
BRANCH   1  12
ATOM      7  C   UNL     1       1.268   9.072  22.247  0.00  0.00    +0.000 C 
ATOM      8  C   UNL     1       0.797   9.441  20.892  0.00  0.00    +0.000 A 
ATOM      9  N   UNL     1      -0.132  10.335  20.617  0.00  0.00    +0.000 NA
ATOM     10  N   UNL     1      -0.267  10.409  19.254  0.00  0.00    +0.000 NA
ATOM     11  C   UNL     1       0.579   9.557  18.723  0.00  0.00    +0.000 A 
ATOM     12  N   UNL     1       1.259   8.913  19.710  0.00  0.00    +0.000 N 
ENDBRANCH   1  12
BRANCH   4  13
ATOM     13  S   UNL     1       4.912   4.324  18.699  0.00  0.00    +0.000 S 
ATOM     14  O   UNL     1       5.879   4.853  19.638  0.00  0.00    +0.000 OA
ATOM     15  O   UNL     1       4.413   2.971  18.820  0.00  0.00    +0.000 OA
BRANCH  13  16
ATOM     16  C   UNL     1       5.602   4.529  17.077  0.00  0.00    +0.000 A 
ATOM     17  C   UNL     1       6.912   5.003  16.955  0.00  0.00    +0.000 A 
ATOM     18  C   UNL     1       7.492   5.099  15.688  0.00  0.00    +0.000 A 
ATOM     19  C   UNL     1       6.766   4.714  14.559  0.00  0.00    +0.000 A 
ATOM     20 CL   UNL     1       7.486   4.829  13.002  0.00  0.00    +0.000 Cl
ATOM     21  C   UNL     1       5.463   4.229  14.685  0.00  0.00    +0.000 A 
ATOM     22  C   UNL     1       4.875   4.134  15.949  0.00  0.00    +0.000 A 
ENDBRANCH  13  16
ENDBRANCH   4  13
TORSDOF 3
ENDMDL
MODEL 4
REMARK VINA RESULT:      -7.0      0.756      1.687
REMARK  Name = 
REMARK  4 active torsions:
REMARK  status: ('A' for Active; 'I' for Inactive)
REMARK    1  A    between atoms: C_1  and  C_2
REMARK    2  A    between atoms: N_6  and  C_7
REMARK    3  A    between atoms: N_10  and  S_11
REMARK    4  A    between atoms: S_11  and  C_14
REMARK                            x       y       z     vdW  Elec       q    Type
REMARK                         _______ _______ _______ _____ _____    ______ ____
ROOT
ATOM      1  C   UNL     1       3.163   6.808  19.126  0.00  0.00    +0.000 C 
ATOM      2  C   UNL     1       2.705   7.412  17.798  0.00  0.00    +0.000 C 
ATOM      3  C   UNL     1       2.303   8.869  18.008  0.00  0.00    +0.000 C 
ATOM      4  N   UNL     1       1.253   9.004  19.064  0.00  0.00    +0.000 NA
ATOM      5  C   UNL     1       1.580   8.290  20.341  0.00  0.00    +0.000 C 
ATOM      6  C   UNL     1       1.982   6.840  20.096  0.00  0.00    +0.000 C 
ENDROOT
BRANCH   1  12
ATOM      7  C   UNL     1       1.797   4.286  17.893  0.00  0.00    +0.000 C 
ATOM      8  C   UNL     1       3.165   4.365  18.453  0.00  0.00    +0.000 A 
ATOM      9  N   UNL     1       4.021   3.364  18.537  0.00  0.00    +0.000 NA
ATOM     10  N   UNL     1       5.184   3.840  19.088  0.00  0.00    +0.000 NA
ATOM     11  C   UNL     1       5.016   5.118  19.333  0.00  0.00    +0.000 A 
ATOM     12  N   UNL     1       3.759   5.493  18.967  0.00  0.00    +0.000 N 
ENDBRANCH   1  12
BRANCH   4  13
ATOM     13  S   UNL     1       0.846  10.663  19.407  0.00  0.00    +0.000 S 
ATOM     14  O   UNL     1       0.749  10.809  20.843  0.00  0.00    +0.000 OA
ATOM     15  O   UNL     1       1.752  11.483  18.631  0.00  0.00    +0.000 OA
BRANCH  13  16
ATOM     16  C   UNL     1      -0.793  10.863  18.757  0.00  0.00    +0.000 A 
ATOM     17  C   UNL     1      -1.215  10.026  17.718  0.00  0.00    +0.000 A 
ATOM     18  C   UNL     1      -2.526  10.125  17.249  0.00  0.00    +0.000 A 
ATOM     19  C   UNL     1      -3.404  11.046  17.822  0.00  0.00    +0.000 A 
ATOM     20 CL   UNL     1      -5.020  11.159  17.244  0.00  0.00    +0.000 Cl
ATOM     21  C   UNL     1      -2.984  11.870  18.868  0.00  0.00    +0.000 A 
ATOM     22  C   UNL     1      -1.673  11.781  19.340  0.00  0.00    +0.000 A 
ENDBRANCH  13  16
ENDBRANCH   4  13
TORSDOF 3
ENDMDL
MODEL 5
REMARK VINA RESULT:      -7.0      0.604      1.303
REMARK  Name = 
REMARK  4 active torsions:
REMARK  status: ('A' for Active; 'I' for Inactive)
REMARK    1  A    between atoms: C_1  and  C_2
REMARK    2  A    between atoms: N_6  and  C_7
REMARK    3  A    between atoms: N_10  and  S_11
REMARK    4  A    between atoms: S_11  and  C_14
REMARK                            x       y       z     vdW  Elec       q    Type
REMARK                         _______ _______ _______ _____ _____    ______ ____
ROOT
ATOM      1  C   UNL     1       3.106   6.661  19.277  0.00  0.00    +0.000 C 
ATOM      2  C   UNL     1       2.608   7.218  17.943  0.00  0.00    +0.000 C 
ATOM      3  C   UNL     1       2.211   8.682  18.114  0.00  0.00    +0.000 C 
ATOM      4  N   UNL     1       1.192   8.853  19.195  0.00  0.00    +0.000 NA
ATOM      5  C   UNL     1       1.557   8.184  20.486  0.00  0.00    +0.000 C 
ATOM      6  C   UNL     1       1.954   6.727  20.280  0.00  0.00    +0.000 C 
ENDROOT
BRANCH   1  12
ATOM      7  C   UNL     1       1.656   4.056  18.351  0.00  0.00    +0.000 C 
ATOM      8  C   UNL     1       3.071   4.179  18.768  0.00  0.00    +0.000 A 
ATOM      9  N   UNL     1       3.942   3.191  18.832  0.00  0.00    +0.000 NA
ATOM     10  N   UNL     1       5.148   3.708  19.234  0.00  0.00    +0.000 NA
ATOM     11  C   UNL     1       4.990   4.999  19.411  0.00  0.00    +0.000 A 
ATOM     12  N   UNL     1       3.699   5.341  19.147  0.00  0.00    +0.000 N 
ENDBRANCH   1  12
BRANCH   4  13
ATOM     13  S   UNL     1       0.793  10.523  19.491  0.00  0.00    +0.000 S 
ATOM     14  O   UNL     1       0.691  10.708  20.924  0.00  0.00    +0.000 OA
ATOM     15  O   UNL     1       1.707  11.317  18.698  0.00  0.00    +0.000 OA
BRANCH  13  16
ATOM     16  C   UNL     1      -0.842  10.714  18.830  0.00  0.00    +0.000 A 
ATOM     17  C   UNL     1      -1.711  11.632  19.428  0.00  0.00    +0.000 A 
ATOM     18  C   UNL     1      -2.974  11.844  18.872  0.00  0.00    +0.000 A 
ATOM     19  C   UNL     1      -3.355  11.149  17.723  0.00  0.00    +0.000 A 
ATOM     20 CL   UNL     1      -4.909  11.418  17.038  0.00  0.00    +0.000 Cl
ATOM     21  C   UNL     1      -2.480  10.243  17.119  0.00  0.00    +0.000 A 
ATOM     22  C   UNL     1      -1.217  10.022  17.673  0.00  0.00    +0.000 A 
ENDBRANCH  13  16
ENDBRANCH   4  13
TORSDOF 3
ENDMDL
MODEL 6
REMARK VINA RESULT:      -7.0      5.994      8.316
REMARK  Name = 
REMARK  4 active torsions:
REMARK  status: ('A' for Active; 'I' for Inactive)
REMARK    1  A    between atoms: C_1  and  C_2
REMARK    2  A    between atoms: N_6  and  C_7
REMARK    3  A    between atoms: N_10  and  S_11
REMARK    4  A    between atoms: S_11  and  C_14
REMARK                            x       y       z     vdW  Elec       q    Type
REMARK                         _______ _______ _______ _____ _____    ______ ____
ROOT
ATOM      1  C   UNL     1       3.938   4.401  19.290  0.00  0.00    +0.000 C 
ATOM      2  C   UNL     1       5.314   3.784  19.033  0.00  0.00    +0.000 C 
ATOM      3  C   UNL     1       6.088   4.650  18.041  0.00  0.00    +0.000 C 
ATOM      4  N   UNL     1       5.326   4.844  16.769  0.00  0.00    +0.000 NA
ATOM      5  C   UNL     1       3.910   5.294  16.970  0.00  0.00    +0.000 C 
ATOM      6  C   UNL     1       3.169   4.414  17.969  0.00  0.00    +0.000 C 
ENDROOT
BRANCH   1  12
ATOM      7  C   UNL     1       1.505   5.555  20.869  0.00  0.00    +0.000 C 
ATOM      8  C   UNL     1       2.174   4.256  21.104  0.00  0.00    +0.000 A 
ATOM      9  N   UNL     1       1.855   3.384  22.040  0.00  0.00    +0.000 NA
ATOM     10  N   UNL     1       2.686   2.299  21.917  0.00  0.00    +0.000 NA
ATOM     11  C   UNL     1       3.498   2.530  20.913  0.00  0.00    +0.000 A 
ATOM     12  N   UNL     1       3.228   3.752  20.379  0.00  0.00    +0.000 N 
ENDBRANCH   1  12
BRANCH   4  13
ATOM     13  S   UNL     1       6.131   5.915  15.655  0.00  0.00    +0.000 S 
ATOM     14  O   UNL     1       5.197   6.957  15.288  0.00  0.00    +0.000 OA
ATOM     15  O   UNL     1       7.417   6.233  16.238  0.00  0.00    +0.000 OA
BRANCH  13  16
ATOM     16  C   UNL     1       6.398   4.928  14.204  0.00  0.00    +0.000 A 
ATOM     17  C   UNL     1       7.529   5.173  13.419  0.00  0.00    +0.000 A 
ATOM     18  C   UNL     1       7.788   4.356  12.316  0.00  0.00    +0.000 A 
ATOM     19  C   UNL     1       6.926   3.300  12.014  0.00  0.00    +0.000 A 
ATOM     20 CL   UNL     1       7.253   2.294  10.658  0.00  0.00    +0.000 Cl
ATOM     21  C   UNL     1       5.806   3.050  12.807  0.00  0.00    +0.000 A 
ATOM     22  C   UNL     1       5.537   3.866  13.909  0.00  0.00    +0.000 A 
ENDBRANCH  13  16
ENDBRANCH   4  13
TORSDOF 3
ENDMDL
MODEL 7
REMARK VINA RESULT:      -6.9      4.738      8.106
REMARK  Name = 
REMARK  4 active torsions:
REMARK  status: ('A' for Active; 'I' for Inactive)
REMARK    1  A    between atoms: C_1  and  C_2
REMARK    2  A    between atoms: N_6  and  C_7
REMARK    3  A    between atoms: N_10  and  S_11
REMARK    4  A    between atoms: S_11  and  C_14
REMARK                            x       y       z     vdW  Elec       q    Type
REMARK                         _______ _______ _______ _____ _____    ______ ____
ROOT
ATOM      1  C   UNL     1       2.304   8.003  19.241  0.00  0.00    +0.000 C 
ATOM      2  C   UNL     1       1.839   6.641  19.757  0.00  0.00    +0.000 C 
ATOM      3  C   UNL     1       3.032   5.693  19.853  0.00  0.00    +0.000 C 
ATOM      4  N   UNL     1       3.744   5.570  18.544  0.00  0.00    +0.000 NA
ATOM      5  C   UNL     1       4.082   6.887  17.909  0.00  0.00    +0.000 C 
ATOM      6  C   UNL     1       2.872   7.811  17.835  0.00  0.00    +0.000 C 
ENDROOT
BRANCH   1  12
ATOM      7  C   UNL     1       1.062   9.180  21.853  0.00  0.00    +0.000 C 
ATOM      8  C   UNL     1       0.689   9.527  20.463  0.00  0.00    +0.000 A 
ATOM      9  N   UNL     1      -0.251  10.382  20.109  0.00  0.00    +0.000 NA
ATOM     10  N   UNL     1      -0.276  10.449  18.738  0.00  0.00    +0.000 NA
ATOM     11  C   UNL     1       0.644   9.632  18.282  0.00  0.00    +0.000 A 
ATOM     12  N   UNL     1       1.267   9.017  19.324  0.00  0.00    +0.000 N 
ENDBRANCH   1  12
BRANCH   4  13
ATOM     13  S   UNL     1       5.175   4.581  18.641  0.00  0.00    +0.000 S 
ATOM     14  O   UNL     1       6.163   5.304  19.413  0.00  0.00    +0.000 OA
ATOM     15  O   UNL     1       4.740   3.258  19.034  0.00  0.00    +0.000 OA
BRANCH  13  16
ATOM     16  C   UNL     1       5.777   4.506  16.974  0.00  0.00    +0.000 A 
ATOM     17  C   UNL     1       4.917   4.067  15.963  0.00  0.00    +0.000 A 
ATOM     18  C   UNL     1       5.356   4.073  14.637  0.00  0.00    +0.000 A 
ATOM     19  C   UNL     1       6.642   4.524  14.332  0.00  0.00    +0.000 A 
ATOM     20 CL   UNL     1       7.176   4.534  12.697  0.00  0.00    +0.000 Cl
ATOM     21  C   UNL     1       7.494   4.974  15.341  0.00  0.00    +0.000 A 
ATOM     22  C   UNL     1       7.063   4.967  16.670  0.00  0.00    +0.000 A 
ENDBRANCH  13  16
ENDBRANCH   4  13
TORSDOF 3
ENDMDL
MODEL 8
REMARK VINA RESULT:      -6.8      5.998      8.316
REMARK  Name = 
REMARK  4 active torsions:
REMARK  status: ('A' for Active; 'I' for Inactive)
REMARK    1  A    between atoms: C_1  and  C_2
REMARK    2  A    between atoms: N_6  and  C_7
REMARK    3  A    between atoms: N_10  and  S_11
REMARK    4  A    between atoms: S_11  and  C_14
REMARK                            x       y       z     vdW  Elec       q    Type
REMARK                         _______ _______ _______ _____ _____    ______ ____
ROOT
ATOM      1  C   UNL     1       3.892   4.384  19.186  0.00  0.00    +0.000 C 
ATOM      2  C   UNL     1       5.385   4.598  19.441  0.00  0.00    +0.000 C 
ATOM      3  C   UNL     1       5.971   5.485  18.346  0.00  0.00    +0.000 C 
ATOM      4  N   UNL     1       5.723   4.916  16.985  0.00  0.00    +0.000 NA
ATOM      5  C   UNL     1       4.294   4.534  16.737  0.00  0.00    +0.000 C 
ATOM      6  C   UNL     1       3.737   3.655  17.851  0.00  0.00    +0.000 C 
ENDROOT
BRANCH   1  12
ATOM      7  C   UNL     1       1.497   5.514  20.840  0.00  0.00    +0.000 C 
ATOM      8  C   UNL     1       2.186   4.222  21.053  0.00  0.00    +0.000 A 
ATOM      9  N   UNL     1       1.905   3.347  21.999  0.00  0.00    +0.000 NA
ATOM     10  N   UNL     1       2.742   2.270  21.851  0.00  0.00    +0.000 NA
ATOM     11  C   UNL     1       3.521   2.509  20.822  0.00  0.00    +0.000 A 
ATOM     12  N   UNL     1       3.222   3.729  20.296  0.00  0.00    +0.000 N 
ENDBRANCH   1  12
BRANCH   4  13
ATOM     13  S   UNL     1       6.284   5.955  15.704  0.00  0.00    +0.000 S 
ATOM     14  O   UNL     1       5.200   6.847  15.349  0.00  0.00    +0.000 OA
ATOM     15  O   UNL     1       7.571   6.469  16.118  0.00  0.00    +0.000 OA
BRANCH  13  16
ATOM     16  C   UNL     1       6.528   4.867  14.324  0.00  0.00    +0.000 A 
ATOM     17  C   UNL     1       5.626   3.816  14.124  0.00  0.00    +0.000 A 
ATOM     18  C   UNL     1       5.766   2.998  13.000  0.00  0.00    +0.000 A 
ATOM     19  C   UNL     1       6.793   3.239  12.086  0.00  0.00    +0.000 A 
ATOM     20 CL   UNL     1       6.956   2.232  10.702  0.00  0.00    +0.000 Cl
ATOM     21  C   UNL     1       7.683   4.296  12.282  0.00  0.00    +0.000 A 
ATOM     22  C   UNL     1       7.553   5.117  13.405  0.00  0.00    +0.000 A 
ENDBRANCH  13  16
ENDBRANCH   4  13
TORSDOF 3
ENDMDL
MODEL 9
REMARK VINA RESULT:      -6.7      4.920      7.992
REMARK  Name = 
REMARK  4 active torsions:
REMARK  status: ('A' for Active; 'I' for Inactive)
REMARK    1  A    between atoms: C_1  and  C_2
REMARK    2  A    between atoms: N_6  and  C_7
REMARK    3  A    between atoms: N_10  and  S_11
REMARK    4  A    between atoms: S_11  and  C_14
REMARK                            x       y       z     vdW  Elec       q    Type
REMARK                         _______ _______ _______ _____ _____    ______ ____
ROOT
ATOM      1  C   UNL     1       2.334   7.180  19.715  0.00  0.00    +0.000 C 
ATOM      2  C   UNL     1       1.889   5.917  20.453  0.00  0.00    +0.000 C 
ATOM      3  C   UNL     1       2.910   4.805  20.230  0.00  0.00    +0.000 C 
ATOM      4  N   UNL     1       3.128   4.542  18.774  0.00  0.00    +0.000 NA
ATOM      5  C   UNL     1       3.410   5.775  17.969  0.00  0.00    +0.000 C 
ATOM      6  C   UNL     1       2.377   6.867  18.220  0.00  0.00    +0.000 C 
ENDROOT
BRANCH   1  12
ATOM      7  C   UNL     1       1.917   9.727  17.958  0.00  0.00    +0.000 C 
ATOM      8  C   UNL     1       1.353   9.481  19.304  0.00  0.00    +0.000 A 
ATOM      9  N   UNL     1       0.595  10.317  19.986  0.00  0.00    +0.000 NA
ATOM     10  N   UNL     1       0.255   9.719  21.173  0.00  0.00    +0.000 NA
ATOM     11  C   UNL     1       0.813   8.531  21.195  0.00  0.00    +0.000 A 
ATOM     12  N   UNL     1       1.527   8.340  20.052  0.00  0.00    +0.000 N 
ENDBRANCH   1  12
BRANCH   4  13
ATOM     13  S   UNL     1       4.367   3.352  18.479  0.00  0.00    +0.000 S 
ATOM     14  O   UNL     1       5.269   3.362  19.611  0.00  0.00    +0.000 OA
ATOM     15  O   UNL     1       3.691   2.140  18.071  0.00  0.00    +0.000 OA
BRANCH  13  16
ATOM     16  C   UNL     1       5.273   3.988  17.093  0.00  0.00    +0.000 A 
ATOM     17  C   UNL     1       6.527   4.566  17.312  0.00  0.00    +0.000 A 
ATOM     18  C   UNL     1       7.281   5.003  16.221  0.00  0.00    +0.000 A 
ATOM     19  C   UNL     1       6.783   4.854  14.925  0.00  0.00    +0.000 A 
ATOM     20 CL   UNL     1       7.717   5.389  13.584  0.00  0.00    +0.000 Cl
ATOM     21  C   UNL     1       5.536   4.265  14.708  0.00  0.00    +0.000 A 
ATOM     22  C   UNL     1       4.774   3.828  15.795  0.00  0.00    +0.000 A 
ENDBRANCH  13  16
ENDBRANCH   4  13
TORSDOF 3
ENDMDL
