MODEL 1
REMARK VINA RESULT:      -7.9      0.000      0.000
REMARK  Name = 
REMARK  13 active torsions:
REMARK  status: ('A' for Active; 'I' for Inactive)
REMARK    1  A    between atoms: C_1  and  O_2
REMARK    2  A    between atoms: O_2  and  C_3
REMARK    3  A    between atoms: C_8  and  C_9
REMARK    4  A    between atoms: C_9  and  N_10
REMARK    5  A    between atoms: N_10  and  C_11
REMARK    6  A    between atoms: C_14  and  O_15
REMARK    7  A    between atoms: O_15  and  C_16
REMARK    8  A    between atoms: C_17  and  O_18
REMARK    9  A    between atoms: O_18  and  C_19
REMARK   10  A    between atoms: N_23  and  C_24
REMARK   11  A    between atoms: C_24  and  C_25
REMARK   12  A    between atoms: N_27  and  C_28
REMARK   13  A    between atoms: C_31  and  C_32
REMARK                            x       y       z     vdW  Elec       q    Type
REMARK                         _______ _______ _______ _____ _____    ______ ____
ROOT
ATOM      1  C   UNL     1      -0.564  10.782  22.876  0.00  0.00    +0.000 A 
ATOM      2  C   UNL     1      -0.196   9.517  23.326  0.00  0.00    +0.000 A 
ATOM      3  C   UNL     1       0.526   8.665  22.494  0.00  0.00    +0.000 A 
ATOM      4  C   UNL     1       0.866   9.071  21.201  0.00  0.00    +0.000 A 
ATOM      5  C   UNL     1       1.657   8.181  20.362  0.00  0.00    +0.000 A 
ATOM      6  C   UNL     1       1.885   8.481  19.071  0.00  0.00    +0.000 A 
ATOM      7  C   UNL     1       1.301   9.723  18.483  0.00  0.00    +0.000 A 
ATOM      8  O   UNL     1       1.302   9.902  17.272  0.00  0.00    +0.000 OA
ATOM      9  N   UNL     1       0.822  10.682  19.371  0.00  0.00    +0.000 N 
ATOM     10  C   UNL     1       0.508  10.345  20.728  0.00  0.00    +0.000 A 
ATOM     11  C   UNL     1      -0.187  11.201  21.592  0.00  0.00    +0.000 A 
ENDROOT
BRANCH   1  13
ATOM     12  C   UNL     1      -2.528  12.113  23.000  0.00  0.00    +0.000 C 
ATOM     13  O   UNL     1      -1.303  11.688  23.588  0.00  0.00    +0.000 OA
ENDBRANCH   1  13
BRANCH   6  14
ATOM     14  C   UNL     1       2.816   7.687  18.212  0.00  0.00    +0.000 C 
BRANCH  14  15
ATOM     15  N   UNL     1       2.230   6.386  17.927  0.00  0.00    +0.000 N 
ATOM     16  H   UNL     1       1.239   6.334  18.144  0.00  0.00    +0.000 HD
BRANCH  15  17
ATOM     17  C   UNL     1       2.924   5.231  18.302  0.00  0.00    +0.000 A 
ATOM     18  C   UNL     1       2.297   4.050  18.708  0.00  0.00    +0.000 A 
ATOM     19  C   UNL     1       3.035   2.962  19.190  0.00  0.00    +0.000 A 
ATOM     20  C   UNL     1       4.422   3.048  19.320  0.00  0.00    +0.000 A 
ATOM     21  C   UNL     1       5.070   4.230  18.925  0.00  0.00    +0.000 A 
ATOM     22  C   UNL     1       4.319   5.300  18.419  0.00  0.00    +0.000 A 
BRANCH  20  23
ATOM     23  O   UNL     1       5.216   2.060  19.844  0.00  0.00    +0.000 OA
ATOM     24  C   UNL     1       4.789   1.452  21.054  0.00  0.00    +0.000 C 
ENDBRANCH  20  23
BRANCH  21  25
ATOM     25  O   UNL     1       6.440   4.257  19.035  0.00  0.00    +0.000 OA
ATOM     26  C   UNL     1       7.149   4.643  17.863  0.00  0.00    +0.000 C 
ENDBRANCH  21  25
ENDBRANCH  15  17
ENDBRANCH  14  15
ENDBRANCH   6  14
BRANCH   9  27
ATOM     27  C   UNL     1       0.594  12.023  18.836  0.00  0.00    +0.000 C 
BRANCH  27  28
ATOM     28  C   UNL     1      -0.869  12.375  18.595  0.00  0.00    +0.000 C 
ATOM     29  O   UNL     1      -1.253  13.539  18.713  0.00  0.00    +0.000 OA
ATOM     30  N   UNL     1      -1.689  11.294  18.300  0.00  0.00    +0.000 N 
ATOM     31  H   UNL     1      -1.380  10.397  18.670  0.00  0.00    +0.000 HD
BRANCH  30  32
ATOM     32  C   UNL     1      -3.075  11.511  18.149  0.00  0.00    +0.000 A 
ATOM     33  C   UNL     1      -3.699  11.311  16.913  0.00  0.00    +0.000 A 
ATOM     34  C   UNL     1      -5.015  11.723  16.714  0.00  0.00    +0.000 A 
ATOM     35  C   UNL     1      -5.715  12.355  17.746  0.00  0.00    +0.000 A 
ATOM     36  C   UNL     1      -7.070  12.945  17.494  0.00  0.00    +0.000 C 
ATOM     37  C   UNL     1      -5.110  12.476  19.005  0.00  0.00    +0.000 A 
ATOM     38  C   UNL     1      -3.801  12.028  19.218  0.00  0.00    +0.000 A 
ENDBRANCH  30  32
ENDBRANCH  27  28
ENDBRANCH   9  27
TORSDOF 9
ENDMDL
MODEL 2
REMARK VINA RESULT:      -7.8      4.037     10.208
REMARK  Name = 
REMARK  13 active torsions:
REMARK  status: ('A' for Active; 'I' for Inactive)
REMARK    1  A    between atoms: C_1  and  O_2
REMARK    2  A    between atoms: O_2  and  C_3
REMARK    3  A    between atoms: C_8  and  C_9
REMARK    4  A    between atoms: C_9  and  N_10
REMARK    5  A    between atoms: N_10  and  C_11
REMARK    6  A    between atoms: C_14  and  O_15
REMARK    7  A    between atoms: O_15  and  C_16
REMARK    8  A    between atoms: C_17  and  O_18
REMARK    9  A    between atoms: O_18  and  C_19
REMARK   10  A    between atoms: N_23  and  C_24
REMARK   11  A    between atoms: C_24  and  C_25
REMARK   12  A    between atoms: N_27  and  C_28
REMARK   13  A    between atoms: C_31  and  C_32
REMARK                            x       y       z     vdW  Elec       q    Type
REMARK                         _______ _______ _______ _____ _____    ______ ____
ROOT
ATOM      1  C   UNL     1       6.819   4.546  14.099  0.00  0.00    +0.000 A 
ATOM      2  C   UNL     1       5.539   4.073  13.819  0.00  0.00    +0.000 A 
ATOM      3  C   UNL     1       4.577   4.031  14.824  0.00  0.00    +0.000 A 
ATOM      4  C   UNL     1       4.898   4.447  16.119  0.00  0.00    +0.000 A 
ATOM      5  C   UNL     1       3.865   4.434  17.145  0.00  0.00    +0.000 A 
ATOM      6  C   UNL     1       4.172   4.697  18.428  0.00  0.00    +0.000 A 
ATOM      7  C   UNL     1       5.588   4.978  18.810  0.00  0.00    +0.000 A 
ATOM      8  O   UNL     1       5.927   4.994  19.986  0.00  0.00    +0.000 OA
ATOM      9  N   UNL     1       6.476   5.279  17.781  0.00  0.00    +0.000 N 
ATOM     10  C   UNL     1       6.182   4.931  16.423  0.00  0.00    +0.000 A 
ATOM     11  C   UNL     1       7.126   4.999  15.389  0.00  0.00    +0.000 A 
ENDROOT
BRANCH   1  13
ATOM     12  C   UNL     1       7.550   5.110  11.911  0.00  0.00    +0.000 C 
ATOM     13  O   UNL     1       7.853   4.599  13.204  0.00  0.00    +0.000 OA
ENDBRANCH   1  13
BRANCH   6  14
ATOM     14  C   UNL     1       3.131   4.851  19.490  0.00  0.00    +0.000 C 
BRANCH  14  15
ATOM     15  N   UNL     1       3.254   6.161  20.111  0.00  0.00    +0.000 N 
ATOM     16  H   UNL     1       3.279   6.125  21.125  0.00  0.00    +0.000 HD
BRANCH  15  17
ATOM     17  C   UNL     1       2.474   7.217  19.629  0.00  0.00    +0.000 A 
ATOM     18  C   UNL     1       2.552   7.702  18.321  0.00  0.00    +0.000 A 
ATOM     19  C   UNL     1       1.840   8.839  17.922  0.00  0.00    +0.000 A 
ATOM     20  C   UNL     1       1.063   9.548  18.840  0.00  0.00    +0.000 A 
ATOM     21  C   UNL     1       0.978   9.081  20.163  0.00  0.00    +0.000 A 
ATOM     22  C   UNL     1       1.677   7.926  20.539  0.00  0.00    +0.000 A 
BRANCH  20  23
ATOM     23  O   UNL     1       0.386  10.706  18.556  0.00  0.00    +0.000 OA
ATOM     24  C   UNL     1       1.071  11.932  18.772  0.00  0.00    +0.000 C 
ENDBRANCH  20  23
BRANCH  21  25
ATOM     25  O   UNL     1       0.172   9.788  21.023  0.00  0.00    +0.000 OA
ATOM     26  C   UNL     1      -0.270   9.084  22.179  0.00  0.00    +0.000 C 
ENDBRANCH  21  25
ENDBRANCH  15  17
ENDBRANCH  14  15
ENDBRANCH   6  14
BRANCH   9  27
ATOM     27  C   UNL     1       7.742   5.901  18.162  0.00  0.00    +0.000 C 
BRANCH  27  28
ATOM     28  C   UNL     1       7.782   7.418  18.008  0.00  0.00    +0.000 C 
ATOM     29  O   UNL     1       7.087   7.972  17.156  0.00  0.00    +0.000 OA
ATOM     30  N   UNL     1       8.678   8.066  18.847  0.00  0.00    +0.000 N 
ATOM     31  H   UNL     1       9.477   7.510  19.147  0.00  0.00    +0.000 HD
BRANCH  30  32
ATOM     32  C   UNL     1       8.849   9.460  18.714  0.00  0.00    +0.000 A 
ATOM     33  C   UNL     1       9.517  10.195  19.698  0.00  0.00    +0.000 A 
ATOM     34  C   UNL     1       9.503  11.588  19.669  0.00  0.00    +0.000 A 
ATOM     35  C   UNL     1       8.804  12.260  18.662  0.00  0.00    +0.000 A 
ATOM     36  C   UNL     1       8.647  13.750  18.711  0.00  0.00    +0.000 C 
ATOM     37  C   UNL     1       8.208  11.517  17.633  0.00  0.00    +0.000 A 
ATOM     38  C   UNL     1       8.254  10.117  17.641  0.00  0.00    +0.000 A 
ENDBRANCH  30  32
ENDBRANCH  27  28
ENDBRANCH   9  27
TORSDOF 9
ENDMDL
MODEL 3
REMARK VINA RESULT:      -7.8      2.968      4.647
REMARK  Name = 
REMARK  13 active torsions:
REMARK  status: ('A' for Active; 'I' for Inactive)
REMARK    1  A    between atoms: C_1  and  O_2
REMARK    2  A    between atoms: O_2  and  C_3
REMARK    3  A    between atoms: C_8  and  C_9
REMARK    4  A    between atoms: C_9  and  N_10
REMARK    5  A    between atoms: N_10  and  C_11
REMARK    6  A    between atoms: C_14  and  O_15
REMARK    7  A    between atoms: O_15  and  C_16
REMARK    8  A    between atoms: C_17  and  O_18
REMARK    9  A    between atoms: O_18  and  C_19
REMARK   10  A    between atoms: N_23  and  C_24
REMARK   11  A    between atoms: C_24  and  C_25
REMARK   12  A    between atoms: N_27  and  C_28
REMARK   13  A    between atoms: C_31  and  C_32
REMARK                            x       y       z     vdW  Elec       q    Type
REMARK                         _______ _______ _______ _____ _____    ______ ____
ROOT
ATOM      1  C   UNL     1      -1.423  11.541  22.394  0.00  0.00    +0.000 A 
ATOM      2  C   UNL     1      -1.175  10.502  23.288  0.00  0.00    +0.000 A 
ATOM      3  C   UNL     1      -0.324   9.461  22.926  0.00  0.00    +0.000 A 
ATOM      4  C   UNL     1       0.268   9.448  21.660  0.00  0.00    +0.000 A 
ATOM      5  C   UNL     1       1.188   8.372  21.318  0.00  0.00    +0.000 A 
ATOM      6  C   UNL     1       1.667   8.254  20.067  0.00  0.00    +0.000 A 
ATOM      7  C   UNL     1       1.234   9.218  19.011  0.00  0.00    +0.000 A 
ATOM      8  O   UNL     1       1.472   9.001  17.831  0.00  0.00    +0.000 OA
ATOM      9  N   UNL     1       0.612  10.389  19.437  0.00  0.00    +0.000 N 
ATOM     10  C   UNL     1       0.034  10.488  20.744  0.00  0.00    +0.000 A 
ATOM     11  C   UNL     1      -0.797  11.545  21.140  0.00  0.00    +0.000 A 
ENDROOT
BRANCH   1  13
ATOM     12  C   UNL     1      -1.815  13.876  22.201  0.00  0.00    +0.000 C 
ATOM     13  O   UNL     1      -2.267  12.594  22.624  0.00  0.00    +0.000 OA
ENDBRANCH   1  13
BRANCH   6  14
ATOM     14  C   UNL     1       2.730   7.268  19.701  0.00  0.00    +0.000 C 
BRANCH  14  15
ATOM     15  N   UNL     1       2.253   6.409  18.628  0.00  0.00    +0.000 N 
ATOM     16  H   UNL     1       1.497   5.793  18.911  0.00  0.00    +0.000 HD
BRANCH  15  17
ATOM     17  C   UNL     1       3.185   5.772  17.803  0.00  0.00    +0.000 A 
ATOM     18  C   UNL     1       3.127   4.415  17.473  0.00  0.00    +0.000 A 
ATOM     19  C   UNL     1       4.150   3.798  16.744  0.00  0.00    +0.000 A 
ATOM     20  C   UNL     1       5.283   4.518  16.363  0.00  0.00    +0.000 A 
ATOM     21  C   UNL     1       5.365   5.882  16.692  0.00  0.00    +0.000 A 
ATOM     22  C   UNL     1       4.319   6.490  17.400  0.00  0.00    +0.000 A 
BRANCH  20  23
ATOM     23  O   UNL     1       6.361   3.981  15.708  0.00  0.00    +0.000 OA
ATOM     24  C   UNL     1       6.270   3.854  14.295  0.00  0.00    +0.000 C 
ENDBRANCH  20  23
BRANCH  21  25
ATOM     25  O   UNL     1       6.481   6.560  16.265  0.00  0.00    +0.000 OA
ATOM     26  C   UNL     1       7.321   7.081  17.289  0.00  0.00    +0.000 C 
ENDBRANCH  21  25
ENDBRANCH  15  17
ENDBRANCH  14  15
ENDBRANCH   6  14
BRANCH   9  27
ATOM     27  C   UNL     1       0.519  11.478  18.467  0.00  0.00    +0.000 C 
BRANCH  27  28
ATOM     28  C   UNL     1       1.448  12.656  18.737  0.00  0.00    +0.000 C 
ATOM     29  O   UNL     1       2.669  12.511  18.668  0.00  0.00    +0.000 OA
ATOM     30  N   UNL     1       0.807  13.832  19.105  0.00  0.00    +0.000 N 
ATOM     31  H   UNL     1      -0.098  13.714  19.556  0.00  0.00    +0.000 HD
BRANCH  30  32
ATOM     32  C   UNL     1       1.589  14.951  19.460  0.00  0.00    +0.000 A 
ATOM     33  C   UNL     1       2.134  15.784  18.478  0.00  0.00    +0.000 A 
ATOM     34  C   UNL     1       3.070  16.758  18.820  0.00  0.00    +0.000 A 
ATOM     35  C   UNL     1       3.483  16.896  20.148  0.00  0.00    +0.000 A 
ATOM     36  C   UNL     1       4.603  17.828  20.502  0.00  0.00    +0.000 C 
ATOM     37  C   UNL     1       2.870  16.115  21.138  0.00  0.00    +0.000 A 
ATOM     38  C   UNL     1       1.901  15.161  20.801  0.00  0.00    +0.000 A 
ENDBRANCH  30  32
ENDBRANCH  27  28
ENDBRANCH   9  27
TORSDOF 9
ENDMDL
MODEL 4
REMARK VINA RESULT:      -7.7      2.919      5.207
REMARK  Name = 
REMARK  13 active torsions:
REMARK  status: ('A' for Active; 'I' for Inactive)
REMARK    1  A    between atoms: C_1  and  O_2
REMARK    2  A    between atoms: O_2  and  C_3
REMARK    3  A    between atoms: C_8  and  C_9
REMARK    4  A    between atoms: C_9  and  N_10
REMARK    5  A    between atoms: N_10  and  C_11
REMARK    6  A    between atoms: C_14  and  O_15
REMARK    7  A    between atoms: O_15  and  C_16
REMARK    8  A    between atoms: C_17  and  O_18
REMARK    9  A    between atoms: O_18  and  C_19
REMARK   10  A    between atoms: N_23  and  C_24
REMARK   11  A    between atoms: C_24  and  C_25
REMARK   12  A    between atoms: N_27  and  C_28
REMARK   13  A    between atoms: C_31  and  C_32
REMARK                            x       y       z     vdW  Elec       q    Type
REMARK                         _______ _______ _______ _____ _____    ______ ____
ROOT
ATOM      1  C   UNL     1      -1.494  12.130  22.394  0.00  0.00    +0.000 A 
ATOM      2  C   UNL     1      -1.366  11.072  23.291  0.00  0.00    +0.000 A 
ATOM      3  C   UNL     1      -0.633   9.944  22.937  0.00  0.00    +0.000 A 
ATOM      4  C   UNL     1      -0.040   9.861  21.674  0.00  0.00    +0.000 A 
ATOM      5  C   UNL     1       0.757   8.689  21.338  0.00  0.00    +0.000 A 
ATOM      6  C   UNL     1       1.226   8.515  20.090  0.00  0.00    +0.000 A 
ATOM      7  C   UNL     1       0.906   9.517  19.030  0.00  0.00    +0.000 A 
ATOM      8  O   UNL     1       1.124   9.272  17.851  0.00  0.00    +0.000 OA
ATOM      9  N   UNL     1       0.414  10.751  19.449  0.00  0.00    +0.000 N 
ATOM     10  C   UNL     1      -0.154  10.918  20.754  0.00  0.00    +0.000 A 
ATOM     11  C   UNL     1      -0.866  12.060  21.142  0.00  0.00    +0.000 A 
ENDROOT
BRANCH   1  13
ATOM     12  C   UNL     1      -3.129  13.241  23.710  0.00  0.00    +0.000 C 
ATOM     13  O   UNL     1      -2.219  13.270  22.617  0.00  0.00    +0.000 OA
ENDBRANCH   1  13
BRANCH   6  14
ATOM     14  C   UNL     1       2.176   7.417  19.732  0.00  0.00    +0.000 C 
BRANCH  14  15
ATOM     15  N   UNL     1       2.838   7.732  18.475  0.00  0.00    +0.000 N 
ATOM     16  H   UNL     1       2.241   8.226  17.819  0.00  0.00    +0.000 HD
BRANCH  15  17
ATOM     17  C   UNL     1       3.623   6.753  17.857  0.00  0.00    +0.000 A 
ATOM     18  C   UNL     1       4.542   7.027  16.841  0.00  0.00    +0.000 A 
ATOM     19  C   UNL     1       5.214   5.999  16.171  0.00  0.00    +0.000 A 
ATOM     20  C   UNL     1       4.948   4.663  16.473  0.00  0.00    +0.000 A 
ATOM     21  C   UNL     1       4.021   4.366  17.486  0.00  0.00    +0.000 A 
ATOM     22  C   UNL     1       3.376   5.408  18.166  0.00  0.00    +0.000 A 
BRANCH  20  23
ATOM     23  O   UNL     1       5.508   3.592  15.824  0.00  0.00    +0.000 OA
ATOM     24  C   UNL     1       6.330   3.868  14.698  0.00  0.00    +0.000 C 
ENDBRANCH  20  23
BRANCH  21  25
ATOM     25  O   UNL     1       3.817   3.038  17.776  0.00  0.00    +0.000 OA
ATOM     26  C   UNL     1       2.484   2.564  17.614  0.00  0.00    +0.000 C 
ENDBRANCH  21  25
ENDBRANCH  15  17
ENDBRANCH  14  15
ENDBRANCH   6  14
BRANCH   9  27
ATOM     27  C   UNL     1       0.446  11.840  18.476  0.00  0.00    +0.000 C 
BRANCH  27  28
ATOM     28  C   UNL     1       1.747  12.634  18.446  0.00  0.00    +0.000 C 
ATOM     29  O   UNL     1       2.767  12.135  17.970  0.00  0.00    +0.000 OA
ATOM     30  N   UNL     1       1.677  13.891  19.033  0.00  0.00    +0.000 N 
ATOM     31  H   UNL     1       0.970  13.996  19.758  0.00  0.00    +0.000 HD
BRANCH  30  32
ATOM     32  C   UNL     1       2.853  14.663  19.132  0.00  0.00    +0.000 A 
ATOM     33  C   UNL     1       3.679  14.566  20.257  0.00  0.00    +0.000 A 
ATOM     34  C   UNL     1       4.720  15.473  20.447  0.00  0.00    +0.000 A 
ATOM     35  C   UNL     1       4.933  16.498  19.521  0.00  0.00    +0.000 A 
ATOM     36  C   UNL     1       5.943  17.571  19.796  0.00  0.00    +0.000 C 
ATOM     37  C   UNL     1       4.155  16.537  18.356  0.00  0.00    +0.000 A 
ATOM     38  C   UNL     1       3.133  15.603  18.144  0.00  0.00    +0.000 A 
ENDBRANCH  30  32
ENDBRANCH  27  28
ENDBRANCH   9  27
TORSDOF 9
ENDMDL
MODEL 5
REMARK VINA RESULT:      -7.5      2.798      4.931
REMARK  Name = 
REMARK  13 active torsions:
REMARK  status: ('A' for Active; 'I' for Inactive)
REMARK    1  A    between atoms: C_1  and  O_2
REMARK    2  A    between atoms: O_2  and  C_3
REMARK    3  A    between atoms: C_8  and  C_9
REMARK    4  A    between atoms: C_9  and  N_10
REMARK    5  A    between atoms: N_10  and  C_11
REMARK    6  A    between atoms: C_14  and  O_15
REMARK    7  A    between atoms: O_15  and  C_16
REMARK    8  A    between atoms: C_17  and  O_18
REMARK    9  A    between atoms: O_18  and  C_19
REMARK   10  A    between atoms: N_23  and  C_24
REMARK   11  A    between atoms: C_24  and  C_25
REMARK   12  A    between atoms: N_27  and  C_28
REMARK   13  A    between atoms: C_31  and  C_32
REMARK                            x       y       z     vdW  Elec       q    Type
REMARK                         _______ _______ _______ _____ _____    ______ ____
ROOT
ATOM      1  C   UNL     1      -2.236  12.468  22.565  0.00  0.00    +0.000 A 
ATOM      2  C   UNL     1      -1.819  11.459  23.430  0.00  0.00    +0.000 A 
ATOM      3  C   UNL     1      -0.929  10.485  22.986  0.00  0.00    +0.000 A 
ATOM      4  C   UNL     1      -0.467  10.508  21.667  0.00  0.00    +0.000 A 
ATOM      5  C   UNL     1       0.496   9.504  21.235  0.00  0.00    +0.000 A 
ATOM      6  C   UNL     1       0.856   9.413  19.942  0.00  0.00    +0.000 A 
ATOM      7  C   UNL     1       0.245  10.331  18.935  0.00  0.00    +0.000 A 
ATOM      8  O   UNL     1       0.381  10.123  17.737  0.00  0.00    +0.000 OA
ATOM      9  N   UNL     1      -0.422  11.453  19.420  0.00  0.00    +0.000 N 
ATOM     10  C   UNL     1      -0.872  11.518  20.779  0.00  0.00    +0.000 A 
ATOM     11  C   UNL     1      -1.740  12.510  21.254  0.00  0.00    +0.000 A 
ENDROOT
BRANCH   1  13
ATOM     12  C   UNL     1      -2.762  14.343  23.925  0.00  0.00    +0.000 C 
ATOM     13  O   UNL     1      -3.133  13.454  22.878  0.00  0.00    +0.000 OA
ENDBRANCH   1  13
BRANCH   6  14
ATOM     14  C   UNL     1       1.951   8.510  19.473  0.00  0.00    +0.000 C 
BRANCH  14  15
ATOM     15  N   UNL     1       2.014   7.332  20.325  0.00  0.00    +0.000 N 
ATOM     16  H   UNL     1       2.577   7.467  21.158  0.00  0.00    +0.000 HD
BRANCH  15  17
ATOM     17  C   UNL     1       2.215   6.079  19.737  0.00  0.00    +0.000 A 
ATOM     18  C   UNL     1       2.180   5.857  18.358  0.00  0.00    +0.000 A 
ATOM     19  C   UNL     1       2.266   4.565  17.826  0.00  0.00    +0.000 A 
ATOM     20  C   UNL     1       2.346   3.455  18.668  0.00  0.00    +0.000 A 
ATOM     21  C   UNL     1       2.375   3.656  20.059  0.00  0.00    +0.000 A 
ATOM     22  C   UNL     1       2.314   4.959  20.574  0.00  0.00    +0.000 A 
BRANCH  20  23
ATOM     23  O   UNL     1       2.366   2.153  18.239  0.00  0.00    +0.000 OA
ATOM     24  C   UNL     1       3.628   1.500  18.191  0.00  0.00    +0.000 C 
ENDBRANCH  20  23
BRANCH  21  25
ATOM     25  O   UNL     1       2.491   2.538  20.849  0.00  0.00    +0.000 OA
ATOM     26  C   UNL     1       1.549   2.426  21.910  0.00  0.00    +0.000 C 
ENDBRANCH  21  25
ENDBRANCH  15  17
ENDBRANCH  14  15
ENDBRANCH   6  14
BRANCH   9  27
ATOM     27  C   UNL     1      -0.696  12.523  18.464  0.00  0.00    +0.000 C 
BRANCH  27  28
ATOM     28  C   UNL     1       0.174  13.765  18.626  0.00  0.00    +0.000 C 
ATOM     29  O   UNL     1      -0.309  14.885  18.457  0.00  0.00    +0.000 OA
ATOM     30  N   UNL     1       1.508  13.510  18.914  0.00  0.00    +0.000 N 
ATOM     31  H   UNL     1       1.863  12.614  18.585  0.00  0.00    +0.000 HD
BRANCH  30  32
ATOM     32  C   UNL     1       2.407  14.594  18.994  0.00  0.00    +0.000 A 
ATOM     33  C   UNL     1       3.155  14.985  17.880  0.00  0.00    +0.000 A 
ATOM     34  C   UNL     1       4.187  15.912  18.013  0.00  0.00    +0.000 A 
ATOM     35  C   UNL     1       4.491  16.445  19.270  0.00  0.00    +0.000 A 
ATOM     36  C   UNL     1       5.696  17.317  19.453  0.00  0.00    +0.000 C 
ATOM     37  C   UNL     1       3.683  16.111  20.366  0.00  0.00    +0.000 A 
ATOM     38  C   UNL     1       2.621  15.208  20.225  0.00  0.00    +0.000 A 
ENDBRANCH  30  32
ENDBRANCH  27  28
ENDBRANCH   9  27
TORSDOF 9
ENDMDL
MODEL 6
REMARK VINA RESULT:      -7.4      3.082      5.490
REMARK  Name = 
REMARK  13 active torsions:
REMARK  status: ('A' for Active; 'I' for Inactive)
REMARK    1  A    between atoms: C_1  and  O_2
REMARK    2  A    between atoms: O_2  and  C_3
REMARK    3  A    between atoms: C_8  and  C_9
REMARK    4  A    between atoms: C_9  and  N_10
REMARK    5  A    between atoms: N_10  and  C_11
REMARK    6  A    between atoms: C_14  and  O_15
REMARK    7  A    between atoms: O_15  and  C_16
REMARK    8  A    between atoms: C_17  and  O_18
REMARK    9  A    between atoms: O_18  and  C_19
REMARK   10  A    between atoms: N_23  and  C_24
REMARK   11  A    between atoms: C_24  and  C_25
REMARK   12  A    between atoms: N_27  and  C_28
REMARK   13  A    between atoms: C_31  and  C_32
REMARK                            x       y       z     vdW  Elec       q    Type
REMARK                         _______ _______ _______ _____ _____    ______ ____
ROOT
ATOM      1  C   UNL     1      -2.136  14.068  22.124  0.00  0.00    +0.000 A 
ATOM      2  C   UNL     1      -2.273  13.341  23.304  0.00  0.00    +0.000 A 
ATOM      3  C   UNL     1      -1.785  12.040  23.382  0.00  0.00    +0.000 A 
ATOM      4  C   UNL     1      -1.173  11.454  22.270  0.00  0.00    +0.000 A 
ATOM      5  C   UNL     1      -0.632  10.107  22.385  0.00  0.00    +0.000 A 
ATOM      6  C   UNL     1      -0.162   9.463  21.302  0.00  0.00    +0.000 A 
ATOM      7  C   UNL     1      -0.217  10.124  19.964  0.00  0.00    +0.000 A 
ATOM      8  O   UNL     1      -0.009   9.484  18.941  0.00  0.00    +0.000 OA
ATOM      9  N   UNL     1      -0.450  11.497  19.942  0.00  0.00    +0.000 N 
ATOM     10  C   UNL     1      -1.021  12.170  21.070  0.00  0.00    +0.000 A 
ATOM     11  C   UNL     1      -1.487  13.490  21.023  0.00  0.00    +0.000 A 
ENDROOT
BRANCH   1  13
ATOM     12  C   UNL     1      -1.636  16.340  21.650  0.00  0.00    +0.000 C 
ATOM     13  O   UNL     1      -2.608  15.336  21.919  0.00  0.00    +0.000 OA
ENDBRANCH   1  13
BRANCH   6  14
ATOM     14  C   UNL     1       0.545   8.149  21.390  0.00  0.00    +0.000 C 
BRANCH  14  15
ATOM     15  N   UNL     1       1.803   8.219  20.662  0.00  0.00    +0.000 N 
ATOM     16  H   UNL     1       1.932   9.094  20.164  0.00  0.00    +0.000 HD
BRANCH  15  17
ATOM     17  C   UNL     1       2.219   7.110  19.917  0.00  0.00    +0.000 A 
ATOM     18  C   UNL     1       2.743   7.200  18.625  0.00  0.00    +0.000 A 
ATOM     19  C   UNL     1       3.032   6.053  17.875  0.00  0.00    +0.000 A 
ATOM     20  C   UNL     1       2.760   4.784  18.387  0.00  0.00    +0.000 A 
ATOM     21  C   UNL     1       2.225   4.673  19.682  0.00  0.00    +0.000 A 
ATOM     22  C   UNL     1       1.967   5.830  20.429  0.00  0.00    +0.000 A 
BRANCH  20  23
ATOM     23  O   UNL     1       2.947   3.612  17.700  0.00  0.00    +0.000 OA
ATOM     24  C   UNL     1       4.260   3.328  17.238  0.00  0.00    +0.000 C 
ENDBRANCH  20  23
BRANCH  21  25
ATOM     25  O   UNL     1       2.008   3.403  20.160  0.00  0.00    +0.000 OA
ATOM     26  C   UNL     1       1.979   3.270  21.577  0.00  0.00    +0.000 C 
ENDBRANCH  21  25
ENDBRANCH  15  17
ENDBRANCH  14  15
ENDBRANCH   6  14
BRANCH   9  27
ATOM     27  C   UNL     1      -0.146  12.198  18.697  0.00  0.00    +0.000 C 
BRANCH  27  28
ATOM     28  C   UNL     1       1.262  12.777  18.615  0.00  0.00    +0.000 C 
ATOM     29  O   UNL     1       2.207  12.061  18.283  0.00  0.00    +0.000 OA
ATOM     30  N   UNL     1       1.367  14.111  18.988  0.00  0.00    +0.000 N 
ATOM     31  H   UNL     1       0.662  14.437  19.646  0.00  0.00    +0.000 HD
BRANCH  30  32
ATOM     32  C   UNL     1       2.645  14.707  19.029  0.00  0.00    +0.000 A 
ATOM     33  C   UNL     1       3.419  14.660  20.193  0.00  0.00    +0.000 A 
ATOM     34  C   UNL     1       4.580  15.422  20.299  0.00  0.00    +0.000 A 
ATOM     35  C   UNL     1       4.970  16.254  19.245  0.00  0.00    +0.000 A 
ATOM     36  C   UNL     1       6.124  17.196  19.409  0.00  0.00    +0.000 C 
ATOM     37  C   UNL     1       4.235  16.231  18.051  0.00  0.00    +0.000 A 
ATOM     38  C   UNL     1       3.089  15.437  17.930  0.00  0.00    +0.000 A 
ENDBRANCH  30  32
ENDBRANCH  27  28
ENDBRANCH   9  27
TORSDOF 9
ENDMDL
MODEL 7
REMARK VINA RESULT:      -7.4      2.366      4.277
REMARK  Name = 
REMARK  13 active torsions:
REMARK  status: ('A' for Active; 'I' for Inactive)
REMARK    1  A    between atoms: C_1  and  O_2
REMARK    2  A    between atoms: O_2  and  C_3
REMARK    3  A    between atoms: C_8  and  C_9
REMARK    4  A    between atoms: C_9  and  N_10
REMARK    5  A    between atoms: N_10  and  C_11
REMARK    6  A    between atoms: C_14  and  O_15
REMARK    7  A    between atoms: O_15  and  C_16
REMARK    8  A    between atoms: C_17  and  O_18
REMARK    9  A    between atoms: O_18  and  C_19
REMARK   10  A    between atoms: N_23  and  C_24
REMARK   11  A    between atoms: C_24  and  C_25
REMARK   12  A    between atoms: N_27  and  C_28
REMARK   13  A    between atoms: C_31  and  C_32
REMARK                            x       y       z     vdW  Elec       q    Type
REMARK                         _______ _______ _______ _____ _____    ______ ____
ROOT
ATOM      1  C   UNL     1      -3.971  11.378  16.816  0.00  0.00    +0.000 A 
ATOM      2  C   UNL     1      -3.655  10.145  16.251  0.00  0.00    +0.000 A 
ATOM      3  C   UNL     1      -2.461   9.511  16.584  0.00  0.00    +0.000 A 
ATOM      4  C   UNL     1      -1.570  10.120  17.472  0.00  0.00    +0.000 A 
ATOM      5  C   UNL     1      -0.346   9.421  17.839  0.00  0.00    +0.000 A 
ATOM      6  C   UNL     1       0.595  10.033  18.580  0.00  0.00    +0.000 A 
ATOM      7  C   UNL     1       0.398  11.450  19.009  0.00  0.00    +0.000 A 
ATOM      8  O   UNL     1       1.324  12.094  19.482  0.00  0.00    +0.000 OA
ATOM      9  N   UNL     1      -0.889  11.971  18.904  0.00  0.00    +0.000 N 
ATOM     10  C   UNL     1      -1.869  11.362  18.056  0.00  0.00    +0.000 A 
ATOM     11  C   UNL     1      -3.092  11.967  17.735  0.00  0.00    +0.000 A 
ENDROOT
BRANCH   1  13
ATOM     12  C   UNL     1      -6.069  12.198  17.569  0.00  0.00    +0.000 C 
ATOM     13  O   UNL     1      -5.094  12.109  16.536  0.00  0.00    +0.000 OA
ENDBRANCH   1  13
BRANCH   6  14
ATOM     14  C   UNL     1       1.792   9.314  19.115  0.00  0.00    +0.000 C 
BRANCH  14  15
ATOM     15  N   UNL     1       2.369   8.479  18.072  0.00  0.00    +0.000 N 
ATOM     16  H   UNL     1       1.843   8.498  17.204  0.00  0.00    +0.000 HD
BRANCH  15  17
ATOM     17  C   UNL     1       2.817   7.195  18.400  0.00  0.00    +0.000 A 
ATOM     18  C   UNL     1       2.461   6.529  19.576  0.00  0.00    +0.000 A 
ATOM     19  C   UNL     1       3.033   5.297  19.916  0.00  0.00    +0.000 A 
ATOM     20  C   UNL     1       4.012   4.721  19.106  0.00  0.00    +0.000 A 
ATOM     21  C   UNL     1       4.390   5.380  17.923  0.00  0.00    +0.000 A 
ATOM     22  C   UNL     1       3.788   6.600  17.584  0.00  0.00    +0.000 A 
BRANCH  20  23
ATOM     23  O   UNL     1       4.672   3.555  19.394  0.00  0.00    +0.000 OA
ATOM     24  C   UNL     1       3.936   2.344  19.287  0.00  0.00    +0.000 C 
ENDBRANCH  20  23
BRANCH  21  25
ATOM     25  O   UNL     1       5.330   4.759  17.137  0.00  0.00    +0.000 OA
ATOM     26  C   UNL     1       5.835   5.527  16.050  0.00  0.00    +0.000 C 
ENDBRANCH  21  25
ENDBRANCH  15  17
ENDBRANCH  14  15
ENDBRANCH   6  14
BRANCH   9  27
ATOM     27  C   UNL     1      -1.165  13.200  19.645  0.00  0.00    +0.000 C 
BRANCH  27  28
ATOM     28  C   UNL     1      -2.296  13.094  20.662  0.00  0.00    +0.000 C 
ATOM     29  O   UNL     1      -2.307  12.177  21.483  0.00  0.00    +0.000 OA
ATOM     30  N   UNL     1      -3.288  14.057  20.534  0.00  0.00    +0.000 N 
ATOM     31  H   UNL     1      -3.407  14.440  19.598  0.00  0.00    +0.000 HD
BRANCH  30  32
ATOM     32  C   UNL     1      -4.420  13.985  21.373  0.00  0.00    +0.000 A 
ATOM     33  C   UNL     1      -4.476  14.720  22.562  0.00  0.00    +0.000 A 
ATOM     34  C   UNL     1      -5.493  14.490  23.486  0.00  0.00    +0.000 A 
ATOM     35  C   UNL     1      -6.456  13.508  23.236  0.00  0.00    +0.000 A 
ATOM     36  C   UNL     1      -7.457  13.142  24.290  0.00  0.00    +0.000 C 
ATOM     37  C   UNL     1      -6.441  12.835  22.006  0.00  0.00    +0.000 A 
ATOM     38  C   UNL     1      -5.441  13.093  21.060  0.00  0.00    +0.000 A 
ENDBRANCH  30  32
ENDBRANCH  27  28
ENDBRANCH   9  27
TORSDOF 9
ENDMDL
MODEL 8
REMARK VINA RESULT:      -7.4      3.062      5.282
REMARK  Name = 
REMARK  13 active torsions:
REMARK  status: ('A' for Active; 'I' for Inactive)
REMARK    1  A    between atoms: C_1  and  O_2
REMARK    2  A    between atoms: O_2  and  C_3
REMARK    3  A    between atoms: C_8  and  C_9
REMARK    4  A    between atoms: C_9  and  N_10
REMARK    5  A    between atoms: N_10  and  C_11
REMARK    6  A    between atoms: C_14  and  O_15
REMARK    7  A    between atoms: O_15  and  C_16
REMARK    8  A    between atoms: C_17  and  O_18
REMARK    9  A    between atoms: O_18  and  C_19
REMARK   10  A    between atoms: N_23  and  C_24
REMARK   11  A    between atoms: C_24  and  C_25
REMARK   12  A    between atoms: N_27  and  C_28
REMARK   13  A    between atoms: C_31  and  C_32
REMARK                            x       y       z     vdW  Elec       q    Type
REMARK                         _______ _______ _______ _____ _____    ______ ____
ROOT
ATOM      1  C   UNL     1      -0.980  10.968  22.761  0.00  0.00    +0.000 A 
ATOM      2  C   UNL     1      -0.759   9.626  23.064  0.00  0.00    +0.000 A 
ATOM      3  C   UNL     1       0.015   8.839  22.217  0.00  0.00    +0.000 A 
ATOM      4  C   UNL     1       0.557   9.388  21.051  0.00  0.00    +0.000 A 
ATOM      5  C   UNL     1       1.398   8.558  20.200  0.00  0.00    +0.000 A 
ATOM      6  C   UNL     1       1.821   9.010  19.006  0.00  0.00    +0.000 A 
ATOM      7  C   UNL     1       1.406  10.366  18.536  0.00  0.00    +0.000 A 
ATOM      8  O   UNL     1       1.586  10.707  17.375  0.00  0.00    +0.000 OA
ATOM      9  N   UNL     1       0.870  11.231  19.486  0.00  0.00    +0.000 N 
ATOM     10  C   UNL     1       0.350  10.740  20.727  0.00  0.00    +0.000 A 
ATOM     11  C   UNL     1      -0.403  11.525  21.611  0.00  0.00    +0.000 A 
ENDROOT
BRANCH   1  13
ATOM     12  C   UNL     1      -2.915  12.340  22.860  0.00  0.00    +0.000 C 
ATOM     13  O   UNL     1      -1.751  11.826  23.497  0.00  0.00    +0.000 OA
ENDBRANCH   1  13
BRANCH   6  14
ATOM     14  C   UNL     1       2.810   8.266  18.167  0.00  0.00    +0.000 C 
BRANCH  14  15
ATOM     15  N   UNL     1       2.252   6.979  17.779  0.00  0.00    +0.000 N 
ATOM     16  H   UNL     1       1.237   6.960  17.793  0.00  0.00    +0.000 HD
BRANCH  15  17
ATOM     17  C   UNL     1       2.819   5.809  18.294  0.00  0.00    +0.000 A 
ATOM     18  C   UNL     1       4.112   5.744  18.821  0.00  0.00    +0.000 A 
ATOM     19  C   UNL     1       4.678   4.525  19.212  0.00  0.00    +0.000 A 
ATOM     20  C   UNL     1       3.977   3.330  19.042  0.00  0.00    +0.000 A 
ATOM     21  C   UNL     1       2.679   3.374  18.506  0.00  0.00    +0.000 A 
ATOM     22  C   UNL     1       2.117   4.606  18.145  0.00  0.00    +0.000 A 
BRANCH  20  23
ATOM     23  O   UNL     1       4.477   2.087  19.333  0.00  0.00    +0.000 OA
ATOM     24  C   UNL     1       4.624   1.747  20.705  0.00  0.00    +0.000 C 
ENDBRANCH  20  23
BRANCH  21  25
ATOM     25  O   UNL     1       2.011   2.178  18.391  0.00  0.00    +0.000 OA
ATOM     26  C   UNL     1       0.672   2.167  18.873  0.00  0.00    +0.000 C 
ENDBRANCH  21  25
ENDBRANCH  15  17
ENDBRANCH  14  15
ENDBRANCH   6  14
BRANCH   9  27
ATOM     27  C   UNL     1       0.805  12.646  19.128  0.00  0.00    +0.000 C 
BRANCH  27  28
ATOM     28  C   UNL     1       2.112  13.411  19.301  0.00  0.00    +0.000 C 
ATOM     29  O   UNL     1       2.732  13.345  20.363  0.00  0.00    +0.000 OA
ATOM     30  N   UNL     1       2.480  14.192  18.214  0.00  0.00    +0.000 N 
ATOM     31  H   UNL     1       1.712  14.516  17.628  0.00  0.00    +0.000 HD
BRANCH  30  32
ATOM     32  C   UNL     1       3.628  15.005  18.316  0.00  0.00    +0.000 A 
ATOM     33  C   UNL     1       4.883  14.522  17.931  0.00  0.00    +0.000 A 
ATOM     34  C   UNL     1       6.037  15.244  18.225  0.00  0.00    +0.000 A 
ATOM     35  C   UNL     1       5.948  16.451  18.924  0.00  0.00    +0.000 A 
ATOM     36  C   UNL     1       7.189  17.154  19.386  0.00  0.00    +0.000 C 
ATOM     37  C   UNL     1       4.682  16.969  19.232  0.00  0.00    +0.000 A 
ATOM     38  C   UNL     1       3.519  16.262  18.903  0.00  0.00    +0.000 A 
ENDBRANCH  30  32
ENDBRANCH  27  28
ENDBRANCH   9  27
TORSDOF 9
ENDMDL
MODEL 9
REMARK VINA RESULT:      -7.3      2.085      3.633
REMARK  Name = 
REMARK  13 active torsions:
REMARK  status: ('A' for Active; 'I' for Inactive)
REMARK    1  A    between atoms: C_1  and  O_2
REMARK    2  A    between atoms: O_2  and  C_3
REMARK    3  A    between atoms: C_8  and  C_9
REMARK    4  A    between atoms: C_9  and  N_10
REMARK    5  A    between atoms: N_10  and  C_11
REMARK    6  A    between atoms: C_14  and  O_15
REMARK    7  A    between atoms: O_15  and  C_16
REMARK    8  A    between atoms: C_17  and  O_18
REMARK    9  A    between atoms: O_18  and  C_19
REMARK   10  A    between atoms: N_23  and  C_24
REMARK   11  A    between atoms: C_24  and  C_25
REMARK   12  A    between atoms: N_27  and  C_28
REMARK   13  A    between atoms: C_31  and  C_32
REMARK                            x       y       z     vdW  Elec       q    Type
REMARK                         _______ _______ _______ _____ _____    ______ ____
ROOT
ATOM      1  C   UNL     1       1.834  14.952  19.171  0.00  0.00    +0.000 A 
ATOM      2  C   UNL     1       2.795  14.643  18.212  0.00  0.00    +0.000 A 
ATOM      3  C   UNL     1       2.951  13.329  17.781  0.00  0.00    +0.000 A 
ATOM      4  C   UNL     1       2.156  12.315  18.322  0.00  0.00    +0.000 A 
ATOM      5  C   UNL     1       2.306  10.954  17.826  0.00  0.00    +0.000 A 
ATOM      6  C   UNL     1       1.657   9.935  18.418  0.00  0.00    +0.000 A 
ATOM      7  C   UNL     1       0.795  10.195  19.609  0.00  0.00    +0.000 A 
ATOM      8  O   UNL     1       0.381   9.270  20.295  0.00  0.00    +0.000 OA
ATOM      9  N   UNL     1       0.439  11.518  19.858  0.00  0.00    +0.000 N 
ATOM     10  C   UNL     1       1.177  12.605  19.288  0.00  0.00    +0.000 A 
ATOM     11  C   UNL     1       1.012  13.939  19.683  0.00  0.00    +0.000 A 
ENDROOT
BRANCH   1  13
ATOM     12  C   UNL     1       0.292  16.480  20.134  0.00  0.00    +0.000 C 
ATOM     13  O   UNL     1       1.616  16.197  19.697  0.00  0.00    +0.000 OA
ENDBRANCH   1  13
BRANCH   6  14
ATOM     14  C   UNL     1       1.652   8.550  17.856  0.00  0.00    +0.000 C 
BRANCH  14  15
ATOM     15  N   UNL     1       2.438   7.672  18.710  0.00  0.00    +0.000 N 
ATOM     16  H   UNL     1       2.893   8.157  19.477  0.00  0.00    +0.000 HD
BRANCH  15  17
ATOM     17  C   UNL     1       3.261   6.707  18.119  0.00  0.00    +0.000 A 
ATOM     18  C   UNL     1       4.420   7.015  17.402  0.00  0.00    +0.000 A 
ATOM     19  C   UNL     1       5.143   6.024  16.727  0.00  0.00    +0.000 A 
ATOM     20  C   UNL     1       4.696   4.702  16.717  0.00  0.00    +0.000 A 
ATOM     21  C   UNL     1       3.527   4.374  17.425  0.00  0.00    +0.000 A 
ATOM     22  C   UNL     1       2.830   5.374  18.118  0.00  0.00    +0.000 A 
BRANCH  20  23
ATOM     23  O   UNL     1       5.301   3.682  16.030  0.00  0.00    +0.000 OA
ATOM     24  C   UNL     1       6.080   4.032  14.894  0.00  0.00    +0.000 C 
ENDBRANCH  20  23
BRANCH  21  25
ATOM     25  O   UNL     1       3.144   3.054  17.419  0.00  0.00    +0.000 OA
ATOM     26  C   UNL     1       3.303   2.356  18.650  0.00  0.00    +0.000 C 
ENDBRANCH  21  25
ENDBRANCH  15  17
ENDBRANCH  14  15
ENDBRANCH   6  14
BRANCH   9  27
ATOM     27  C   UNL     1      -0.676  11.740  20.777  0.00  0.00    +0.000 C 
BRANCH  27  28
ATOM     28  C   UNL     1      -1.953  12.253  20.122  0.00  0.00    +0.000 C 
ATOM     29  O   UNL     1      -2.362  13.387  20.368  0.00  0.00    +0.000 OA
ATOM     30  N   UNL     1      -2.601  11.333  19.307  0.00  0.00    +0.000 N 
ATOM     31  H   UNL     1      -2.441  10.355  19.539  0.00  0.00    +0.000 HD
BRANCH  30  32
ATOM     32  C   UNL     1      -3.838  11.688  18.729  0.00  0.00    +0.000 A 
ATOM     33  C   UNL     1      -4.056  11.535  17.356  0.00  0.00    +0.000 A 
ATOM     34  C   UNL     1      -5.192  12.076  16.758  0.00  0.00    +0.000 A 
ATOM     35  C   UNL     1      -6.114  12.792  17.527  0.00  0.00    +0.000 A 
ATOM     36  C   UNL     1      -7.252  13.512  16.871  0.00  0.00    +0.000 C 
ATOM     37  C   UNL     1      -5.931  12.869  18.915  0.00  0.00    +0.000 A 
ATOM     38  C   UNL     1      -4.808  12.293  19.523  0.00  0.00    +0.000 A 
ENDBRANCH  30  32
ENDBRANCH  27  28
ENDBRANCH   9  27
TORSDOF 9
ENDMDL
