MODEL 1
REMARK VINA RESULT:      -7.6      0.000      0.000
REMARK  Name = 
REMARK  8 active torsions:
REMARK  status: ('A' for Active; 'I' for Inactive)
REMARK    1  A    between atoms: C_1  and  C_2
REMARK    2  A    between atoms: C_2  and  C_3
REMARK    3  A    between atoms: C_3  and  C_4
REMARK    4  A    between atoms: C_4  and  O_5
REMARK    5  A    between atoms: O_5  and  C_6
REMARK    6  A    between atoms: C_9  and  S_10
REMARK    7  A    between atoms: S_10  and  N_13
REMARK    8  A    between atoms: C_14  and  C_15
REMARK                            x       y       z     vdW  Elec       q    Type
REMARK                         _______ _______ _______ _____ _____    ______ ____
ROOT
ATOM      1  S   UNL     1       7.289   5.153  16.410  0.00  0.00    +0.000 S 
ATOM      2  O   UNL     1       8.278   4.193  16.844  0.00  0.00    +0.000 OA
ATOM      3  O   UNL     1       7.547   6.580  16.331  0.00  0.00    +0.000 OA
ENDROOT
BRANCH   1   4
ATOM      4  N   UNL     1       6.026   4.992  17.503  0.00  0.00    +0.000 N 
ATOM      5  C   UNL     1       6.265   4.664  18.817  0.00  0.00    +0.000 A 
ATOM      6  C   UNL     1       7.021   5.655  19.661  0.00  0.00    +0.000 C 
ATOM      7  N   UNL     1       5.157   4.031  19.185  0.00  0.00    +0.000 NA
ATOM      8  C   UNL     1       4.213   4.855  18.613  0.00  0.00    +0.000 A 
ATOM      9  C   UNL     1       2.918   5.110  19.066  0.00  0.00    +0.000 A 
ATOM     10  C   UNL     1       2.413   6.384  18.805  0.00  0.00    +0.000 A 
ATOM     11  C   UNL     1       3.119   7.291  18.003  0.00  0.00    +0.000 A 
ATOM     12  C   UNL     1       4.299   6.932  17.315  0.00  0.00    +0.000 A 
ATOM     13  C   UNL     1       4.822   5.675  17.643  0.00  0.00    +0.000 A 
ENDBRANCH   1   4
BRANCH   1  17
ATOM     14  C   UNL     1       5.658   3.792  12.257  0.00  0.00    +0.000 A 
ATOM     15  C   UNL     1       6.934   4.352  12.370  0.00  0.00    +0.000 A 
ATOM     16  C   UNL     1       7.453   4.742  13.626  0.00  0.00    +0.000 A 
ATOM     17  C   UNL     1       6.686   4.606  14.790  0.00  0.00    +0.000 A 
ATOM     18  C   UNL     1       5.396   4.065  14.682  0.00  0.00    +0.000 A 
ATOM     19  C   UNL     1       4.892   3.669  13.423  0.00  0.00    +0.000 A 
BRANCH  14  20
ATOM     20  O   UNL     1       5.068   3.346  11.092  0.00  0.00    +0.000 OA
BRANCH  20  21
ATOM     21  C   UNL     1       3.714   2.876  11.189  0.00  0.00    +0.000 C 
BRANCH  21  22
ATOM     22  C   UNL     1       2.893   3.172   9.915  0.00  0.00    +0.000 C 
BRANCH  22  24
ATOM     23  C   UNL     1       1.943   5.230   8.777  0.00  0.00    +0.000 C 
ATOM     24  C   UNL     1       3.210   4.513   9.236  0.00  0.00    +0.000 C 
ENDBRANCH  22  24
ENDBRANCH  21  22
ENDBRANCH  20  21
ENDBRANCH  14  20
ENDBRANCH   1  17
TORSDOF 6
ENDMDL
MODEL 2
REMARK VINA RESULT:      -7.5      4.329      7.571
REMARK  Name = 
REMARK  8 active torsions:
REMARK  status: ('A' for Active; 'I' for Inactive)
REMARK    1  A    between atoms: C_1  and  C_2
REMARK    2  A    between atoms: C_2  and  C_3
REMARK    3  A    between atoms: C_3  and  C_4
REMARK    4  A    between atoms: C_4  and  O_5
REMARK    5  A    between atoms: O_5  and  C_6
REMARK    6  A    between atoms: C_9  and  S_10
REMARK    7  A    between atoms: S_10  and  N_13
REMARK    8  A    between atoms: C_14  and  C_15
REMARK                            x       y       z     vdW  Elec       q    Type
REMARK                         _______ _______ _______ _____ _____    ______ ____
ROOT
ATOM      1  S   UNL     1       2.539   5.578  19.435  0.00  0.00    +0.000 S 
ATOM      2  O   UNL     1       2.441   5.206  20.828  0.00  0.00    +0.000 OA
ATOM      3  O   UNL     1       1.873   4.849  18.369  0.00  0.00    +0.000 OA
ENDROOT
BRANCH   1   4
ATOM      4  N   UNL     1       4.176   5.485  19.079  0.00  0.00    +0.000 N 
ATOM      5  C   UNL     1       4.972   4.526  19.660  0.00  0.00    +0.000 A 
ATOM      6  C   UNL     1       4.698   3.085  19.317  0.00  0.00    +0.000 C 
ATOM      7  N   UNL     1       6.173   5.093  19.685  0.00  0.00    +0.000 NA
ATOM      8  C   UNL     1       6.197   5.651  18.426  0.00  0.00    +0.000 A 
ATOM      9  C   UNL     1       7.309   5.873  17.613  0.00  0.00    +0.000 A 
ATOM     10  C   UNL     1       7.096   5.782  16.237  0.00  0.00    +0.000 A 
ATOM     11  C   UNL     1       5.803   5.627  15.716  0.00  0.00    +0.000 A 
ATOM     12  C   UNL     1       4.649   5.684  16.526  0.00  0.00    +0.000 A 
ATOM     13  C   UNL     1       4.888   5.709  17.906  0.00  0.00    +0.000 A 
ENDBRANCH   1   4
BRANCH   1  17
ATOM     14  C   UNL     1       1.227  10.037  19.035  0.00  0.00    +0.000 A 
ATOM     15  C   UNL     1       1.108   9.369  20.257  0.00  0.00    +0.000 A 
ATOM     16  C   UNL     1       1.529   8.026  20.401  0.00  0.00    +0.000 A 
ATOM     17  C   UNL     1       2.048   7.319  19.309  0.00  0.00    +0.000 A 
ATOM     18  C   UNL     1       2.151   7.976  18.073  0.00  0.00    +0.000 A 
ATOM     19  C   UNL     1       1.737   9.320  17.944  0.00  0.00    +0.000 A 
BRANCH  14  20
ATOM     20  O   UNL     1       0.882  11.351  18.792  0.00  0.00    +0.000 OA
BRANCH  20  21
ATOM     21  C   UNL     1      -0.443  11.755  19.173  0.00  0.00    +0.000 C 
BRANCH  21  22
ATOM     22  C   UNL     1      -1.458  11.612  18.018  0.00  0.00    +0.000 C 
BRANCH  22  24
ATOM     23  C   UNL     1      -2.519   9.969  16.404  0.00  0.00    +0.000 C 
ATOM     24  C   UNL     1      -2.036  10.201  17.833  0.00  0.00    +0.000 C 
ENDBRANCH  22  24
ENDBRANCH  21  22
ENDBRANCH  20  21
ENDBRANCH  14  20
ENDBRANCH   1  17
TORSDOF 6
ENDMDL
MODEL 3
REMARK VINA RESULT:      -7.3      4.684      7.571
REMARK  Name = 
REMARK  8 active torsions:
REMARK  status: ('A' for Active; 'I' for Inactive)
REMARK    1  A    between atoms: C_1  and  C_2
REMARK    2  A    between atoms: C_2  and  C_3
REMARK    3  A    between atoms: C_3  and  C_4
REMARK    4  A    between atoms: C_4  and  O_5
REMARK    5  A    between atoms: O_5  and  C_6
REMARK    6  A    between atoms: C_9  and  S_10
REMARK    7  A    between atoms: S_10  and  N_13
REMARK    8  A    between atoms: C_14  and  C_15
REMARK                            x       y       z     vdW  Elec       q    Type
REMARK                         _______ _______ _______ _____ _____    ______ ____
ROOT
ATOM      1  S   UNL     1       3.694   6.470  18.210  0.00  0.00    +0.000 S 
ATOM      2  O   UNL     1       4.148   6.706  16.858  0.00  0.00    +0.000 OA
ATOM      3  O   UNL     1       4.598   6.338  19.339  0.00  0.00    +0.000 OA
ENDROOT
BRANCH   1   4
ATOM      4  N   UNL     1       2.861   5.016  18.136  0.00  0.00    +0.000 N 
ATOM      5  C   UNL     1       3.302   3.989  17.335  0.00  0.00    +0.000 A 
ATOM      6  C   UNL     1       4.621   3.348  17.677  0.00  0.00    +0.000 C 
ATOM      7  N   UNL     1       2.188   3.333  17.030  0.00  0.00    +0.000 NA
ATOM      8  C   UNL     1       1.575   3.323  18.263  0.00  0.00    +0.000 A 
ATOM      9  C   UNL     1       0.710   2.356  18.778  0.00  0.00    +0.000 A 
ATOM     10  C   UNL     1       0.757   2.157  20.158  0.00  0.00    +0.000 A 
ATOM     11  C   UNL     1       1.522   2.994  20.982  0.00  0.00    +0.000 A 
ATOM     12  C   UNL     1       2.176   4.146  20.493  0.00  0.00    +0.000 A 
ATOM     13  C   UNL     1       2.171   4.288  19.100  0.00  0.00    +0.000 A 
ENDBRANCH   1   4
BRANCH   1  17
ATOM     14  C   UNL     1       0.656   9.836  19.308  0.00  0.00    +0.000 A 
ATOM     15  C   UNL     1       1.195   9.759  18.021  0.00  0.00    +0.000 A 
ATOM     16  C   UNL     1       2.095   8.728  17.664  0.00  0.00    +0.000 A 
ATOM     17  C   UNL     1       2.494   7.771  18.607  0.00  0.00    +0.000 A 
ATOM     18  C   UNL     1       1.973   7.854  19.907  0.00  0.00    +0.000 A 
ATOM     19  C   UNL     1       1.068   8.882  20.248  0.00  0.00    +0.000 A 
BRANCH  14  20
ATOM     20  O   UNL     1      -0.253  10.775  19.752  0.00  0.00    +0.000 OA
BRANCH  20  21
ATOM     21  C   UNL     1      -0.933  11.544  18.747  0.00  0.00    +0.000 C 
BRANCH  21  22
ATOM     22  C   UNL     1      -2.387  11.073  18.526  0.00  0.00    +0.000 C 
BRANCH  22  24
ATOM     23  C   UNL     1      -2.500  10.370  16.093  0.00  0.00    +0.000 C 
ATOM     24  C   UNL     1      -2.548   9.903  17.545  0.00  0.00    +0.000 C 
ENDBRANCH  22  24
ENDBRANCH  21  22
ENDBRANCH  20  21
ENDBRANCH  14  20
ENDBRANCH   1  17
TORSDOF 6
ENDMDL
MODEL 4
REMARK VINA RESULT:      -7.1      4.098      7.604
REMARK  Name = 
REMARK  8 active torsions:
REMARK  status: ('A' for Active; 'I' for Inactive)
REMARK    1  A    between atoms: C_1  and  C_2
REMARK    2  A    between atoms: C_2  and  C_3
REMARK    3  A    between atoms: C_3  and  C_4
REMARK    4  A    between atoms: C_4  and  O_5
REMARK    5  A    between atoms: O_5  and  C_6
REMARK    6  A    between atoms: C_9  and  S_10
REMARK    7  A    between atoms: S_10  and  N_13
REMARK    8  A    between atoms: C_14  and  C_15
REMARK                            x       y       z     vdW  Elec       q    Type
REMARK                         _______ _______ _______ _____ _____    ______ ____
ROOT
ATOM      1  S   UNL     1       2.539   5.088  19.304  0.00  0.00    +0.000 S 
ATOM      2  O   UNL     1       2.482   4.802  20.720  0.00  0.00    +0.000 OA
ATOM      3  O   UNL     1       1.774   4.352  18.313  0.00  0.00    +0.000 OA
ENDROOT
BRANCH   1   4
ATOM      4  N   UNL     1       4.147   4.856  18.883  0.00  0.00    +0.000 N 
ATOM      5  C   UNL     1       4.936   3.964  19.571  0.00  0.00    +0.000 A 
ATOM      6  C   UNL     1       4.583   2.503  19.484  0.00  0.00    +0.000 C 
ATOM      7  N   UNL     1       6.158   4.466  19.440  0.00  0.00    +0.000 NA
ATOM      8  C   UNL     1       6.130   4.812  18.107  0.00  0.00    +0.000 A 
ATOM      9  C   UNL     1       7.200   4.843  17.211  0.00  0.00    +0.000 A 
ATOM     10  C   UNL     1       6.901   4.541  15.882  0.00  0.00    +0.000 A 
ATOM     11  C   UNL     1       5.574   4.370  15.461  0.00  0.00    +0.000 A 
ATOM     12  C   UNL     1       4.474   4.615  16.311  0.00  0.00    +0.000 A 
ATOM     13  C   UNL     1       4.796   4.851  17.653  0.00  0.00    +0.000 A 
ENDBRANCH   1   4
BRANCH   1  17
ATOM     14  C   UNL     1       1.627   9.640  18.850  0.00  0.00    +0.000 A 
ATOM     15  C   UNL     1       2.146   8.910  17.777  0.00  0.00    +0.000 A 
ATOM     16  C   UNL     1       2.401   7.523  17.890  0.00  0.00    +0.000 A 
ATOM     17  C   UNL     1       2.167   6.851  19.097  0.00  0.00    +0.000 A 
ATOM     18  C   UNL     1       1.665   7.581  20.185  0.00  0.00    +0.000 A 
ATOM     19  C   UNL     1       1.406   8.963  20.057  0.00  0.00    +0.000 A 
BRANCH  14  20
ATOM     20  O   UNL     1       1.310  10.983  18.839  0.00  0.00    +0.000 OA
BRANCH  20  21
ATOM     21  C   UNL     1       0.367  11.435  19.825  0.00  0.00    +0.000 C 
BRANCH  21  22
ATOM     22  C   UNL     1      -0.802  12.230  19.203  0.00  0.00    +0.000 C 
BRANCH  22  24
ATOM     23  C   UNL     1      -1.983  10.200  18.247  0.00  0.00    +0.000 C 
ATOM     24  C   UNL     1      -1.429  11.592  17.955  0.00  0.00    +0.000 C 
ENDBRANCH  22  24
ENDBRANCH  21  22
ENDBRANCH  20  21
ENDBRANCH  14  20
ENDBRANCH   1  17
TORSDOF 6
ENDMDL
MODEL 5
REMARK VINA RESULT:      -7.1      4.596      7.589
REMARK  Name = 
REMARK  8 active torsions:
REMARK  status: ('A' for Active; 'I' for Inactive)
REMARK    1  A    between atoms: C_1  and  C_2
REMARK    2  A    between atoms: C_2  and  C_3
REMARK    3  A    between atoms: C_3  and  C_4
REMARK    4  A    between atoms: C_4  and  O_5
REMARK    5  A    between atoms: O_5  and  C_6
REMARK    6  A    between atoms: C_9  and  S_10
REMARK    7  A    between atoms: S_10  and  N_13
REMARK    8  A    between atoms: C_14  and  C_15
REMARK                            x       y       z     vdW  Elec       q    Type
REMARK                         _______ _______ _______ _____ _____    ______ ____
ROOT
ATOM      1  S   UNL     1       3.684   6.535  18.063  0.00  0.00    +0.000 S 
ATOM      2  O   UNL     1       3.989   6.798  16.675  0.00  0.00    +0.000 OA
ATOM      3  O   UNL     1       4.705   6.365  19.082  0.00  0.00    +0.000 OA
ENDROOT
BRANCH   1   4
ATOM      4  N   UNL     1       2.827   5.094  18.050  0.00  0.00    +0.000 N 
ATOM      5  C   UNL     1       3.163   4.079  17.185  0.00  0.00    +0.000 A 
ATOM      6  C   UNL     1       4.502   3.415  17.369  0.00  0.00    +0.000 C 
ATOM      7  N   UNL     1       2.013   3.445  16.988  0.00  0.00    +0.000 NA
ATOM      8  C   UNL     1       1.536   3.414  18.280  0.00  0.00    +0.000 A 
ATOM      9  C   UNL     1       0.717   2.447  18.864  0.00  0.00    +0.000 A 
ATOM     10  C   UNL     1       0.909   2.217  20.227  0.00  0.00    +0.000 A 
ATOM     11  C   UNL     1       1.771   3.026  20.981  0.00  0.00    +0.000 A 
ATOM     12  C   UNL     1       2.385   4.180  20.448  0.00  0.00    +0.000 A 
ATOM     13  C   UNL     1       2.233   4.353  19.067  0.00  0.00    +0.000 A 
ENDBRANCH   1   4
BRANCH   1  17
ATOM     14  C   UNL     1       0.729   9.881  19.419  0.00  0.00    +0.000 A 
ATOM     15  C   UNL     1       1.079   8.847  20.292  0.00  0.00    +0.000 A 
ATOM     16  C   UNL     1       1.996   7.842  19.906  0.00  0.00    +0.000 A 
ATOM     17  C   UNL     1       2.555   7.841  18.621  0.00  0.00    +0.000 A 
ATOM     18  C   UNL     1       2.192   8.864  17.732  0.00  0.00    +0.000 A 
ATOM     19  C   UNL     1       1.283   9.867  18.132  0.00  0.00    +0.000 A 
BRANCH  14  20
ATOM     20  O   UNL     1      -0.124  10.928  19.703  0.00  0.00    +0.000 OA
BRANCH  20  21
ATOM     21  C   UNL     1      -0.637  11.668  18.583  0.00  0.00    +0.000 C 
BRANCH  21  22
ATOM     22  C   UNL     1      -2.051  11.206  18.168  0.00  0.00    +0.000 C 
BRANCH  22  24
ATOM     23  C   UNL     1      -3.459  10.246  16.291  0.00  0.00    +0.000 C 
ATOM     24  C   UNL     1      -2.094  10.242  16.974  0.00  0.00    +0.000 C 
ENDBRANCH  22  24
ENDBRANCH  21  22
ENDBRANCH  20  21
ENDBRANCH  14  20
ENDBRANCH   1  17
TORSDOF 6
ENDMDL
MODEL 6
REMARK VINA RESULT:      -7.0      4.644      8.425
REMARK  Name = 
REMARK  8 active torsions:
REMARK  status: ('A' for Active; 'I' for Inactive)
REMARK    1  A    between atoms: C_1  and  C_2
REMARK    2  A    between atoms: C_2  and  C_3
REMARK    3  A    between atoms: C_3  and  C_4
REMARK    4  A    between atoms: C_4  and  O_5
REMARK    5  A    between atoms: O_5  and  C_6
REMARK    6  A    between atoms: C_9  and  S_10
REMARK    7  A    between atoms: S_10  and  N_13
REMARK    8  A    between atoms: C_14  and  C_15
REMARK                            x       y       z     vdW  Elec       q    Type
REMARK                         _______ _______ _______ _____ _____    ______ ____
ROOT
ATOM      1  S   UNL     1       3.715   6.484  18.115  0.00  0.00    +0.000 S 
ATOM      2  O   UNL     1       4.113   6.716  16.745  0.00  0.00    +0.000 OA
ATOM      3  O   UNL     1       4.663   6.360  19.208  0.00  0.00    +0.000 OA
ENDROOT
BRANCH   1   4
ATOM      4  N   UNL     1       2.886   5.026  18.080  0.00  0.00    +0.000 N 
ATOM      5  C   UNL     1       3.311   3.990  17.281  0.00  0.00    +0.000 A 
ATOM      6  C   UNL     1       4.641   3.359  17.598  0.00  0.00    +0.000 C 
ATOM      7  N   UNL     1       2.193   3.326  17.012  0.00  0.00    +0.000 NA
ATOM      8  C   UNL     1       1.611   3.329  18.260  0.00  0.00    +0.000 A 
ATOM      9  C   UNL     1       0.763   2.365  18.807  0.00  0.00    +0.000 A 
ATOM     10  C   UNL     1       0.844   2.183  20.188  0.00  0.00    +0.000 A 
ATOM     11  C   UNL     1       1.626   3.034  20.983  0.00  0.00    +0.000 A 
ATOM     12  C   UNL     1       2.263   4.182  20.463  0.00  0.00    +0.000 A 
ATOM     13  C   UNL     1       2.223   4.307  19.069  0.00  0.00    +0.000 A 
ENDBRANCH   1   4
BRANCH   1  17
ATOM     14  C   UNL     1       0.703   9.835  19.324  0.00  0.00    +0.000 A 
ATOM     15  C   UNL     1       1.244   9.799  18.037  0.00  0.00    +0.000 A 
ATOM     16  C   UNL     1       2.136   8.772  17.646  0.00  0.00    +0.000 A 
ATOM     17  C   UNL     1       2.525   7.780  18.555  0.00  0.00    +0.000 A 
ATOM     18  C   UNL     1       2.002   7.822  19.857  0.00  0.00    +0.000 A 
ATOM     19  C   UNL     1       1.105   8.846  20.232  0.00  0.00    +0.000 A 
BRANCH  14  20
ATOM     20  O   UNL     1      -0.199  10.766  19.799  0.00  0.00    +0.000 OA
BRANCH  20  21
ATOM     21  C   UNL     1       0.348  11.957  20.388  0.00  0.00    +0.000 C 
BRANCH  21  22
ATOM     22  C   UNL     1      -0.068  12.130  21.865  0.00  0.00    +0.000 C 
BRANCH  22  24
ATOM     23  C   UNL     1      -0.613  10.054  23.214  0.00  0.00    +0.000 C 
ATOM     24  C   UNL     1      -1.172  11.176  22.344  0.00  0.00    +0.000 C 
ENDBRANCH  22  24
ENDBRANCH  21  22
ENDBRANCH  20  21
ENDBRANCH  14  20
ENDBRANCH   1  17
TORSDOF 6
ENDMDL
MODEL 7
REMARK VINA RESULT:      -7.0      4.839      7.690
REMARK  Name = 
REMARK  8 active torsions:
REMARK  status: ('A' for Active; 'I' for Inactive)
REMARK    1  A    between atoms: C_1  and  C_2
REMARK    2  A    between atoms: C_2  and  C_3
REMARK    3  A    between atoms: C_3  and  C_4
REMARK    4  A    between atoms: C_4  and  O_5
REMARK    5  A    between atoms: O_5  and  C_6
REMARK    6  A    between atoms: C_9  and  S_10
REMARK    7  A    between atoms: S_10  and  N_13
REMARK    8  A    between atoms: C_14  and  C_15
REMARK                            x       y       z     vdW  Elec       q    Type
REMARK                         _______ _______ _______ _____ _____    ______ ____
ROOT
ATOM      1  S   UNL     1       2.291   5.220  18.978  0.00  0.00    +0.000 S 
ATOM      2  O   UNL     1       1.877   4.533  20.181  0.00  0.00    +0.000 OA
ATOM      3  O   UNL     1       1.859   4.825  17.649  0.00  0.00    +0.000 OA
ENDROOT
BRANCH   1   4
ATOM      4  N   UNL     1       3.963   5.084  18.960  0.00  0.00    +0.000 N 
ATOM      5  C   UNL     1       4.571   3.853  18.880  0.00  0.00    +0.000 A 
ATOM      6  C   UNL     1       4.377   3.055  17.618  0.00  0.00    +0.000 C 
ATOM      7  N   UNL     1       5.732   4.041  19.497  0.00  0.00    +0.000 NA
ATOM      8  C   UNL     1       6.086   5.263  18.971  0.00  0.00    +0.000 A 
ATOM      9  C   UNL     1       7.372   5.751  18.738  0.00  0.00    +0.000 A 
ATOM     10  C   UNL     1       7.518   6.610  17.648  0.00  0.00    +0.000 A 
ATOM     11  C   UNL     1       6.402   7.065  16.933  0.00  0.00    +0.000 A 
ATOM     12  C   UNL     1       5.078   6.793  17.343  0.00  0.00    +0.000 A 
ATOM     13  C   UNL     1       4.956   5.878  18.396  0.00  0.00    +0.000 A 
ENDBRANCH   1   4
BRANCH   1  17
ATOM     14  C   UNL     1       1.305   9.735  19.611  0.00  0.00    +0.000 A 
ATOM     15  C   UNL     1       1.660   9.257  18.347  0.00  0.00    +0.000 A 
ATOM     16  C   UNL     1       1.934   7.886  18.133  0.00  0.00    +0.000 A 
ATOM     17  C   UNL     1       1.885   6.974  19.196  0.00  0.00    +0.000 A 
ATOM     18  C   UNL     1       1.550   7.451  20.472  0.00  0.00    +0.000 A 
ATOM     19  C   UNL     1       1.269   8.820  20.671  0.00  0.00    +0.000 A 
BRANCH  14  20
ATOM     20  O   UNL     1       0.985  11.041  19.924  0.00  0.00    +0.000 OA
BRANCH  20  21
ATOM     21  C   UNL     1      -0.401  11.409  19.831  0.00  0.00    +0.000 C 
BRANCH  21  22
ATOM     22  C   UNL     1      -0.725  12.161  18.522  0.00  0.00    +0.000 C 
BRANCH  22  24
ATOM     23  C   UNL     1      -1.786  10.128  17.439  0.00  0.00    +0.000 C 
ATOM     24  C   UNL     1      -1.932  11.617  17.743  0.00  0.00    +0.000 C 
ENDBRANCH  22  24
ENDBRANCH  21  22
ENDBRANCH  20  21
ENDBRANCH  14  20
ENDBRANCH   1  17
TORSDOF 6
ENDMDL
MODEL 8
REMARK VINA RESULT:      -7.0      4.327      8.012
REMARK  Name = 
REMARK  8 active torsions:
REMARK  status: ('A' for Active; 'I' for Inactive)
REMARK    1  A    between atoms: C_1  and  C_2
REMARK    2  A    between atoms: C_2  and  C_3
REMARK    3  A    between atoms: C_3  and  C_4
REMARK    4  A    between atoms: C_4  and  O_5
REMARK    5  A    between atoms: O_5  and  C_6
REMARK    6  A    between atoms: C_9  and  S_10
REMARK    7  A    between atoms: S_10  and  N_13
REMARK    8  A    between atoms: C_14  and  C_15
REMARK                            x       y       z     vdW  Elec       q    Type
REMARK                         _______ _______ _______ _____ _____    ______ ____
ROOT
ATOM      1  S   UNL     1       2.535   5.588  19.428  0.00  0.00    +0.000 S 
ATOM      2  O   UNL     1       2.426   5.218  20.820  0.00  0.00    +0.000 OA
ATOM      3  O   UNL     1       1.864   4.868  18.359  0.00  0.00    +0.000 OA
ENDROOT
BRANCH   1   4
ATOM      4  N   UNL     1       4.172   5.474  19.080  0.00  0.00    +0.000 N 
ATOM      5  C   UNL     1       4.953   4.505  19.665  0.00  0.00    +0.000 A 
ATOM      6  C   UNL     1       4.662   3.068  19.322  0.00  0.00    +0.000 C 
ATOM      7  N   UNL     1       6.161   5.057  19.695  0.00  0.00    +0.000 NA
ATOM      8  C   UNL     1       6.198   5.614  18.436  0.00  0.00    +0.000 A 
ATOM      9  C   UNL     1       7.316   5.820  17.627  0.00  0.00    +0.000 A 
ATOM     10  C   UNL     1       7.108   5.730  16.251  0.00  0.00    +0.000 A 
ATOM     11  C   UNL     1       5.816   5.592  15.723  0.00  0.00    +0.000 A 
ATOM     12  C   UNL     1       4.659   5.664  16.529  0.00  0.00    +0.000 A 
ATOM     13  C   UNL     1       4.892   5.687  17.909  0.00  0.00    +0.000 A 
ENDBRANCH   1   4
BRANCH   1  17
ATOM     14  C   UNL     1       1.283  10.063  19.019  0.00  0.00    +0.000 A 
ATOM     15  C   UNL     1       1.132   9.393  20.236  0.00  0.00    +0.000 A 
ATOM     16  C   UNL     1       1.534   8.045  20.383  0.00  0.00    +0.000 A 
ATOM     17  C   UNL     1       2.067   7.335  19.299  0.00  0.00    +0.000 A 
ATOM     18  C   UNL     1       2.202   7.996  18.068  0.00  0.00    +0.000 A 
ATOM     19  C   UNL     1       1.807   9.345  17.936  0.00  0.00    +0.000 A 
BRANCH  14  20
ATOM     20  O   UNL     1       0.959  11.383  18.774  0.00  0.00    +0.000 OA
BRANCH  20  21
ATOM     21  C   UNL     1       1.096  12.298  19.873  0.00  0.00    +0.000 C 
BRANCH  21  22
ATOM     22  C   UNL     1       1.682  13.659  19.438  0.00  0.00    +0.000 C 
BRANCH  22  24
ATOM     23  C   UNL     1       3.227  14.959  17.905  0.00  0.00    +0.000 C 
ATOM     24  C   UNL     1       2.557  13.615  18.176  0.00  0.00    +0.000 C 
ENDBRANCH  22  24
ENDBRANCH  21  22
ENDBRANCH  20  21
ENDBRANCH  14  20
ENDBRANCH   1  17
TORSDOF 6
ENDMDL
MODEL 9
REMARK VINA RESULT:      -7.0      4.072      8.187
REMARK  Name = 
REMARK  8 active torsions:
REMARK  status: ('A' for Active; 'I' for Inactive)
REMARK    1  A    between atoms: C_1  and  C_2
REMARK    2  A    between atoms: C_2  and  C_3
REMARK    3  A    between atoms: C_3  and  C_4
REMARK    4  A    between atoms: C_4  and  O_5
REMARK    5  A    between atoms: O_5  and  C_6
REMARK    6  A    between atoms: C_9  and  S_10
REMARK    7  A    between atoms: S_10  and  N_13
REMARK    8  A    between atoms: C_14  and  C_15
REMARK                            x       y       z     vdW  Elec       q    Type
REMARK                         _______ _______ _______ _____ _____    ______ ____
ROOT
ATOM      1  S   UNL     1       2.445   5.014  19.120  0.00  0.00    +0.000 S 
ATOM      2  O   UNL     1       2.300   4.584  20.492  0.00  0.00    +0.000 OA
ATOM      3  O   UNL     1       1.726   4.404  18.015  0.00  0.00    +0.000 OA
ENDROOT
BRANCH   1   4
ATOM      4  N   UNL     1       4.070   4.790  18.769  0.00  0.00    +0.000 N 
ATOM      5  C   UNL     1       4.814   3.846  19.438  0.00  0.00    +0.000 A 
ATOM      6  C   UNL     1       4.452   2.398  19.240  0.00  0.00    +0.000 C 
ATOM      7  N   UNL     1       6.046   4.340  19.403  0.00  0.00    +0.000 NA
ATOM      8  C   UNL     1       6.091   4.771  18.096  0.00  0.00    +0.000 A 
ATOM      9  C   UNL     1       7.207   4.845  17.261  0.00  0.00    +0.000 A 
ATOM     10  C   UNL     1       6.976   4.633  15.901  0.00  0.00    +0.000 A 
ATOM     11  C   UNL     1       5.671   4.505  15.402  0.00  0.00    +0.000 A 
ATOM     12  C   UNL     1       4.530   4.709  16.207  0.00  0.00    +0.000 A 
ATOM     13  C   UNL     1       4.784   4.855  17.577  0.00  0.00    +0.000 A 
ENDBRANCH   1   4
BRANCH   1  17
ATOM     14  C   UNL     1       1.650   9.611  19.093  0.00  0.00    +0.000 A 
ATOM     15  C   UNL     1       2.086   8.960  17.936  0.00  0.00    +0.000 A 
ATOM     16  C   UNL     1       2.303   7.562  17.920  0.00  0.00    +0.000 A 
ATOM     17  C   UNL     1       2.116   6.798  19.079  0.00  0.00    +0.000 A 
ATOM     18  C   UNL     1       1.699   7.448  20.251  0.00  0.00    +0.000 A 
ATOM     19  C   UNL     1       1.476   8.842  20.251  0.00  0.00    +0.000 A 
BRANCH  14  20
ATOM     20  O   UNL     1       1.374  10.958  19.210  0.00  0.00    +0.000 OA
BRANCH  20  21
ATOM     21  C   UNL     1       0.052  11.314  19.644  0.00  0.00    +0.000 C 
BRANCH  21  22
ATOM     22  C   UNL     1       0.032  11.861  21.088  0.00  0.00    +0.000 C 
BRANCH  22  24
ATOM     23  C   UNL     1      -0.628  10.318  22.989  0.00  0.00    +0.000 C 
ATOM     24  C   UNL     1      -1.117  11.338  21.964  0.00  0.00    +0.000 C 
ENDBRANCH  22  24
ENDBRANCH  21  22
ENDBRANCH  20  21
ENDBRANCH  14  20
ENDBRANCH   1  17
TORSDOF 6
ENDMDL
