MODEL 1
REMARK VINA RESULT:      -8.0      0.000      0.000
REMARK  Name = 
REMARK  6 active torsions:
REMARK  status: ('A' for Active; 'I' for Inactive)
REMARK    1  A    between atoms: C_1  and  O_2
REMARK    2  A    between atoms: O_2  and  C_3
REMARK    3  A    between atoms: C_6  and  C_7
REMARK    4  A    between atoms: N_9  and  C_10
REMARK    5  A    between atoms: C_14  and  C_15
REMARK    6  A    between atoms: N_20  and  C_21
REMARK                            x       y       z     vdW  Elec       q    Type
REMARK                         _______ _______ _______ _____ _____    ______ ____
ROOT
ATOM      1  C   UNL     1       6.432   6.995  17.033  0.00  0.00    +0.000 A 
ATOM      2  C   UNL     1       6.969   5.976  16.241  0.00  0.00    +0.000 A 
ATOM      3  C   UNL     1       6.263   4.798  16.000  0.00  0.00    +0.000 A 
ATOM      4  C   UNL     1       4.987   4.637  16.526  0.00  0.00    +0.000 A 
ATOM      5  C   UNL     1       4.428   5.654  17.311  0.00  0.00    +0.000 A 
ATOM      6  C   UNL     1       5.178   6.802  17.616  0.00  0.00    +0.000 A 
ENDROOT
BRANCH   5   7
ATOM      7  C   UNL     1       3.052   5.451  17.834  0.00  0.00    +0.000 C 
ATOM      8  O   UNL     1       2.200   6.288  17.546  0.00  0.00    +0.000 OA
ATOM      9  N   UNL     1       2.766   4.324  18.614  0.00  0.00    +0.000 N 
ATOM     10  C   UNL     1       1.372   4.180  19.046  0.00  0.00    +0.000 C 
ATOM     11  C   UNL     1       1.036   2.748  19.502  0.00  0.00    +0.000 C 
ATOM     12  N   UNL     1       1.984   2.161  20.474  0.00  0.00    +0.000 NA
ATOM     13  C   UNL     1       1.850   2.773  21.795  0.00  0.00    +0.000 C 
ATOM     14  C   UNL     1       3.357   2.299  19.954  0.00  0.00    +0.000 C 
ATOM     15  C   UNL     1       3.746   3.729  19.536  0.00  0.00    +0.000 C 
ENDBRANCH   5   7
BRANCH   1  18
ATOM     16  C   UNL     1       8.103   8.402  18.207  0.00  0.00    +0.000 C 
ATOM     17  O   UNL     1       8.591   7.517  18.906  0.00  0.00    +0.000 OA
ATOM     18  N   UNL     1       7.103   8.224  17.261  0.00  0.00    +0.000 N 
ATOM     19  H   UNL     1       6.953   8.967  16.590  0.00  0.00    +0.000 HD
BRANCH  16  23
ATOM     20  C   UNL     1       9.676  12.325  18.881  0.00  0.00    +0.000 A 
ATOM     21  C   UNL     1      10.017  11.260  19.710  0.00  0.00    +0.000 A 
ATOM     22  C   UNL     1       9.528   9.983  19.444  0.00  0.00    +0.000 A 
ATOM     23  C   UNL     1       8.678   9.761  18.351  0.00  0.00    +0.000 A 
ATOM     24  C   UNL     1       8.321  10.828  17.525  0.00  0.00    +0.000 A 
ATOM     25  C   UNL     1       8.821  12.111  17.794  0.00  0.00    +0.000 A 
BRANCH  20  27
ATOM     26  C   UNL     1      11.576  13.581  19.502  0.00  0.00    +0.000 C 
ATOM     27  O   UNL     1      10.176  13.539  19.264  0.00  0.00    +0.000 OA
ENDBRANCH  20  27
ENDBRANCH  16  23
ENDBRANCH   1  18
TORSDOF 4
ENDMDL
MODEL 2
REMARK VINA RESULT:      -7.8      0.521      1.086
REMARK  Name = 
REMARK  6 active torsions:
REMARK  status: ('A' for Active; 'I' for Inactive)
REMARK    1  A    between atoms: C_1  and  O_2
REMARK    2  A    between atoms: O_2  and  C_3
REMARK    3  A    between atoms: C_6  and  C_7
REMARK    4  A    between atoms: N_9  and  C_10
REMARK    5  A    between atoms: C_14  and  C_15
REMARK    6  A    between atoms: N_20  and  C_21
REMARK                            x       y       z     vdW  Elec       q    Type
REMARK                         _______ _______ _______ _____ _____    ______ ____
ROOT
ATOM      1  C   UNL     1       6.424   6.992  17.039  0.00  0.00    +0.000 A 
ATOM      2  C   UNL     1       6.962   6.005  16.207  0.00  0.00    +0.000 A 
ATOM      3  C   UNL     1       6.262   4.830  15.931  0.00  0.00    +0.000 A 
ATOM      4  C   UNL     1       4.991   4.642  16.461  0.00  0.00    +0.000 A 
ATOM      5  C   UNL     1       4.432   5.626  17.286  0.00  0.00    +0.000 A 
ATOM      6  C   UNL     1       5.176   6.769  17.624  0.00  0.00    +0.000 A 
ENDROOT
BRANCH   5   7
ATOM      7  C   UNL     1       3.061   5.396  17.812  0.00  0.00    +0.000 C 
ATOM      8  O   UNL     1       2.187   6.205  17.510  0.00  0.00    +0.000 OA
ATOM      9  N   UNL     1       2.805   4.275  18.611  0.00  0.00    +0.000 N 
ATOM     10  C   UNL     1       1.416   4.101  19.046  0.00  0.00    +0.000 C 
ATOM     11  C   UNL     1       1.119   2.668  19.527  0.00  0.00    +0.000 C 
ATOM     12  N   UNL     1       2.082   2.124  20.509  0.00  0.00    +0.000 NA
ATOM     13  C   UNL     1       1.931   2.755  21.819  0.00  0.00    +0.000 C 
ATOM     14  C   UNL     1       3.451   2.290  19.987  0.00  0.00    +0.000 C 
ATOM     15  C   UNL     1       3.801   3.723  19.544  0.00  0.00    +0.000 C 
ENDBRANCH   5   7
BRANCH   1  18
ATOM     16  C   UNL     1       8.095   8.369  18.247  0.00  0.00    +0.000 C 
ATOM     17  O   UNL     1       8.596   7.463  18.909  0.00  0.00    +0.000 OA
ATOM     18  N   UNL     1       7.088   8.216  17.304  0.00  0.00    +0.000 N 
ATOM     19  H   UNL     1       6.927   8.981  16.661  0.00  0.00    +0.000 HD
BRANCH  16  23
ATOM     20  C   UNL     1       9.785  12.291  18.522  0.00  0.00    +0.000 A 
ATOM     21  C   UNL     1       8.755  12.012  17.627  0.00  0.00    +0.000 A 
ATOM     22  C   UNL     1       8.191  10.739  17.587  0.00  0.00    +0.000 A 
ATOM     23  C   UNL     1       8.662   9.726  18.434  0.00  0.00    +0.000 A 
ATOM     24  C   UNL     1       9.704   9.996  19.324  0.00  0.00    +0.000 A 
ATOM     25  C   UNL     1      10.265  11.282  19.364  0.00  0.00    +0.000 A 
BRANCH  20  27
ATOM     26  C   UNL     1       9.392  14.605  18.774  0.00  0.00    +0.000 C 
ATOM     27  O   UNL     1      10.293  13.558  18.441  0.00  0.00    +0.000 OA
ENDBRANCH  20  27
ENDBRANCH  16  23
ENDBRANCH   1  18
TORSDOF 4
ENDMDL
MODEL 3
REMARK VINA RESULT:      -7.7      4.510      7.722
REMARK  Name = 
REMARK  6 active torsions:
REMARK  status: ('A' for Active; 'I' for Inactive)
REMARK    1  A    between atoms: C_1  and  O_2
REMARK    2  A    between atoms: O_2  and  C_3
REMARK    3  A    between atoms: C_6  and  C_7
REMARK    4  A    between atoms: N_9  and  C_10
REMARK    5  A    between atoms: C_14  and  C_15
REMARK    6  A    between atoms: N_20  and  C_21
REMARK                            x       y       z     vdW  Elec       q    Type
REMARK                         _______ _______ _______ _____ _____    ______ ____
ROOT
ATOM      1  C   UNL     1       1.512   5.340  20.490  0.00  0.00    +0.000 A 
ATOM      2  C   UNL     1       0.714   4.193  20.429  0.00  0.00    +0.000 A 
ATOM      3  C   UNL     1       1.219   2.984  19.950  0.00  0.00    +0.000 A 
ATOM      4  C   UNL     1       2.549   2.899  19.555  0.00  0.00    +0.000 A 
ATOM      5  C   UNL     1       3.366   4.034  19.623  0.00  0.00    +0.000 A 
ATOM      6  C   UNL     1       2.829   5.266  20.029  0.00  0.00    +0.000 A 
ENDROOT
BRANCH   5   7
ATOM      7  C   UNL     1       4.788   3.893  19.214  0.00  0.00    +0.000 C 
ATOM      8  O   UNL     1       5.441   2.980  19.714  0.00  0.00    +0.000 OA
ATOM      9  N   UNL     1       5.330   4.779  18.275  0.00  0.00    +0.000 N 
ATOM     10  C   UNL     1       6.725   4.535  17.895  0.00  0.00    +0.000 C 
ATOM     11  C   UNL     1       7.113   5.235  16.579  0.00  0.00    +0.000 C 
ATOM     12  N   UNL     1       6.757   6.669  16.503  0.00  0.00    +0.000 NA
ATOM     13  C   UNL     1       7.615   7.483  17.364  0.00  0.00    +0.000 C 
ATOM     14  C   UNL     1       5.334   6.833  16.852  0.00  0.00    +0.000 C 
ATOM     15  C   UNL     1       4.920   6.190  18.188  0.00  0.00    +0.000 C 
ENDBRANCH   5   7
BRANCH   1  18
ATOM     16  C   UNL     1       1.375   7.815  20.492  0.00  0.00    +0.000 C 
ATOM     17  O   UNL     1       2.039   8.010  19.476  0.00  0.00    +0.000 OA
ATOM     18  N   UNL     1       1.045   6.573  21.013  0.00  0.00    +0.000 N 
ATOM     19  H   UNL     1       0.307   6.534  21.705  0.00  0.00    +0.000 HD
BRANCH  16  23
ATOM     20  C   UNL     1      -0.418  11.149  22.489  0.00  0.00    +0.000 A 
ATOM     21  C   UNL     1      -0.461   9.871  23.040  0.00  0.00    +0.000 A 
ATOM     22  C   UNL     1       0.168   8.810  22.394  0.00  0.00    +0.000 A 
ATOM     23  C   UNL     1       0.837   9.014  21.178  0.00  0.00    +0.000 A 
ATOM     24  C   UNL     1       0.872  10.291  20.614  0.00  0.00    +0.000 A 
ATOM     25  C   UNL     1       0.241  11.357  21.273  0.00  0.00    +0.000 A 
BRANCH  20  27
ATOM     26  C   UNL     1      -2.500  11.862  23.345  0.00  0.00    +0.000 C 
ATOM     27  O   UNL     1      -1.108  12.102  23.186  0.00  0.00    +0.000 OA
ENDBRANCH  20  27
ENDBRANCH  16  23
ENDBRANCH   1  18
TORSDOF 4
ENDMDL
MODEL 4
REMARK VINA RESULT:      -7.4      7.125      9.663
REMARK  Name = 
REMARK  6 active torsions:
REMARK  status: ('A' for Active; 'I' for Inactive)
REMARK    1  A    between atoms: C_1  and  O_2
REMARK    2  A    between atoms: O_2  and  C_3
REMARK    3  A    between atoms: C_6  and  C_7
REMARK    4  A    between atoms: N_9  and  C_10
REMARK    5  A    between atoms: C_14  and  C_15
REMARK    6  A    between atoms: N_20  and  C_21
REMARK                            x       y       z     vdW  Elec       q    Type
REMARK                         _______ _______ _______ _____ _____    ______ ____
ROOT
ATOM      1  C   UNL     1       0.446  10.382  18.915  0.00  0.00    +0.000 A 
ATOM      2  C   UNL     1       0.900  11.642  19.316  0.00  0.00    +0.000 A 
ATOM      3  C   UNL     1       0.155  12.794  19.062  0.00  0.00    +0.000 A 
ATOM      4  C   UNL     1      -1.077  12.694  18.427  0.00  0.00    +0.000 A 
ATOM      5  C   UNL     1      -1.553  11.438  18.031  0.00  0.00    +0.000 A 
ATOM      6  C   UNL     1      -0.760  10.293  18.218  0.00  0.00    +0.000 A 
ENDROOT
BRANCH   5   7
ATOM      7  C   UNL     1      -2.886  11.373  17.377  0.00  0.00    +0.000 C 
ATOM      8  O   UNL     1      -2.922  11.200  16.162  0.00  0.00    +0.000 OA
ATOM      9  N   UNL     1      -4.045  11.494  18.155  0.00  0.00    +0.000 N 
ATOM     10  C   UNL     1      -5.315  11.371  17.434  0.00  0.00    +0.000 C 
ATOM     11  C   UNL     1      -6.502  11.075  18.370  0.00  0.00    +0.000 C 
ATOM     12  N   UNL     1      -6.613  11.967  19.544  0.00  0.00    +0.000 NA
ATOM     13  C   UNL     1      -7.054  13.308  19.163  0.00  0.00    +0.000 C 
ATOM     14  C   UNL     1      -5.316  12.007  20.244  0.00  0.00    +0.000 C 
ATOM     15  C   UNL     1      -4.111  12.351  19.349  0.00  0.00    +0.000 C 
ENDBRANCH   5   7
BRANCH   1  18
ATOM     16  C   UNL     1       1.999   8.550  18.299  0.00  0.00    +0.000 C 
ATOM     17  O   UNL     1       2.307   8.972  17.186  0.00  0.00    +0.000 OA
ATOM     18  N   UNL     1       1.155   9.186  19.198  0.00  0.00    +0.000 N 
ATOM     19  H   UNL     1       1.167   8.868  20.159  0.00  0.00    +0.000 HD
BRANCH  16  23
ATOM     20  C   UNL     1       3.785   4.792  19.304  0.00  0.00    +0.000 A 
ATOM     21  C   UNL     1       4.193   5.506  18.180  0.00  0.00    +0.000 A 
ATOM     22  C   UNL     1       3.628   6.747  17.898  0.00  0.00    +0.000 A 
ATOM     23  C   UNL     1       2.637   7.283  18.732  0.00  0.00    +0.000 A 
ATOM     24  C   UNL     1       2.214   6.566  19.853  0.00  0.00    +0.000 A 
ATOM     25  C   UNL     1       2.791   5.319  20.136  0.00  0.00    +0.000 A 
BRANCH  20  27
ATOM     26  C   UNL     1       3.484   2.477  19.652  0.00  0.00    +0.000 C 
ATOM     27  O   UNL     1       4.373   3.567  19.455  0.00  0.00    +0.000 OA
ENDBRANCH  20  27
ENDBRANCH  16  23
ENDBRANCH   1  18
TORSDOF 4
ENDMDL
MODEL 5
REMARK VINA RESULT:      -7.4      5.558      8.866
REMARK  Name = 
REMARK  6 active torsions:
REMARK  status: ('A' for Active; 'I' for Inactive)
REMARK    1  A    between atoms: C_1  and  O_2
REMARK    2  A    between atoms: O_2  and  C_3
REMARK    3  A    between atoms: C_6  and  C_7
REMARK    4  A    between atoms: N_9  and  C_10
REMARK    5  A    between atoms: C_14  and  C_15
REMARK    6  A    between atoms: N_20  and  C_21
REMARK                            x       y       z     vdW  Elec       q    Type
REMARK                         _______ _______ _______ _____ _____    ______ ____
ROOT
ATOM      1  C   UNL     1       1.997   8.221  19.173  0.00  0.00    +0.000 A 
ATOM      2  C   UNL     1       1.637   7.812  20.461  0.00  0.00    +0.000 A 
ATOM      3  C   UNL     1       0.718   8.537  21.221  0.00  0.00    +0.000 A 
ATOM      4  C   UNL     1       0.119   9.670  20.684  0.00  0.00    +0.000 A 
ATOM      5  C   UNL     1       0.458  10.086  19.390  0.00  0.00    +0.000 A 
ATOM      6  C   UNL     1       1.443   9.398  18.664  0.00  0.00    +0.000 A 
ENDROOT
BRANCH   5   7
ATOM      7  C   UNL     1      -0.225  11.289  18.845  0.00  0.00    +0.000 C 
ATOM      8  O   UNL     1      -1.126  11.117  18.028  0.00  0.00    +0.000 OA
ATOM      9  N   UNL     1       0.161  12.562  19.284  0.00  0.00    +0.000 N 
ATOM     10  C   UNL     1      -0.599  13.687  18.730  0.00  0.00    +0.000 C 
ATOM     11  C   UNL     1      -0.436  14.977  19.555  0.00  0.00    +0.000 C 
ATOM     12  N   UNL     1       0.961  15.349  19.869  0.00  0.00    +0.000 NA
ATOM     13  C   UNL     1       1.667  15.839  18.686  0.00  0.00    +0.000 C 
ATOM     14  C   UNL     1       1.649  14.187  20.463  0.00  0.00    +0.000 C 
ATOM     15  C   UNL     1       1.551  12.891  19.638  0.00  0.00    +0.000 C 
ENDBRANCH   5   7
BRANCH   1  18
ATOM     16  C   UNL     1       2.916   6.099  18.280  0.00  0.00    +0.000 C 
ATOM     17  O   UNL     1       2.126   5.339  18.835  0.00  0.00    +0.000 OA
ATOM     18  N   UNL     1       2.892   7.484  18.357  0.00  0.00    +0.000 N 
ATOM     19  H   UNL     1       3.435   8.002  17.677  0.00  0.00    +0.000 HD
BRANCH  16  23
ATOM     20  C   UNL     1       5.781   4.451  15.559  0.00  0.00    +0.000 A 
ATOM     21  C   UNL     1       5.659   5.828  15.731  0.00  0.00    +0.000 A 
ATOM     22  C   UNL     1       4.751   6.339  16.654  0.00  0.00    +0.000 A 
ATOM     23  C   UNL     1       3.942   5.477  17.408  0.00  0.00    +0.000 A 
ATOM     24  C   UNL     1       4.050   4.096  17.231  0.00  0.00    +0.000 A 
ATOM     25  C   UNL     1       4.970   3.586  16.303  0.00  0.00    +0.000 A 
BRANCH  20  27
ATOM     26  C   UNL     1       6.109   3.775  13.321  0.00  0.00    +0.000 C 
ATOM     27  O   UNL     1       6.669   4.066  14.594  0.00  0.00    +0.000 OA
ENDBRANCH  20  27
ENDBRANCH  16  23
ENDBRANCH   1  18
TORSDOF 4
ENDMDL
MODEL 6
REMARK VINA RESULT:      -7.3      7.290      9.671
REMARK  Name = 
REMARK  6 active torsions:
REMARK  status: ('A' for Active; 'I' for Inactive)
REMARK    1  A    between atoms: C_1  and  O_2
REMARK    2  A    between atoms: O_2  and  C_3
REMARK    3  A    between atoms: C_6  and  C_7
REMARK    4  A    between atoms: N_9  and  C_10
REMARK    5  A    between atoms: C_14  and  C_15
REMARK    6  A    between atoms: N_20  and  C_21
REMARK                            x       y       z     vdW  Elec       q    Type
REMARK                         _______ _______ _______ _____ _____    ______ ____
ROOT
ATOM      1  C   UNL     1       0.226  10.314  19.314  0.00  0.00    +0.000 A 
ATOM      2  C   UNL     1       0.477  11.420  20.132  0.00  0.00    +0.000 A 
ATOM      3  C   UNL     1      -0.372  12.527  20.134  0.00  0.00    +0.000 A 
ATOM      4  C   UNL     1      -1.510  12.527  19.337  0.00  0.00    +0.000 A 
ATOM      5  C   UNL     1      -1.784  11.422  18.521  0.00  0.00    +0.000 A 
ATOM      6  C   UNL     1      -0.882  10.347  18.463  0.00  0.00    +0.000 A 
ENDROOT
BRANCH   5   7
ATOM      7  C   UNL     1      -3.024  11.453  17.702  0.00  0.00    +0.000 C 
ATOM      8  O   UNL     1      -2.908  11.372  16.482  0.00  0.00    +0.000 OA
ATOM      9  N   UNL     1      -4.269  11.556  18.335  0.00  0.00    +0.000 N 
ATOM     10  C   UNL     1      -5.440  11.531  17.453  0.00  0.00    +0.000 C 
ATOM     11  C   UNL     1      -6.744  11.207  18.206  0.00  0.00    +0.000 C 
ATOM     12  N   UNL     1      -6.981  12.012  19.424  0.00  0.00    +0.000 NA
ATOM     13  C   UNL     1      -7.337  13.393  19.097  0.00  0.00    +0.000 C 
ATOM     14  C   UNL     1      -5.784  11.955  20.282  0.00  0.00    +0.000 C 
ATOM     15  C   UNL     1      -4.467  12.323  19.576  0.00  0.00    +0.000 C 
ENDBRANCH   5   7
BRANCH   1  18
ATOM     16  C   UNL     1       1.912   8.809  18.294  0.00  0.00    +0.000 C 
ATOM     17  O   UNL     1       2.150   9.490  17.299  0.00  0.00    +0.000 OA
ATOM     18  N   UNL     1       1.042   9.154  19.319  0.00  0.00    +0.000 N 
ATOM     19  H   UNL     1       1.109   8.637  20.186  0.00  0.00    +0.000 HD
BRANCH  16  23
ATOM     20  C   UNL     1       4.160   5.225  18.943  0.00  0.00    +0.000 A 
ATOM     21  C   UNL     1       3.146   5.608  19.818  0.00  0.00    +0.000 A 
ATOM     22  C   UNL     1       2.399   6.755  19.562  0.00  0.00    +0.000 A 
ATOM     23  C   UNL     1       2.667   7.541  18.432  0.00  0.00    +0.000 A 
ATOM     24  C   UNL     1       3.691   7.169  17.558  0.00  0.00    +0.000 A 
ATOM     25  C   UNL     1       4.438   6.010  17.818  0.00  0.00    +0.000 A 
BRANCH  20  27
ATOM     26  C   UNL     1       4.070   2.976  19.653  0.00  0.00    +0.000 C 
ATOM     27  O   UNL     1       4.857   4.111  19.319  0.00  0.00    +0.000 OA
ENDBRANCH  20  27
ENDBRANCH  16  23
ENDBRANCH   1  18
TORSDOF 4
ENDMDL
MODEL 7
REMARK VINA RESULT:      -7.3      4.469      7.623
REMARK  Name = 
REMARK  6 active torsions:
REMARK  status: ('A' for Active; 'I' for Inactive)
REMARK    1  A    between atoms: C_1  and  O_2
REMARK    2  A    between atoms: O_2  and  C_3
REMARK    3  A    between atoms: C_6  and  C_7
REMARK    4  A    between atoms: N_9  and  C_10
REMARK    5  A    between atoms: C_14  and  C_15
REMARK    6  A    between atoms: N_20  and  C_21
REMARK                            x       y       z     vdW  Elec       q    Type
REMARK                         _______ _______ _______ _____ _____    ______ ____
ROOT
ATOM      1  C   UNL     1       1.472   5.161  20.423  0.00  0.00    +0.000 A 
ATOM      2  C   UNL     1       0.723   3.985  20.314  0.00  0.00    +0.000 A 
ATOM      3  C   UNL     1       1.292   2.807  19.830  0.00  0.00    +0.000 A 
ATOM      4  C   UNL     1       2.636   2.782  19.478  0.00  0.00    +0.000 A 
ATOM      5  C   UNL     1       3.404   3.947  19.594  0.00  0.00    +0.000 A 
ATOM      6  C   UNL     1       2.804   5.149  20.005  0.00  0.00    +0.000 A 
ENDROOT
BRANCH   5   7
ATOM      7  C   UNL     1       4.843   3.870  19.229  0.00  0.00    +0.000 C 
ATOM      8  O   UNL     1       5.528   3.010  19.777  0.00  0.00    +0.000 OA
ATOM      9  N   UNL     1       5.364   4.755  18.277  0.00  0.00    +0.000 N 
ATOM     10  C   UNL     1       6.781   4.576  17.945  0.00  0.00    +0.000 C 
ATOM     11  C   UNL     1       7.170   5.255  16.618  0.00  0.00    +0.000 C 
ATOM     12  N   UNL     1       6.741   6.664  16.485  0.00  0.00    +0.000 NA
ATOM     13  C   UNL     1       7.527   7.550  17.342  0.00  0.00    +0.000 C 
ATOM     14  C   UNL     1       5.301   6.762  16.788  0.00  0.00    +0.000 C 
ATOM     15  C   UNL     1       4.883   6.138  18.133  0.00  0.00    +0.000 C 
ENDBRANCH   5   7
BRANCH   1  18
ATOM     16  C   UNL     1       1.258   7.630  20.486  0.00  0.00    +0.000 C 
ATOM     17  O   UNL     1       1.970   7.874  19.514  0.00  0.00    +0.000 OA
ATOM     18  N   UNL     1       0.938   6.363  20.953  0.00  0.00    +0.000 N 
ATOM     19  H   UNL     1       0.165   6.283  21.601  0.00  0.00    +0.000 HD
BRANCH  16  23
ATOM     20  C   UNL     1      -0.267  11.105  22.465  0.00  0.00    +0.000 A 
ATOM     21  C   UNL     1       0.395  11.204  21.243  0.00  0.00    +0.000 A 
ATOM     22  C   UNL     1       0.843  10.055  20.597  0.00  0.00    +0.000 A 
ATOM     23  C   UNL     1       0.646   8.792  21.174  0.00  0.00    +0.000 A 
ATOM     24  C   UNL     1      -0.005   8.688  22.405  0.00  0.00    +0.000 A 
ATOM     25  C   UNL     1      -0.459   9.848  23.049  0.00  0.00    +0.000 A 
BRANCH  20  27
ATOM     26  C   UNL     1      -1.099  13.289  22.128  0.00  0.00    +0.000 C 
ATOM     27  O   UNL     1      -0.620  12.300  23.029  0.00  0.00    +0.000 OA
ENDBRANCH  20  27
ENDBRANCH  16  23
ENDBRANCH   1  18
TORSDOF 4
ENDMDL
MODEL 8
REMARK VINA RESULT:      -7.3      5.232      9.218
REMARK  Name = 
REMARK  6 active torsions:
REMARK  status: ('A' for Active; 'I' for Inactive)
REMARK    1  A    between atoms: C_1  and  O_2
REMARK    2  A    between atoms: O_2  and  C_3
REMARK    3  A    between atoms: C_6  and  C_7
REMARK    4  A    between atoms: N_9  and  C_10
REMARK    5  A    between atoms: C_14  and  C_15
REMARK    6  A    between atoms: N_20  and  C_21
REMARK                            x       y       z     vdW  Elec       q    Type
REMARK                         _______ _______ _______ _____ _____    ______ ____
ROOT
ATOM      1  C   UNL     1       1.078   9.531  18.245  0.00  0.00    +0.000 A 
ATOM      2  C   UNL     1      -0.252   9.687  17.844  0.00  0.00    +0.000 A 
ATOM      3  C   UNL     1      -1.025  10.756  18.300  0.00  0.00    +0.000 A 
ATOM      4  C   UNL     1      -0.462  11.706  19.142  0.00  0.00    +0.000 A 
ATOM      5  C   UNL     1       0.874  11.572  19.544  0.00  0.00    +0.000 A 
ATOM      6  C   UNL     1       1.620  10.450  19.146  0.00  0.00    +0.000 A 
ENDROOT
BRANCH   5   7
ATOM      7  C   UNL     1       1.443  12.624  20.426  0.00  0.00    +0.000 C 
ATOM      8  O   UNL     1       0.975  12.741  21.555  0.00  0.00    +0.000 OA
ATOM      9  N   UNL     1       2.491  13.427  19.958  0.00  0.00    +0.000 N 
ATOM     10  C   UNL     1       3.023  14.405  20.912  0.00  0.00    +0.000 C 
ATOM     11  C   UNL     1       4.414  14.931  20.509  0.00  0.00    +0.000 C 
ATOM     12  N   UNL     1       4.528  15.398  19.111  0.00  0.00    +0.000 NA
ATOM     13  C   UNL     1       3.825  16.664  18.907  0.00  0.00    +0.000 C 
ATOM     14  C   UNL     1       4.018  14.349  18.208  0.00  0.00    +0.000 C 
ATOM     15  C   UNL     1       2.607  13.836  18.549  0.00  0.00    +0.000 C 
ENDBRANCH   5   7
BRANCH   1  18
ATOM     16  C   UNL     1       2.407   7.461  18.561  0.00  0.00    +0.000 C 
ATOM     17  O   UNL     1       2.140   7.282  19.747  0.00  0.00    +0.000 OA
ATOM     18  N   UNL     1       1.905   8.483  17.767  0.00  0.00    +0.000 N 
ATOM     19  H   UNL     1       2.004   8.390  16.764  0.00  0.00    +0.000 HD
BRANCH  16  23
ATOM     20  C   UNL     1       4.932   4.710  16.469  0.00  0.00    +0.000 A 
ATOM     21  C   UNL     1       5.187   6.080  16.451  0.00  0.00    +0.000 A 
ATOM     22  C   UNL     1       4.378   6.951  17.175  0.00  0.00    +0.000 A 
ATOM     23  C   UNL     1       3.292   6.461  17.917  0.00  0.00    +0.000 A 
ATOM     24  C   UNL     1       3.023   5.091  17.928  0.00  0.00    +0.000 A 
ATOM     25  C   UNL     1       3.846   4.218  17.201  0.00  0.00    +0.000 A 
BRANCH  20  27
ATOM     26  C   UNL     1       6.881   4.642  15.137  0.00  0.00    +0.000 C 
ATOM     27  O   UNL     1       5.762   3.958  15.686  0.00  0.00    +0.000 OA
ENDBRANCH  20  27
ENDBRANCH  16  23
ENDBRANCH   1  18
TORSDOF 4
ENDMDL
MODEL 9
REMARK VINA RESULT:      -7.3      7.175      9.681
REMARK  Name = 
REMARK  6 active torsions:
REMARK  status: ('A' for Active; 'I' for Inactive)
REMARK    1  A    between atoms: C_1  and  O_2
REMARK    2  A    between atoms: O_2  and  C_3
REMARK    3  A    between atoms: C_6  and  C_7
REMARK    4  A    between atoms: N_9  and  C_10
REMARK    5  A    between atoms: C_14  and  C_15
REMARK    6  A    between atoms: N_20  and  C_21
REMARK                            x       y       z     vdW  Elec       q    Type
REMARK                         _______ _______ _______ _____ _____    ______ ____
ROOT
ATOM      1  C   UNL     1       0.710  10.477  18.912  0.00  0.00    +0.000 A 
ATOM      2  C   UNL     1       1.378  11.704  18.959  0.00  0.00    +0.000 A 
ATOM      3  C   UNL     1       0.704  12.904  18.731  0.00  0.00    +0.000 A 
ATOM      4  C   UNL     1      -0.663  12.893  18.484  0.00  0.00    +0.000 A 
ATOM      5  C   UNL     1      -1.351  11.674  18.446  0.00  0.00    +0.000 A 
ATOM      6  C   UNL     1      -0.651  10.465  18.596  0.00  0.00    +0.000 A 
ENDROOT
BRANCH   5   7
ATOM      7  C   UNL     1      -2.816  11.709  18.203  0.00  0.00    +0.000 C 
ATOM      8  O   UNL     1      -3.214  11.497  17.060  0.00  0.00    +0.000 OA
ATOM      9  N   UNL     1      -3.689  11.963  19.269  0.00  0.00    +0.000 N 
ATOM     10  C   UNL     1      -5.119  11.931  18.947  0.00  0.00    +0.000 C 
ATOM     11  C   UNL     1      -6.006  11.778  20.197  0.00  0.00    +0.000 C 
ATOM     12  N   UNL     1      -5.704  12.716  21.299  0.00  0.00    +0.000 NA
ATOM     13  C   UNL     1      -6.131  14.078  20.979  0.00  0.00    +0.000 C 
ATOM     14  C   UNL     1      -4.262  12.662  21.599  0.00  0.00    +0.000 C 
ATOM     15  C   UNL     1      -3.342  12.863  20.380  0.00  0.00    +0.000 C 
ENDBRANCH   5   7
BRANCH   1  18
ATOM     16  C   UNL     1       2.072   8.516  18.244  0.00  0.00    +0.000 C 
ATOM     17  O   UNL     1       2.314   8.876  17.094  0.00  0.00    +0.000 OA
ATOM     18  N   UNL     1       1.353   9.242  19.182  0.00  0.00    +0.000 N 
ATOM     19  H   UNL     1       1.423   8.957  20.151  0.00  0.00    +0.000 HD
BRANCH  16  23
ATOM     20  C   UNL     1       3.690   4.680  19.238  0.00  0.00    +0.000 A 
ATOM     21  C   UNL     1       4.136   5.383  18.122  0.00  0.00    +0.000 A 
ATOM     22  C   UNL     1       3.627   6.649  17.843  0.00  0.00    +0.000 A 
ATOM     23  C   UNL     1       2.652   7.221  18.674  0.00  0.00    +0.000 A 
ATOM     24  C   UNL     1       2.191   6.515  19.787  0.00  0.00    +0.000 A 
ATOM     25  C   UNL     1       2.712   5.243  20.066  0.00  0.00    +0.000 A 
BRANCH  20  27
ATOM     26  C   UNL     1       3.290   2.380  19.591  0.00  0.00    +0.000 C 
ATOM     27  O   UNL     1       4.225   3.431  19.386  0.00  0.00    +0.000 OA
ENDBRANCH  20  27
ENDBRANCH  16  23
ENDBRANCH   1  18
TORSDOF 4
ENDMDL
