MODEL 1
REMARK VINA RESULT:      -7.0      0.000      0.000
REMARK  Name = 
REMARK  3 active torsions:
REMARK  status: ('A' for Active; 'I' for Inactive)
REMARK    1  A    between atoms: C_1  and  N_2
REMARK    2  A    between atoms: C_4  and  C_5
REMARK    3  A    between atoms: C_5  and  C_7
REMARK                            x       y       z     vdW  Elec       q    Type
REMARK                         _______ _______ _______ _____ _____    ______ ____
ROOT
ATOM      1  C   UNL     1       3.743   7.511  17.347  0.00  0.00    +0.000 C 
ATOM      2  N   UNL     1       2.896   7.192  18.481  0.00  0.00    +0.000 N 
ATOM      3  C   UNL     1       1.957   8.012  19.137  0.00  0.00    +0.000 C 
ATOM      4  C   UNL     1       1.645   9.288  18.828  0.00  0.00    +0.000 C 
ATOM      5  S   UNL     1       1.143   7.182  20.497  0.00  0.00    +0.000 S 
ATOM      6  C   UNL     1       2.194   5.772  20.246  0.00  0.00    +0.000 A 
ATOM      7  C   UNL     1       2.204   4.641  21.051  0.00  0.00    +0.000 A 
ATOM      8  C   UNL     1       3.118   3.673  20.709  0.00  0.00    +0.000 A 
ATOM      9  C   UNL     1       3.962   3.811  19.622  0.00  0.00    +0.000 A 
ATOM     10  C   UNL     1       3.951   4.926  18.804  0.00  0.00    +0.000 A 
ATOM     11  C   UNL     1       3.056   5.943  19.128  0.00  0.00    +0.000 A 
ATOM     12  O   UNL     1       4.787   2.733  19.486  0.00  0.00    +0.000 OA
ATOM     13  C   UNL     1       4.439   1.969  20.661  0.00  0.00    +0.000 C 
ATOM     14  O   UNL     1       3.314   2.507  21.381  0.00  0.00    +0.000 OA
ENDROOT
BRANCH   4  15
ATOM     15  C   UNL     1       0.718  10.176  19.595  0.00  0.00    +0.000 C 
ATOM     16  O   UNL     1       1.018  10.691  20.667  0.00  0.00    +0.000 OA
BRANCH  15  17
ATOM     17  C   UNL     1      -0.589  10.549  18.987  0.00  0.00    +0.000 A 
ATOM     18  C   UNL     1      -1.472  11.476  19.556  0.00  0.00    +0.000 A 
ATOM     19  C   UNL     1      -2.677  11.777  18.909  0.00  0.00    +0.000 A 
ATOM     20  C   UNL     1      -2.995  11.166  17.695  0.00  0.00    +0.000 A 
ATOM     21 CL   UNL     1      -4.477  11.541  16.907  0.00  0.00    +0.000 Cl
ATOM     22  C   UNL     1      -2.116  10.258  17.112  0.00  0.00    +0.000 A 
ATOM     23  C   UNL     1      -0.916   9.954  17.757  0.00  0.00    +0.000 A 
ENDBRANCH  15  17
ENDBRANCH   4  15
TORSDOF 2
ENDMDL
MODEL 2
REMARK VINA RESULT:      -7.0      1.800      3.064
REMARK  Name = 
REMARK  3 active torsions:
REMARK  status: ('A' for Active; 'I' for Inactive)
REMARK    1  A    between atoms: C_1  and  N_2
REMARK    2  A    between atoms: C_4  and  C_5
REMARK    3  A    between atoms: C_5  and  C_7
REMARK                            x       y       z     vdW  Elec       q    Type
REMARK                         _______ _______ _______ _____ _____    ______ ____
ROOT
ATOM      1  C   UNL     1       1.780   5.923  20.582  0.00  0.00    +0.000 C 
ATOM      2  N   UNL     1       2.275   6.835  19.568  0.00  0.00    +0.000 N 
ATOM      3  C   UNL     1       1.912   8.176  19.337  0.00  0.00    +0.000 C 
ATOM      4  C   UNL     1       1.013   8.901  20.036  0.00  0.00    +0.000 C 
ATOM      5  S   UNL     1       2.794   8.906  17.962  0.00  0.00    +0.000 S 
ATOM      6  C   UNL     1       3.545   7.332  17.628  0.00  0.00    +0.000 A 
ATOM      7  C   UNL     1       4.383   7.067  16.552  0.00  0.00    +0.000 A 
ATOM      8  C   UNL     1       4.833   5.774  16.450  0.00  0.00    +0.000 A 
ATOM      9  C   UNL     1       4.488   4.800  17.369  0.00  0.00    +0.000 A 
ATOM     10  C   UNL     1       3.667   5.054  18.453  0.00  0.00    +0.000 A 
ATOM     11  C   UNL     1       3.168   6.348  18.583  0.00  0.00    +0.000 A 
ATOM     12  O   UNL     1       5.042   3.594  17.057  0.00  0.00    +0.000 OA
ATOM     13  C   UNL     1       5.675   3.898  15.796  0.00  0.00    +0.000 C 
ATOM     14  O   UNL     1       5.633   5.298  15.458  0.00  0.00    +0.000 OA
ENDROOT
BRANCH   4  15
ATOM     15  C   UNL     1       0.568  10.292  19.716  0.00  0.00    +0.000 C 
ATOM     16  O   UNL     1       1.210  11.289  20.027  0.00  0.00    +0.000 OA
BRANCH  15  17
ATOM     17  C   UNL     1      -0.654  10.484  18.887  0.00  0.00    +0.000 A 
ATOM     18  C   UNL     1      -0.909   9.776  17.706  0.00  0.00    +0.000 A 
ATOM     19  C   UNL     1      -2.092  10.011  16.993  0.00  0.00    +0.000 A 
ATOM     20  C   UNL     1      -3.021  10.940  17.463  0.00  0.00    +0.000 A 
ATOM     21 CL   UNL     1      -4.471  11.223  16.582  0.00  0.00    +0.000 Cl
ATOM     22  C   UNL     1      -2.787  11.635  18.645  0.00  0.00    +0.000 A 
ATOM     23  C   UNL     1      -1.608  11.404  19.355  0.00  0.00    +0.000 A 
ENDBRANCH  15  17
ENDBRANCH   4  15
TORSDOF 2
ENDMDL
MODEL 3
REMARK VINA RESULT:      -7.0      0.169      1.018
REMARK  Name = 
REMARK  3 active torsions:
REMARK  status: ('A' for Active; 'I' for Inactive)
REMARK    1  A    between atoms: C_1  and  N_2
REMARK    2  A    between atoms: C_4  and  C_5
REMARK    3  A    between atoms: C_5  and  C_7
REMARK                            x       y       z     vdW  Elec       q    Type
REMARK                         _______ _______ _______ _____ _____    ______ ____
ROOT
ATOM      1  C   UNL     1       3.874   7.374  17.290  0.00  0.00    +0.000 C 
ATOM      2  N   UNL     1       3.008   7.084  18.418  0.00  0.00    +0.000 N 
ATOM      3  C   UNL     1       2.065   7.924  19.043  0.00  0.00    +0.000 C 
ATOM      4  C   UNL     1       1.767   9.195  18.703  0.00  0.00    +0.000 C 
ATOM      5  S   UNL     1       1.226   7.128  20.408  0.00  0.00    +0.000 S 
ATOM      6  C   UNL     1       2.270   5.706  20.202  0.00  0.00    +0.000 A 
ATOM      7  C   UNL     1       2.262   4.592  21.031  0.00  0.00    +0.000 A 
ATOM      8  C   UNL     1       3.173   3.612  20.723  0.00  0.00    +0.000 A 
ATOM      9  C   UNL     1       4.035   3.721  19.646  0.00  0.00    +0.000 A 
ATOM     10  C   UNL     1       4.043   4.819  18.805  0.00  0.00    +0.000 A 
ATOM     11  C   UNL     1       3.150   5.848  19.093  0.00  0.00    +0.000 A 
ATOM     12  O   UNL     1       4.854   2.636  19.545  0.00  0.00    +0.000 OA
ATOM     13  C   UNL     1       4.484   1.898  20.730  0.00  0.00    +0.000 C 
ATOM     14  O   UNL     1       3.352   2.459  21.422  0.00  0.00    +0.000 OA
ENDROOT
BRANCH   4  15
ATOM     15  C   UNL     1       0.835  10.105  19.437  0.00  0.00    +0.000 C 
ATOM     16  O   UNL     1       1.129  10.656  20.492  0.00  0.00    +0.000 OA
BRANCH  15  17
ATOM     17  C   UNL     1      -0.472  10.453  18.814  0.00  0.00    +0.000 A 
ATOM     18  C   UNL     1      -0.982   9.816  17.676  0.00  0.00    +0.000 A 
ATOM     19  C   UNL     1      -2.228  10.199  17.162  0.00  0.00    +0.000 A 
ATOM     20  C   UNL     1      -2.965  11.205  17.787  0.00  0.00    +0.000 A 
ATOM     21 CL   UNL     1      -4.494  11.669  17.150  0.00  0.00    +0.000 Cl
ATOM     22  C   UNL     1      -2.477  11.831  18.929  0.00  0.00    +0.000 A 
ATOM     23  C   UNL     1      -1.235  11.453  19.441  0.00  0.00    +0.000 A 
ENDBRANCH  15  17
ENDBRANCH   4  15
TORSDOF 2
ENDMDL
MODEL 4
REMARK VINA RESULT:      -6.9      1.740      2.768
REMARK  Name = 
REMARK  3 active torsions:
REMARK  status: ('A' for Active; 'I' for Inactive)
REMARK    1  A    between atoms: C_1  and  N_2
REMARK    2  A    between atoms: C_4  and  C_5
REMARK    3  A    between atoms: C_5  and  C_7
REMARK                            x       y       z     vdW  Elec       q    Type
REMARK                         _______ _______ _______ _____ _____    ______ ____
ROOT
ATOM      1  C   UNL     1       1.586   6.158  20.806  0.00  0.00    +0.000 C 
ATOM      2  N   UNL     1       2.110   7.000  19.747  0.00  0.00    +0.000 N 
ATOM      3  C   UNL     1       1.787   8.337  19.443  0.00  0.00    +0.000 C 
ATOM      4  C   UNL     1       0.907   9.123  20.097  0.00  0.00    +0.000 C 
ATOM      5  S   UNL     1       2.694   8.967  18.035  0.00  0.00    +0.000 S 
ATOM      6  C   UNL     1       3.401   7.356  17.789  0.00  0.00    +0.000 A 
ATOM      7  C   UNL     1       4.234   7.011  16.733  0.00  0.00    +0.000 A 
ATOM      8  C   UNL     1       4.647   5.702  16.701  0.00  0.00    +0.000 A 
ATOM      9  C   UNL     1       4.271   4.789  17.670  0.00  0.00    +0.000 A 
ATOM     10  C   UNL     1       3.454   5.123  18.735  0.00  0.00    +0.000 A 
ATOM     11  C   UNL     1       2.993   6.436  18.794  0.00  0.00    +0.000 A 
ATOM     12  O   UNL     1       4.792   3.552  17.426  0.00  0.00    +0.000 OA
ATOM     13  C   UNL     1       5.437   3.771  16.152  0.00  0.00    +0.000 C 
ATOM     14  O   UNL     1       5.436   5.151  15.741  0.00  0.00    +0.000 OA
ENDROOT
BRANCH   4  15
ATOM     15  C   UNL     1       0.502  10.508  19.702  0.00  0.00    +0.000 C 
ATOM     16  O   UNL     1       1.220  11.488  19.866  0.00  0.00    +0.000 OA
BRANCH  15  17
ATOM     17  C   UNL     1      -0.783  10.702  18.975  0.00  0.00    +0.000 A 
ATOM     18  C   UNL     1      -1.780  11.595  19.387  0.00  0.00    +0.000 A 
ATOM     19  C   UNL     1      -2.954  11.724  18.635  0.00  0.00    +0.000 A 
ATOM     20  C   UNL     1      -3.129  10.975  17.472  0.00  0.00    +0.000 A 
ATOM     21 CL   UNL     1      -4.574  11.139  16.553  0.00  0.00    +0.000 Cl
ATOM     22  C   UNL     1      -2.137  10.099  17.042  0.00  0.00    +0.000 A 
ATOM     23  C   UNL     1      -0.967   9.967  17.791  0.00  0.00    +0.000 A 
ENDBRANCH  15  17
ENDBRANCH   4  15
TORSDOF 2
ENDMDL
MODEL 5
REMARK VINA RESULT:      -6.9      5.023      7.696
REMARK  Name = 
REMARK  3 active torsions:
REMARK  status: ('A' for Active; 'I' for Inactive)
REMARK    1  A    between atoms: C_1  and  N_2
REMARK    2  A    between atoms: C_4  and  C_5
REMARK    3  A    between atoms: C_5  and  C_7
REMARK                            x       y       z     vdW  Elec       q    Type
REMARK                         _______ _______ _______ _____ _____    ______ ____
ROOT
ATOM      1  C   UNL     1       2.740   7.134  17.781  0.00  0.00    +0.000 C 
ATOM      2  N   UNL     1       3.682   6.068  18.069  0.00  0.00    +0.000 N 
ATOM      3  C   UNL     1       4.895   5.765  17.420  0.00  0.00    +0.000 C 
ATOM      4  C   UNL     1       5.440   6.426  16.378  0.00  0.00    +0.000 C 
ATOM      5  S   UNL     1       5.725   4.347  18.130  0.00  0.00    +0.000 S 
ATOM      6  C   UNL     1       4.340   4.097  19.213  0.00  0.00    +0.000 A 
ATOM      7  C   UNL     1       4.209   3.034  20.096  0.00  0.00    +0.000 A 
ATOM      8  C   UNL     1       3.044   3.001  20.823  0.00  0.00    +0.000 A 
ATOM      9  C   UNL     1       2.070   3.975  20.694  0.00  0.00    +0.000 A 
ATOM     10  C   UNL     1       2.194   5.047  19.829  0.00  0.00    +0.000 A 
ATOM     11  C   UNL     1       3.351   5.107  19.056  0.00  0.00    +0.000 A 
ATOM     12  O   UNL     1       1.000   3.727  21.504  0.00  0.00    +0.000 OA
ATOM     13  C   UNL     1       1.368   2.447  22.063  0.00  0.00    +0.000 C 
ATOM     14  O   UNL     1       2.702   2.033  21.715  0.00  0.00    +0.000 OA
ENDROOT
BRANCH   4  15
ATOM     15  C   UNL     1       6.678   6.033  15.638  0.00  0.00    +0.000 C 
ATOM     16  O   UNL     1       7.805   6.353  16.000  0.00  0.00    +0.000 OA
BRANCH  15  17
ATOM     17  C   UNL     1       6.558   5.118  14.469  0.00  0.00    +0.000 A 
ATOM     18  C   UNL     1       7.509   5.043  13.443  0.00  0.00    +0.000 A 
ATOM     19  C   UNL     1       7.322   4.144  12.385  0.00  0.00    +0.000 A 
ATOM     20  C   UNL     1       6.199   3.316  12.358  0.00  0.00    +0.000 A 
ATOM     21 CL   UNL     1       5.978   2.214  11.055  0.00  0.00    +0.000 Cl
ATOM     22  C   UNL     1       5.259   3.368  13.381  0.00  0.00    +0.000 A 
ATOM     23  C   UNL     1       5.441   4.266  14.435  0.00  0.00    +0.000 A 
ENDBRANCH  15  17
ENDBRANCH   4  15
TORSDOF 2
ENDMDL
MODEL 6
REMARK VINA RESULT:      -6.9      3.807      7.992
REMARK  Name = 
REMARK  3 active torsions:
REMARK  status: ('A' for Active; 'I' for Inactive)
REMARK    1  A    between atoms: C_1  and  N_2
REMARK    2  A    between atoms: C_4  and  C_5
REMARK    3  A    between atoms: C_5  and  C_7
REMARK                            x       y       z     vdW  Elec       q    Type
REMARK                         _______ _______ _______ _____ _____    ______ ____
ROOT
ATOM      1  C   UNL     1       1.377  10.854  18.100  0.00  0.00    +0.000 C 
ATOM      2  N   UNL     1       1.214  10.007  19.267  0.00  0.00    +0.000 N 
ATOM      3  C   UNL     1       1.668   8.689  19.470  0.00  0.00    +0.000 C 
ATOM      4  C   UNL     1       2.371   7.935  18.599  0.00  0.00    +0.000 C 
ATOM      5  S   UNL     1       1.226   8.043  21.079  0.00  0.00    +0.000 S 
ATOM      6  C   UNL     1       0.304   9.526  21.404  0.00  0.00    +0.000 A 
ATOM      7  C   UNL     1      -0.459   9.748  22.542  0.00  0.00    +0.000 A 
ATOM      8  C   UNL     1      -1.127  10.948  22.589  0.00  0.00    +0.000 A 
ATOM      9  C   UNL     1      -1.031  11.882  21.573  0.00  0.00    +0.000 A 
ATOM     10  C   UNL     1      -0.262  11.679  20.441  0.00  0.00    +0.000 A 
ATOM     11  C   UNL     1       0.415  10.466  20.342  0.00  0.00    +0.000 A 
ATOM     12  O   UNL     1      -1.788  12.987  21.832  0.00  0.00    +0.000 OA
ATOM     13  C   UNL     1      -2.442  12.592  23.058  0.00  0.00    +0.000 C 
ATOM     14  O   UNL     1      -1.952  11.349  23.593  0.00  0.00    +0.000 OA
ENDROOT
BRANCH   4  15
ATOM     15  C   UNL     1       2.760   6.504  18.791  0.00  0.00    +0.000 C 
ATOM     16  O   UNL     1       2.318   5.805  19.695  0.00  0.00    +0.000 OA
BRANCH  15  17
ATOM     17  C   UNL     1       3.640   5.855  17.779  0.00  0.00    +0.000 A 
ATOM     18  C   UNL     1       3.654   4.476  17.534  0.00  0.00    +0.000 A 
ATOM     19  C   UNL     1       4.505   3.951  16.554  0.00  0.00    +0.000 A 
ATOM     20  C   UNL     1       5.330   4.799  15.813  0.00  0.00    +0.000 A 
ATOM     21 CL   UNL     1       6.372   4.147  14.611  0.00  0.00    +0.000 Cl
ATOM     22  C   UNL     1       5.310   6.172  16.034  0.00  0.00    +0.000 A 
ATOM     23  C   UNL     1       4.464   6.697  17.013  0.00  0.00    +0.000 A 
ENDBRANCH  15  17
ENDBRANCH   4  15
TORSDOF 2
ENDMDL
MODEL 7
REMARK VINA RESULT:      -6.8      3.893      7.985
REMARK  Name = 
REMARK  3 active torsions:
REMARK  status: ('A' for Active; 'I' for Inactive)
REMARK    1  A    between atoms: C_1  and  N_2
REMARK    2  A    between atoms: C_4  and  C_5
REMARK    3  A    between atoms: C_5  and  C_7
REMARK                            x       y       z     vdW  Elec       q    Type
REMARK                         _______ _______ _______ _____ _____    ______ ____
ROOT
ATOM      1  C   UNL     1       1.593  10.956  18.132  0.00  0.00    +0.000 C 
ATOM      2  N   UNL     1       1.358  10.048  19.239  0.00  0.00    +0.000 N 
ATOM      3  C   UNL     1       1.747   8.700  19.370  0.00  0.00    +0.000 C 
ATOM      4  C   UNL     1       2.438   7.968  18.472  0.00  0.00    +0.000 C 
ATOM      5  S   UNL     1       1.230   7.978  20.924  0.00  0.00    +0.000 S 
ATOM      6  C   UNL     1       0.367   9.479  21.318  0.00  0.00    +0.000 A 
ATOM      7  C   UNL     1      -0.418   9.667  22.448  0.00  0.00    +0.000 A 
ATOM      8  C   UNL     1      -1.031  10.891  22.552  0.00  0.00    +0.000 A 
ATOM      9  C   UNL     1      -0.863  11.881  21.600  0.00  0.00    +0.000 A 
ATOM     10  C   UNL     1      -0.073  11.712  20.478  0.00  0.00    +0.000 A 
ATOM     11  C   UNL     1       0.551  10.476  20.321  0.00  0.00    +0.000 A 
ATOM     12  O   UNL     1      -1.576  13.002  21.909  0.00  0.00    +0.000 OA
ATOM     13  C   UNL     1      -2.283  12.564  23.090  0.00  0.00    +0.000 C 
ATOM     14  O   UNL     1      -1.865  11.268  23.559  0.00  0.00    +0.000 OA
ENDROOT
BRANCH   4  15
ATOM     15  C   UNL     1       2.757   6.512  18.583  0.00  0.00    +0.000 C 
ATOM     16  O   UNL     1       2.225   5.770  19.402  0.00  0.00    +0.000 OA
BRANCH  15  17
ATOM     17  C   UNL     1       3.679   5.898  17.588  0.00  0.00    +0.000 A 
ATOM     18  C   UNL     1       4.554   6.638  16.783  0.00  0.00    +0.000 A 
ATOM     19  C   UNL     1       5.397   5.977  15.880  0.00  0.00    +0.000 A 
ATOM     20  C   UNL     1       5.375   4.585  15.789  0.00  0.00    +0.000 A 
ATOM     21 CL   UNL     1       6.413   3.781  14.678  0.00  0.00    +0.000 Cl
ATOM     22  C   UNL     1       4.523   3.839  16.597  0.00  0.00    +0.000 A 
ATOM     23  C   UNL     1       3.680   4.496  17.495  0.00  0.00    +0.000 A 
ENDBRANCH  15  17
ENDBRANCH   4  15
TORSDOF 2
ENDMDL
MODEL 8
REMARK VINA RESULT:      -6.8      5.040      7.714
REMARK  Name = 
REMARK  3 active torsions:
REMARK  status: ('A' for Active; 'I' for Inactive)
REMARK    1  A    between atoms: C_1  and  N_2
REMARK    2  A    between atoms: C_4  and  C_5
REMARK    3  A    between atoms: C_5  and  C_7
REMARK                            x       y       z     vdW  Elec       q    Type
REMARK                         _______ _______ _______ _____ _____    ______ ____
ROOT
ATOM      1  C   UNL     1       2.846   7.239  17.864  0.00  0.00    +0.000 C 
ATOM      2  N   UNL     1       3.735   6.113  18.085  0.00  0.00    +0.000 N 
ATOM      3  C   UNL     1       4.913   5.771  17.392  0.00  0.00    +0.000 C 
ATOM      4  C   UNL     1       5.466   6.444  16.362  0.00  0.00    +0.000 C 
ATOM      5  S   UNL     1       5.681   4.284  18.023  0.00  0.00    +0.000 S 
ATOM      6  C   UNL     1       4.312   4.065  19.134  0.00  0.00    +0.000 A 
ATOM      7  C   UNL     1       4.145   2.976  19.978  0.00  0.00    +0.000 A 
ATOM      8  C   UNL     1       2.999   2.977  20.734  0.00  0.00    +0.000 A 
ATOM      9  C   UNL     1       2.077   4.006  20.670  0.00  0.00    +0.000 A 
ATOM     10  C   UNL     1       2.238   5.104  19.845  0.00  0.00    +0.000 A 
ATOM     11  C   UNL     1       3.377   5.133  19.043  0.00  0.00    +0.000 A 
ATOM     12  O   UNL     1       1.016   3.784  21.499  0.00  0.00    +0.000 OA
ATOM     13  C   UNL     1       1.327   2.465  21.998  0.00  0.00    +0.000 C 
ATOM     14  O   UNL     1       2.627   1.994  21.598  0.00  0.00    +0.000 OA
ENDROOT
BRANCH   4  15
ATOM     15  C   UNL     1       6.662   6.014  15.573  0.00  0.00    +0.000 C 
ATOM     16  O   UNL     1       7.807   6.352  15.855  0.00  0.00    +0.000 OA
BRANCH  15  17
ATOM     17  C   UNL     1       6.479   5.043  14.459  0.00  0.00    +0.000 A 
ATOM     18  C   UNL     1       5.354   4.218  14.327  0.00  0.00    +0.000 A 
ATOM     19  C   UNL     1       5.258   3.341  13.239  0.00  0.00    +0.000 A 
ATOM     20  C   UNL     1       6.273   3.294  12.283  0.00  0.00    +0.000 A 
ATOM     21 CL   UNL     1       6.147   2.214  10.950  0.00  0.00    +0.000 Cl
ATOM     22  C   UNL     1       7.385   4.122  12.394  0.00  0.00    +0.000 A 
ATOM     23  C   UNL     1       7.485   4.996  13.479  0.00  0.00    +0.000 A 
ENDBRANCH  15  17
ENDBRANCH   4  15
TORSDOF 2
ENDMDL
MODEL 9
REMARK VINA RESULT:      -6.8      2.469      3.310
REMARK  Name = 
REMARK  3 active torsions:
REMARK  status: ('A' for Active; 'I' for Inactive)
REMARK    1  A    between atoms: C_1  and  N_2
REMARK    2  A    between atoms: C_4  and  C_5
REMARK    3  A    between atoms: C_5  and  C_7
REMARK                            x       y       z     vdW  Elec       q    Type
REMARK                         _______ _______ _______ _____ _____    ______ ____
ROOT
ATOM      1  C   UNL     1       1.938   9.945  17.838  0.00  0.00    +0.000 C 
ATOM      2  N   UNL     1       1.710   9.038  18.948  0.00  0.00    +0.000 N 
ATOM      3  C   UNL     1       1.062   9.291  20.174  0.00  0.00    +0.000 C 
ATOM      4  C   UNL     1       0.503  10.454  20.566  0.00  0.00    +0.000 C 
ATOM      5  S   UNL     1       1.022   7.858  21.244  0.00  0.00    +0.000 S 
ATOM      6  C   UNL     1       2.013   6.969  20.068  0.00  0.00    +0.000 A 
ATOM      7  C   UNL     1       2.503   5.684  20.258  0.00  0.00    +0.000 A 
ATOM      8  C   UNL     1       3.281   5.186  19.242  0.00  0.00    +0.000 A 
ATOM      9  C   UNL     1       3.547   5.913  18.095  0.00  0.00    +0.000 A 
ATOM     10  C   UNL     1       3.054   7.188  17.888  0.00  0.00    +0.000 A 
ATOM     11  C   UNL     1       2.278   7.742  18.903  0.00  0.00    +0.000 A 
ATOM     12  O   UNL     1       4.349   5.221  17.235  0.00  0.00    +0.000 OA
ATOM     13  C   UNL     1       4.636   4.040  18.015  0.00  0.00    +0.000 C 
ATOM     14  O   UNL     1       3.883   3.966  19.240  0.00  0.00    +0.000 OA
ENDROOT
BRANCH   4  15
ATOM     15  C   UNL     1      -0.093  10.734  21.908  0.00  0.00    +0.000 C 
ATOM     16  O   UNL     1       0.441  10.403  22.961  0.00  0.00    +0.000 OA
BRANCH  15  17
ATOM     17  C   UNL     1      -1.338  11.548  21.988  0.00  0.00    +0.000 A 
ATOM     18  C   UNL     1      -1.894  12.223  20.893  0.00  0.00    +0.000 A 
ATOM     19  C   UNL     1      -3.076  12.957  21.055  0.00  0.00    +0.000 A 
ATOM     20  C   UNL     1      -3.706  13.008  22.299  0.00  0.00    +0.000 A 
ATOM     21 CL   UNL     1      -5.157  13.911  22.489  0.00  0.00    +0.000 Cl
ATOM     22  C   UNL     1      -3.173  12.326  23.388  0.00  0.00    +0.000 A 
ATOM     23  C   UNL     1      -1.994  11.596  23.230  0.00  0.00    +0.000 A 
ENDBRANCH  15  17
ENDBRANCH   4  15
TORSDOF 2
ENDMDL
