MODEL 1
REMARK VINA RESULT:      -7.8      0.000      0.000
REMARK  Name = 
REMARK  5 active torsions:
REMARK  status: ('A' for Active; 'I' for Inactive)
REMARK    1  A    between atoms: C_1  and  O_2
REMARK    2  A    between atoms: O_2  and  C_3
REMARK    3  A    between atoms: C_6  and  N_7
REMARK    4  A    between atoms: C_8  and  C_9
REMARK    5  A    between atoms: C_12  and  C_13
REMARK                            x       y       z     vdW  Elec       q    Type
REMARK                         _______ _______ _______ _____ _____    ______ ____
ROOT
ATOM      1  N   UNL     1       3.636   4.218  19.538  0.00  0.00    +0.000 N 
ATOM      2  C   UNL     1       3.564   3.022  20.260  0.00  0.00    +0.000 A 
ATOM      3  C   UNL     1       4.501   1.861  20.159  0.00  0.00    +0.000 C 
ATOM      4  C   UNL     1       2.540   3.130  21.179  0.00  0.00    +0.000 A 
ATOM      5  C   UNL     1       1.973   4.403  21.043  0.00  0.00    +0.000 A 
ATOM      6  C   UNL     1       2.628   5.084  20.024  0.00  0.00    +0.000 A 
ENDROOT
BRANCH   1  10
ATOM      7  C   UNL     1       6.444   5.237  16.631  0.00  0.00    +0.000 A 
ATOM      8  C   UNL     1       5.348   4.484  16.235  0.00  0.00    +0.000 A 
ATOM      9  C   UNL     1       4.401   4.133  17.196  0.00  0.00    +0.000 A 
ATOM     10  C   UNL     1       4.594   4.520  18.527  0.00  0.00    +0.000 A 
ATOM     11  C   UNL     1       5.744   5.241  18.824  0.00  0.00    +0.000 A 
ATOM     12  N   UNL     1       6.663   5.619  17.905  0.00  0.00    +0.000 NA
BRANCH   7  14
ATOM     13  C   UNL     1       7.091   4.919  14.412  0.00  0.00    +0.000 C 
ATOM     14  O   UNL     1       7.342   5.589  15.645  0.00  0.00    +0.000 OA
ENDBRANCH   7  14
ENDBRANCH   1  10
BRANCH   6  15
ATOM     15  C   UNL     1       2.279   6.437  19.533  0.00  0.00    +0.000 A 
ATOM     16  C   UNL     1       1.771   7.391  20.431  0.00  0.00    +0.000 A 
ATOM     17  C   UNL     1       1.483   8.696  20.018  0.00  0.00    +0.000 A 
ATOM     18  C   UNL     1       1.713   9.074  18.700  0.00  0.00    +0.000 A 
ATOM     19  C   UNL     1       2.182   8.135  17.786  0.00  0.00    +0.000 A 
ATOM     20  C   UNL     1       2.422   6.817  18.192  0.00  0.00    +0.000 A 
ENDBRANCH   6  15
TORSDOF 3
ENDMDL
MODEL 2
REMARK VINA RESULT:      -7.7      0.154      1.085
REMARK  Name = 
REMARK  5 active torsions:
REMARK  status: ('A' for Active; 'I' for Inactive)
REMARK    1  A    between atoms: C_1  and  O_2
REMARK    2  A    between atoms: O_2  and  C_3
REMARK    3  A    between atoms: C_6  and  N_7
REMARK    4  A    between atoms: C_8  and  C_9
REMARK    5  A    between atoms: C_12  and  C_13
REMARK                            x       y       z     vdW  Elec       q    Type
REMARK                         _______ _______ _______ _____ _____    ______ ____
ROOT
ATOM      1  N   UNL     1       3.575   4.355  19.521  0.00  0.00    +0.000 N 
ATOM      2  C   UNL     1       3.467   3.151  20.224  0.00  0.00    +0.000 A 
ATOM      3  C   UNL     1       4.368   1.964  20.104  0.00  0.00    +0.000 C 
ATOM      4  C   UNL     1       2.449   3.277  21.147  0.00  0.00    +0.000 A 
ATOM      5  C   UNL     1       1.922   4.569  21.032  0.00  0.00    +0.000 A 
ATOM      6  C   UNL     1       2.596   5.245  20.023  0.00  0.00    +0.000 A 
ENDROOT
BRANCH   1  10
ATOM      7  C   UNL     1       6.408   5.331  16.623  0.00  0.00    +0.000 A 
ATOM      8  C   UNL     1       5.293   4.612  16.220  0.00  0.00    +0.000 A 
ATOM      9  C   UNL     1       4.337   4.275  17.178  0.00  0.00    +0.000 A 
ATOM     10  C   UNL     1       4.541   4.643  18.513  0.00  0.00    +0.000 A 
ATOM     11  C   UNL     1       5.709   5.331  18.817  0.00  0.00    +0.000 A 
ATOM     12  N   UNL     1       6.638   5.694  17.901  0.00  0.00    +0.000 NA
BRANCH   7  14
ATOM     13  C   UNL     1       7.090   4.964  14.423  0.00  0.00    +0.000 C 
ATOM     14  O   UNL     1       7.315   5.670  15.640  0.00  0.00    +0.000 OA
ENDBRANCH   7  14
ENDBRANCH   1  10
BRANCH   6  15
ATOM     15  C   UNL     1       2.290   6.616  19.554  0.00  0.00    +0.000 A 
ATOM     16  C   UNL     1       2.490   6.948  18.203  0.00  0.00    +0.000 A 
ATOM     17  C   UNL     1       2.159   8.215  17.711  0.00  0.00    +0.000 A 
ATOM     18  C   UNL     1       1.608   9.169  18.559  0.00  0.00    +0.000 A 
ATOM     19  C   UNL     1       1.435   8.873  19.908  0.00  0.00    +0.000 A 
ATOM     20  C   UNL     1       1.813   7.620  20.407  0.00  0.00    +0.000 A 
ENDBRANCH   6  15
TORSDOF 3
ENDMDL
MODEL 3
REMARK VINA RESULT:      -7.7      0.660      1.098
REMARK  Name = 
REMARK  5 active torsions:
REMARK  status: ('A' for Active; 'I' for Inactive)
REMARK    1  A    between atoms: C_1  and  O_2
REMARK    2  A    between atoms: O_2  and  C_3
REMARK    3  A    between atoms: C_6  and  N_7
REMARK    4  A    between atoms: C_8  and  C_9
REMARK    5  A    between atoms: C_12  and  C_13
REMARK                            x       y       z     vdW  Elec       q    Type
REMARK                         _______ _______ _______ _____ _____    ______ ____
ROOT
ATOM      1  N   UNL     1       3.677   4.120  19.641  0.00  0.00    +0.000 N 
ATOM      2  C   UNL     1       3.583   2.934  20.377  0.00  0.00    +0.000 A 
ATOM      3  C   UNL     1       4.523   1.773  20.322  0.00  0.00    +0.000 C 
ATOM      4  C   UNL     1       2.529   3.053  21.260  0.00  0.00    +0.000 A 
ATOM      5  C   UNL     1       1.967   4.324  21.089  0.00  0.00    +0.000 A 
ATOM      6  C   UNL     1       2.654   4.992  20.083  0.00  0.00    +0.000 A 
ENDROOT
BRANCH   1  10
ATOM      7  C   UNL     1       6.572   4.830  16.727  0.00  0.00    +0.000 A 
ATOM      8  C   UNL     1       6.782   5.362  17.989  0.00  0.00    +0.000 A 
ATOM      9  C   UNL     1       5.822   5.136  18.975  0.00  0.00    +0.000 A 
ATOM     10  C   UNL     1       4.668   4.410  18.659  0.00  0.00    +0.000 A 
ATOM     11  C   UNL     1       4.538   3.951  17.354  0.00  0.00    +0.000 A 
ATOM     12  N   UNL     1       5.469   4.132  16.387  0.00  0.00    +0.000 NA
BRANCH   7  14
ATOM     13  C   UNL     1       7.104   4.833  14.456  0.00  0.00    +0.000 C 
ATOM     14  O   UNL     1       7.559   5.050  15.789  0.00  0.00    +0.000 OA
ENDBRANCH   7  14
ENDBRANCH   1  10
BRANCH   6  15
ATOM     15  C   UNL     1       2.321   6.338  19.563  0.00  0.00    +0.000 A 
ATOM     16  C   UNL     1       1.790   7.306  20.433  0.00  0.00    +0.000 A 
ATOM     17  C   UNL     1       1.516   8.605  19.993  0.00  0.00    +0.000 A 
ATOM     18  C   UNL     1       1.782   8.964  18.676  0.00  0.00    +0.000 A 
ATOM     19  C   UNL     1       2.274   8.011  17.789  0.00  0.00    +0.000 A 
ATOM     20  C   UNL     1       2.501   6.698  18.221  0.00  0.00    +0.000 A 
ENDBRANCH   6  15
TORSDOF 3
ENDMDL
MODEL 4
REMARK VINA RESULT:      -7.6      0.638      1.528
REMARK  Name = 
REMARK  5 active torsions:
REMARK  status: ('A' for Active; 'I' for Inactive)
REMARK    1  A    between atoms: C_1  and  O_2
REMARK    2  A    between atoms: O_2  and  C_3
REMARK    3  A    between atoms: C_6  and  N_7
REMARK    4  A    between atoms: C_8  and  C_9
REMARK    5  A    between atoms: C_12  and  C_13
REMARK                            x       y       z     vdW  Elec       q    Type
REMARK                         _______ _______ _______ _____ _____    ______ ____
ROOT
ATOM      1  N   UNL     1       3.615   4.282  19.595  0.00  0.00    +0.000 N 
ATOM      2  C   UNL     1       3.484   3.081  20.302  0.00  0.00    +0.000 A 
ATOM      3  C   UNL     1       4.388   1.894  20.221  0.00  0.00    +0.000 C 
ATOM      4  C   UNL     1       2.433   3.212  21.188  0.00  0.00    +0.000 A 
ATOM      5  C   UNL     1       1.910   4.503  21.046  0.00  0.00    +0.000 A 
ATOM      6  C   UNL     1       2.618   5.173  20.057  0.00  0.00    +0.000 A 
ENDROOT
BRANCH   1  10
ATOM      7  C   UNL     1       6.534   4.971  16.701  0.00  0.00    +0.000 A 
ATOM      8  C   UNL     1       6.754   5.477  17.973  0.00  0.00    +0.000 A 
ATOM      9  C   UNL     1       5.786   5.257  18.952  0.00  0.00    +0.000 A 
ATOM     10  C   UNL     1       4.616   4.564  18.620  0.00  0.00    +0.000 A 
ATOM     11  C   UNL     1       4.478   4.131  17.307  0.00  0.00    +0.000 A 
ATOM     12  N   UNL     1       5.416   4.306  16.347  0.00  0.00    +0.000 NA
BRANCH   7  14
ATOM     13  C   UNL     1       7.112   4.867  14.443  0.00  0.00    +0.000 C 
ATOM     14  O   UNL     1       7.529   5.184  15.769  0.00  0.00    +0.000 OA
ENDBRANCH   7  14
ENDBRANCH   1  10
BRANCH   6  15
ATOM     15  C   UNL     1       2.327   6.541  19.569  0.00  0.00    +0.000 A 
ATOM     16  C   UNL     1       2.561   6.861  18.221  0.00  0.00    +0.000 A 
ATOM     17  C   UNL     1       2.246   8.124  17.709  0.00  0.00    +0.000 A 
ATOM     18  C   UNL     1       1.678   9.087  18.536  0.00  0.00    +0.000 A 
ATOM     19  C   UNL     1       1.472   8.803  19.883  0.00  0.00    +0.000 A 
ATOM     20  C   UNL     1       1.834   7.554  20.402  0.00  0.00    +0.000 A 
ENDBRANCH   6  15
TORSDOF 3
ENDMDL
MODEL 5
REMARK VINA RESULT:      -7.3      1.321      1.850
REMARK  Name = 
REMARK  5 active torsions:
REMARK  status: ('A' for Active; 'I' for Inactive)
REMARK    1  A    between atoms: C_1  and  O_2
REMARK    2  A    between atoms: O_2  and  C_3
REMARK    3  A    between atoms: C_6  and  N_7
REMARK    4  A    between atoms: C_8  and  C_9
REMARK    5  A    between atoms: C_12  and  C_13
REMARK                            x       y       z     vdW  Elec       q    Type
REMARK                         _______ _______ _______ _____ _____    ______ ____
ROOT
ATOM      1  N   UNL     1       3.025   4.040  18.875  0.00  0.00    +0.000 N 
ATOM      2  C   UNL     1       2.717   2.675  18.866  0.00  0.00    +0.000 A 
ATOM      3  C   UNL     1       3.599   1.565  18.391  0.00  0.00    +0.000 C 
ATOM      4  C   UNL     1       1.495   2.501  19.483  0.00  0.00    +0.000 A 
ATOM      5  C   UNL     1       1.037   3.759  19.892  0.00  0.00    +0.000 A 
ATOM      6  C   UNL     1       1.962   4.723  19.513  0.00  0.00    +0.000 A 
ENDROOT
BRANCH   1  10
ATOM      7  C   UNL     1       6.531   5.839  17.519  0.00  0.00    +0.000 A 
ATOM      8  C   UNL     1       5.554   5.540  16.582  0.00  0.00    +0.000 A 
ATOM      9  C   UNL     1       4.376   4.935  17.018  0.00  0.00    +0.000 A 
ATOM     10  C   UNL     1       4.225   4.623  18.375  0.00  0.00    +0.000 A 
ATOM     11  C   UNL     1       5.279   4.931  19.225  0.00  0.00    +0.000 A 
ATOM     12  N   UNL     1       6.420   5.544  18.830  0.00  0.00    +0.000 NA
BRANCH   7  14
ATOM     13  C   UNL     1       7.742   7.831  17.444  0.00  0.00    +0.000 C 
ATOM     14  O   UNL     1       7.669   6.463  17.051  0.00  0.00    +0.000 OA
ENDBRANCH   7  14
ENDBRANCH   1  10
BRANCH   6  15
ATOM     15  C   UNL     1       1.811   6.183  19.709  0.00  0.00    +0.000 A 
ATOM     16  C   UNL     1       2.071   7.058  18.640  0.00  0.00    +0.000 A 
ATOM     17  C   UNL     1       1.885   8.438  18.770  0.00  0.00    +0.000 A 
ATOM     18  C   UNL     1       1.420   8.968  19.968  0.00  0.00    +0.000 A 
ATOM     19  C   UNL     1       1.191   8.123  21.051  0.00  0.00    +0.000 A 
ATOM     20  C   UNL     1       1.426   6.748  20.932  0.00  0.00    +0.000 A 
ENDBRANCH   6  15
TORSDOF 3
ENDMDL
MODEL 6
REMARK VINA RESULT:      -7.3      2.680      5.300
REMARK  Name = 
REMARK  5 active torsions:
REMARK  status: ('A' for Active; 'I' for Inactive)
REMARK    1  A    between atoms: C_1  and  O_2
REMARK    2  A    between atoms: O_2  and  C_3
REMARK    3  A    between atoms: C_6  and  N_7
REMARK    4  A    between atoms: C_8  and  C_9
REMARK    5  A    between atoms: C_12  and  C_13
REMARK                            x       y       z     vdW  Elec       q    Type
REMARK                         _______ _______ _______ _____ _____    ______ ____
ROOT
ATOM      1  N   UNL     1       3.076   4.696  18.498  0.00  0.00    +0.000 N 
ATOM      2  C   UNL     1       2.299   3.554  18.276  0.00  0.00    +0.000 A 
ATOM      3  C   UNL     1       0.827   3.420  18.496  0.00  0.00    +0.000 C 
ATOM      4  C   UNL     1       3.102   2.588  17.703  0.00  0.00    +0.000 A 
ATOM      5  C   UNL     1       4.384   3.129  17.552  0.00  0.00    +0.000 A 
ATOM      6  C   UNL     1       4.391   4.425  18.051  0.00  0.00    +0.000 A 
ENDROOT
BRANCH   1  10
ATOM      7  C   UNL     1       1.579   8.234  20.116  0.00  0.00    +0.000 A 
ATOM      8  C   UNL     1       2.034   8.264  18.807  0.00  0.00    +0.000 A 
ATOM      9  C   UNL     1       2.541   7.090  18.251  0.00  0.00    +0.000 A 
ATOM     10  C   UNL     1       2.603   5.930  19.032  0.00  0.00    +0.000 A 
ATOM     11  C   UNL     1       2.155   6.016  20.344  0.00  0.00    +0.000 A 
ATOM     12  N   UNL     1       1.632   7.137  20.897  0.00  0.00    +0.000 NA
BRANCH   7  14
ATOM     13  C   UNL     1       0.493  10.233  19.603  0.00  0.00    +0.000 C 
ATOM     14  O   UNL     1       1.059   9.409  20.619  0.00  0.00    +0.000 OA
ENDBRANCH   7  14
ENDBRANCH   1  10
BRANCH   6  15
ATOM     15  C   UNL     1       5.577   5.309  18.130  0.00  0.00    +0.000 A 
ATOM     16  C   UNL     1       6.445   5.208  19.230  0.00  0.00    +0.000 A 
ATOM     17  C   UNL     1       7.605   5.985  19.313  0.00  0.00    +0.000 A 
ATOM     18  C   UNL     1       7.925   6.868  18.288  0.00  0.00    +0.000 A 
ATOM     19  C   UNL     1       7.060   7.010  17.207  0.00  0.00    +0.000 A 
ATOM     20  C   UNL     1       5.875   6.266  17.151  0.00  0.00    +0.000 A 
ENDBRANCH   6  15
TORSDOF 3
ENDMDL
MODEL 7
REMARK VINA RESULT:      -7.2      1.315      1.527
REMARK  Name = 
REMARK  5 active torsions:
REMARK  status: ('A' for Active; 'I' for Inactive)
REMARK    1  A    between atoms: C_1  and  O_2
REMARK    2  A    between atoms: O_2  and  C_3
REMARK    3  A    between atoms: C_6  and  N_7
REMARK    4  A    between atoms: C_8  and  C_9
REMARK    5  A    between atoms: C_12  and  C_13
REMARK                            x       y       z     vdW  Elec       q    Type
REMARK                         _______ _______ _______ _____ _____    ______ ____
ROOT
ATOM      1  N   UNL     1       3.135   3.958  18.749  0.00  0.00    +0.000 N 
ATOM      2  C   UNL     1       2.880   2.582  18.761  0.00  0.00    +0.000 A 
ATOM      3  C   UNL     1       3.800   1.500  18.295  0.00  0.00    +0.000 C 
ATOM      4  C   UNL     1       1.669   2.371  19.389  0.00  0.00    +0.000 A 
ATOM      5  C   UNL     1       1.167   3.616  19.784  0.00  0.00    +0.000 A 
ATOM      6  C   UNL     1       2.052   4.609  19.384  0.00  0.00    +0.000 A 
ENDROOT
BRANCH   1  10
ATOM      7  C   UNL     1       6.561   5.869  17.341  0.00  0.00    +0.000 A 
ATOM      8  C   UNL     1       5.592   5.516  16.415  0.00  0.00    +0.000 A 
ATOM      9  C   UNL     1       4.441   4.873  16.869  0.00  0.00    +0.000 A 
ATOM     10  C   UNL     1       4.309   4.578  18.231  0.00  0.00    +0.000 A 
ATOM     11  C   UNL     1       5.355   4.943  19.070  0.00  0.00    +0.000 A 
ATOM     12  N   UNL     1       6.469   5.593  18.658  0.00  0.00    +0.000 NA
BRANCH   7  14
ATOM     13  C   UNL     1       7.809   7.839  17.401  0.00  0.00    +0.000 C 
ATOM     14  O   UNL     1       7.671   6.530  16.856  0.00  0.00    +0.000 OA
ENDBRANCH   7  14
ENDBRANCH   1  10
BRANCH   6  15
ATOM     15  C   UNL     1       1.847   6.065  19.561  0.00  0.00    +0.000 A 
ATOM     16  C   UNL     1       1.403   6.558  20.801  0.00  0.00    +0.000 A 
ATOM     17  C   UNL     1       1.251   7.930  21.024  0.00  0.00    +0.000 A 
ATOM     18  C   UNL     1       1.554   8.837  20.015  0.00  0.00    +0.000 A 
ATOM     19  C   UNL     1       1.960   8.369  18.768  0.00  0.00    +0.000 A 
ATOM     20  C   UNL     1       2.064   6.992  18.533  0.00  0.00    +0.000 A 
ENDBRANCH   6  15
TORSDOF 3
ENDMDL
MODEL 8
REMARK VINA RESULT:      -7.2      2.528      5.203
REMARK  Name = 
REMARK  5 active torsions:
REMARK  status: ('A' for Active; 'I' for Inactive)
REMARK    1  A    between atoms: C_1  and  O_2
REMARK    2  A    between atoms: O_2  and  C_3
REMARK    3  A    between atoms: C_6  and  N_7
REMARK    4  A    between atoms: C_8  and  C_9
REMARK    5  A    between atoms: C_12  and  C_13
REMARK                            x       y       z     vdW  Elec       q    Type
REMARK                         _______ _______ _______ _____ _____    ______ ____
ROOT
ATOM      1  N   UNL     1       3.065   5.037  19.377  0.00  0.00    +0.000 N 
ATOM      2  C   UNL     1       2.332   3.912  19.771  0.00  0.00    +0.000 A 
ATOM      3  C   UNL     1       0.875   3.869  20.105  0.00  0.00    +0.000 C 
ATOM      4  C   UNL     1       3.154   2.807  19.689  0.00  0.00    +0.000 A 
ATOM      5  C   UNL     1       4.406   3.236  19.230  0.00  0.00    +0.000 A 
ATOM      6  C   UNL     1       4.373   4.613  19.046  0.00  0.00    +0.000 A 
ENDROOT
BRANCH   1  10
ATOM      7  C   UNL     1       1.472   8.884  19.177  0.00  0.00    +0.000 A 
ATOM      8  C   UNL     1       1.897   8.299  17.994  0.00  0.00    +0.000 A 
ATOM      9  C   UNL     1       2.435   7.013  18.044  0.00  0.00    +0.000 A 
ATOM     10  C   UNL     1       2.557   6.365  19.279  0.00  0.00    +0.000 A 
ATOM     11  C   UNL     1       2.134   7.054  20.409  0.00  0.00    +0.000 A 
ATOM     12  N   UNL     1       1.582   8.291  20.383  0.00  0.00    +0.000 NA
BRANCH   7  14
ATOM     13  C   UNL     1      -0.081  10.378  20.069  0.00  0.00    +0.000 C 
ATOM     14  O   UNL     1       0.918  10.144  19.081  0.00  0.00    +0.000 OA
ENDBRANCH   7  14
ENDBRANCH   1  10
BRANCH   6  15
ATOM     15  C   UNL     1       5.521   5.451  18.629  0.00  0.00    +0.000 A 
ATOM     16  C   UNL     1       6.698   5.446  19.397  0.00  0.00    +0.000 A 
ATOM     17  C   UNL     1       7.823   6.179  19.006  0.00  0.00    +0.000 A 
ATOM     18  C   UNL     1       7.795   6.921  17.830  0.00  0.00    +0.000 A 
ATOM     19  C   UNL     1       6.627   6.969  17.074  0.00  0.00    +0.000 A 
ATOM     20  C   UNL     1       5.488   6.272  17.495  0.00  0.00    +0.000 A 
ENDBRANCH   6  15
TORSDOF 3
ENDMDL
MODEL 9
REMARK VINA RESULT:      -7.2      2.357      5.199
REMARK  Name = 
REMARK  5 active torsions:
REMARK  status: ('A' for Active; 'I' for Inactive)
REMARK    1  A    between atoms: C_1  and  O_2
REMARK    2  A    between atoms: O_2  and  C_3
REMARK    3  A    between atoms: C_6  and  N_7
REMARK    4  A    between atoms: C_8  and  C_9
REMARK    5  A    between atoms: C_12  and  C_13
REMARK                            x       y       z     vdW  Elec       q    Type
REMARK                         _______ _______ _______ _____ _____    ______ ____
ROOT
ATOM      1  N   UNL     1       2.954   4.620  19.225  0.00  0.00    +0.000 N 
ATOM      2  C   UNL     1       2.152   3.554  19.647  0.00  0.00    +0.000 A 
ATOM      3  C   UNL     1       0.721   3.628  20.074  0.00  0.00    +0.000 C 
ATOM      4  C   UNL     1       2.869   2.384  19.493  0.00  0.00    +0.000 A 
ATOM      5  C   UNL     1       4.121   2.714  18.962  0.00  0.00    +0.000 A 
ATOM      6  C   UNL     1       4.197   4.092  18.803  0.00  0.00    +0.000 A 
ENDROOT
BRANCH   1  10
ATOM      7  C   UNL     1       1.684   8.590  19.182  0.00  0.00    +0.000 A 
ATOM      8  C   UNL     1       2.085   8.027  17.980  0.00  0.00    +0.000 A 
ATOM      9  C   UNL     1       2.515   6.701  17.977  0.00  0.00    +0.000 A 
ATOM     10  C   UNL     1       2.558   5.989  19.182  0.00  0.00    +0.000 A 
ATOM     11  C   UNL     1       2.169   6.657  20.336  0.00  0.00    +0.000 A 
ATOM     12  N   UNL     1       1.721   7.935  20.360  0.00  0.00    +0.000 NA
BRANCH   7  14
ATOM     13  C   UNL     1       0.066  10.098  19.923  0.00  0.00    +0.000 C 
ATOM     14  O   UNL     1       1.238   9.894  19.137  0.00  0.00    +0.000 OA
ENDBRANCH   7  14
ENDBRANCH   1  10
BRANCH   6  15
ATOM     15  C   UNL     1       5.385   4.838  18.327  0.00  0.00    +0.000 A 
ATOM     16  C   UNL     1       5.598   4.996  16.947  0.00  0.00    +0.000 A 
ATOM     17  C   UNL     1       6.677   5.741  16.460  0.00  0.00    +0.000 A 
ATOM     18  C   UNL     1       7.555   6.354  17.346  0.00  0.00    +0.000 A 
ATOM     19  C   UNL     1       7.383   6.180  18.716  0.00  0.00    +0.000 A 
ATOM     20  C   UNL     1       6.331   5.393  19.199  0.00  0.00    +0.000 A 
ENDBRANCH   6  15
TORSDOF 3
ENDMDL
