MODEL 1
REMARK VINA RESULT:      -7.3      0.000      0.000
REMARK  Name = 
REMARK  3 active torsions:
REMARK  status: ('A' for Active; 'I' for Inactive)
REMARK    1  A    between atoms: C_8  and  O_9
REMARK    2  A    between atoms: O_9  and  C_10
REMARK    3  A    between atoms: C_14  and  C_15
REMARK                            x       y       z     vdW  Elec       q    Type
REMARK                         _______ _______ _______ _____ _____    ______ ____
ROOT
ATOM      1  C   UNL     1       7.754   7.021  17.826  0.00  0.00    +0.000 C 
ATOM      2  C   UNL     1       6.817   6.083  17.609  0.00  0.00    +0.000 C 
ATOM      3  C   UNL     1       7.163   4.680  17.928  0.00  0.00    +0.000 C 
ATOM      4  O   UNL     1       8.256   4.187  17.676  0.00  0.00    +0.000 OA
ATOM      5  O   UNL     1       6.160   3.980  18.586  0.00  0.00    +0.000 OA
ATOM      6  C   UNL     1       4.842   4.474  18.693  0.00  0.00    +0.000 A 
ATOM      7  C   UNL     1       3.966   3.754  19.509  0.00  0.00    +0.000 A 
ATOM      8  C   UNL     1       2.628   4.133  19.568  0.00  0.00    +0.000 A 
ATOM      9  C   UNL     1       2.191   5.228  18.815  0.00  0.00    +0.000 A 
ATOM     10  C   UNL     1       3.083   5.956  18.020  0.00  0.00    +0.000 A 
ATOM     11  C   UNL     1       4.428   5.587  17.964  0.00  0.00    +0.000 A 
ATOM     12  C   UNL     1       5.425   6.334  17.114  0.00  0.00    +0.000 C 
ATOM     13  C   UNL     1       5.285   5.941  15.641  0.00  0.00    +0.000 C 
ENDROOT
BRANCH   8  14
ATOM     14  O   UNL     1       1.650   3.518  20.300  0.00  0.00    +0.000 OA
ATOM     15  C   UNL     1       2.031   2.998  21.569  0.00  0.00    +0.000 C 
ENDBRANCH   8  14
TORSDOF 1
ENDMDL
MODEL 2
REMARK VINA RESULT:      -7.1      1.231      1.313
REMARK  Name = 
REMARK  3 active torsions:
REMARK  status: ('A' for Active; 'I' for Inactive)
REMARK    1  A    between atoms: C_8  and  O_9
REMARK    2  A    between atoms: O_9  and  C_10
REMARK    3  A    between atoms: C_14  and  C_15
REMARK                            x       y       z     vdW  Elec       q    Type
REMARK                         _______ _______ _______ _____ _____    ______ ____
ROOT
ATOM      1  C   UNL     1       6.488   6.862  17.133  0.00  0.00    +0.000 C 
ATOM      2  C   UNL     1       6.043   5.606  17.308  0.00  0.00    +0.000 C 
ATOM      3  C   UNL     1       6.719   4.773  18.327  0.00  0.00    +0.000 C 
ATOM      4  O   UNL     1       7.934   4.769  18.489  0.00  0.00    +0.000 OA
ATOM      5  O   UNL     1       5.856   4.033  19.124  0.00  0.00    +0.000 OA
ATOM      6  C   UNL     1       4.488   3.878  18.812  0.00  0.00    +0.000 A 
ATOM      7  C   UNL     1       3.694   3.242  19.769  0.00  0.00    +0.000 A 
ATOM      8  C   UNL     1       2.362   2.967  19.471  0.00  0.00    +0.000 A 
ATOM      9  C   UNL     1       1.847   3.338  18.224  0.00  0.00    +0.000 A 
ATOM     10  C   UNL     1       2.646   3.996  17.284  0.00  0.00    +0.000 A 
ATOM     11  C   UNL     1       3.980   4.283  17.579  0.00  0.00    +0.000 A 
ATOM     12  C   UNL     1       4.883   4.981  16.594  0.00  0.00    +0.000 C 
ATOM     13  C   UNL     1       5.362   4.008  15.514  0.00  0.00    +0.000 C 
ENDROOT
BRANCH   8  14
ATOM     14  O   UNL     1       1.469   2.336  20.292  0.00  0.00    +0.000 OA
ATOM     15  C   UNL     1       1.515   2.677  21.673  0.00  0.00    +0.000 C 
ENDBRANCH   8  14
TORSDOF 1
ENDMDL
MODEL 3
REMARK VINA RESULT:      -6.9      1.701      4.827
REMARK  Name = 
REMARK  3 active torsions:
REMARK  status: ('A' for Active; 'I' for Inactive)
REMARK    1  A    between atoms: C_8  and  O_9
REMARK    2  A    between atoms: O_9  and  C_10
REMARK    3  A    between atoms: C_14  and  C_15
REMARK                            x       y       z     vdW  Elec       q    Type
REMARK                         _______ _______ _______ _____ _____    ______ ____
ROOT
ATOM      1  C   UNL     1       2.957   1.952  18.000  0.00  0.00    +0.000 C 
ATOM      2  C   UNL     1       3.507   3.072  18.497  0.00  0.00    +0.000 C 
ATOM      3  C   UNL     1       4.615   2.922  19.468  0.00  0.00    +0.000 C 
ATOM      4  O   UNL     1       4.618   2.075  20.353  0.00  0.00    +0.000 OA
ATOM      5  O   UNL     1       5.679   3.790  19.257  0.00  0.00    +0.000 OA
ATOM      6  C   UNL     1       5.592   4.890  18.378  0.00  0.00    +0.000 A 
ATOM      7  C   UNL     1       6.773   5.595  18.136  0.00  0.00    +0.000 A 
ATOM      8  C   UNL     1       6.727   6.751  17.362  0.00  0.00    +0.000 A 
ATOM      9  C   UNL     1       5.501   7.178  16.840  0.00  0.00    +0.000 A 
ATOM     10  C   UNL     1       4.329   6.451  17.070  0.00  0.00    +0.000 A 
ATOM     11  C   UNL     1       4.370   5.286  17.837  0.00  0.00    +0.000 A 
ATOM     12  C   UNL     1       3.131   4.474  18.121  0.00  0.00    +0.000 C 
ATOM     13  C   UNL     1       2.291   5.132  19.217  0.00  0.00    +0.000 C 
ENDROOT
BRANCH   8  14
ATOM     14  O   UNL     1       7.789   7.556  17.055  0.00  0.00    +0.000 OA
ATOM     15  C   UNL     1       7.956   8.727  17.847  0.00  0.00    +0.000 C 
ENDBRANCH   8  14
TORSDOF 1
ENDMDL
MODEL 4
REMARK VINA RESULT:      -6.8      1.640      1.727
REMARK  Name = 
REMARK  3 active torsions:
REMARK  status: ('A' for Active; 'I' for Inactive)
REMARK    1  A    between atoms: C_8  and  O_9
REMARK    2  A    between atoms: O_9  and  C_10
REMARK    3  A    between atoms: C_14  and  C_15
REMARK                            x       y       z     vdW  Elec       q    Type
REMARK                         _______ _______ _______ _____ _____    ______ ____
ROOT
ATOM      1  C   UNL     1       7.135   7.514  17.467  0.00  0.00    +0.000 C 
ATOM      2  C   UNL     1       6.860   6.207  17.606  0.00  0.00    +0.000 C 
ATOM      3  C   UNL     1       7.311   5.537  18.847  0.00  0.00    +0.000 C 
ATOM      4  O   UNL     1       8.401   5.750  19.363  0.00  0.00    +0.000 OA
ATOM      5  O   UNL     1       6.370   4.683  19.408  0.00  0.00    +0.000 OA
ATOM      6  C   UNL     1       5.207   4.281  18.716  0.00  0.00    +0.000 A 
ATOM      7  C   UNL     1       4.267   3.548  19.441  0.00  0.00    +0.000 A 
ATOM      8  C   UNL     1       3.152   3.035  18.783  0.00  0.00    +0.000 A 
ATOM      9  C   UNL     1       2.997   3.271  17.413  0.00  0.00    +0.000 A 
ATOM     10  C   UNL     1       3.933   4.028  16.703  0.00  0.00    +0.000 A 
ATOM     11  C   UNL     1       5.048   4.552  17.358  0.00  0.00    +0.000 A 
ATOM     12  C   UNL     1       6.090   5.366  16.632  0.00  0.00    +0.000 C 
ATOM     13  C   UNL     1       7.026   4.457  15.830  0.00  0.00    +0.000 C 
ENDROOT
BRANCH   8  14
ATOM     14  O   UNL     1       2.160   2.283  19.349  0.00  0.00    +0.000 OA
ATOM     15  C   UNL     1       0.857   2.418  18.793  0.00  0.00    +0.000 C 
ENDBRANCH   8  14
TORSDOF 1
ENDMDL
MODEL 5
REMARK VINA RESULT:      -6.6      1.455      1.455
REMARK  Name = 
REMARK  3 active torsions:
REMARK  status: ('A' for Active; 'I' for Inactive)
REMARK    1  A    between atoms: C_8  and  O_9
REMARK    2  A    between atoms: O_9  and  C_10
REMARK    3  A    between atoms: C_14  and  C_15
REMARK                            x       y       z     vdW  Elec       q    Type
REMARK                         _______ _______ _______ _____ _____    ______ ____
ROOT
ATOM      1  C   UNL     1       7.534   6.562  18.163  0.00  0.00    +0.000 C 
ATOM      2  C   UNL     1       6.557   5.990  17.440  0.00  0.00    +0.000 C 
ATOM      3  C   UNL     1       6.839   4.674  16.822  0.00  0.00    +0.000 C 
ATOM      4  O   UNL     1       7.909   4.400  16.294  0.00  0.00    +0.000 OA
ATOM      5  O   UNL     1       5.804   3.756  16.939  0.00  0.00    +0.000 OA
ATOM      6  C   UNL     1       4.509   4.128  17.359  0.00  0.00    +0.000 A 
ATOM      7  C   UNL     1       3.600   3.093  17.584  0.00  0.00    +0.000 A 
ATOM      8  C   UNL     1       2.279   3.404  17.897  0.00  0.00    +0.000 A 
ATOM      9  C   UNL     1       1.894   4.747  17.985  0.00  0.00    +0.000 A 
ATOM     10  C   UNL     1       2.820   5.775  17.782  0.00  0.00    +0.000 A 
ATOM     11  C   UNL     1       4.147   5.469  17.477  0.00  0.00    +0.000 A 
ATOM     12  C   UNL     1       5.178   6.543  17.239  0.00  0.00    +0.000 C 
ATOM     13  C   UNL     1       5.025   7.142  15.839  0.00  0.00    +0.000 C 
ENDROOT
BRANCH   8  14
ATOM     14  O   UNL     1       1.273   2.506  18.122  0.00  0.00    +0.000 OA
ATOM     15  C   UNL     1       1.100   2.060  19.463  0.00  0.00    +0.000 C 
ENDBRANCH   8  14
TORSDOF 1
ENDMDL
MODEL 6
REMARK VINA RESULT:      -6.6      1.779      5.346
REMARK  Name = 
REMARK  3 active torsions:
REMARK  status: ('A' for Active; 'I' for Inactive)
REMARK    1  A    between atoms: C_8  and  O_9
REMARK    2  A    between atoms: O_9  and  C_10
REMARK    3  A    between atoms: C_14  and  C_15
REMARK                            x       y       z     vdW  Elec       q    Type
REMARK                         _______ _______ _______ _____ _____    ______ ____
ROOT
ATOM      1  C   UNL     1       1.402   4.015  20.551  0.00  0.00    +0.000 C 
ATOM      2  C   UNL     1       2.333   3.940  19.584  0.00  0.00    +0.000 C 
ATOM      3  C   UNL     1       1.895   4.171  18.189  0.00  0.00    +0.000 C 
ATOM      4  O   UNL     1       0.845   3.732  17.737  0.00  0.00    +0.000 OA
ATOM      5  O   UNL     1       2.752   4.975  17.448  0.00  0.00    +0.000 OA
ATOM      6  C   UNL     1       4.048   5.309  17.896  0.00  0.00    +0.000 A 
ATOM      7  C   UNL     1       4.752   6.246  17.136  0.00  0.00    +0.000 A 
ATOM      8  C   UNL     1       6.073   6.535  17.469  0.00  0.00    +0.000 A 
ATOM      9  C   UNL     1       6.663   5.885  18.559  0.00  0.00    +0.000 A 
ATOM     10  C   UNL     1       5.940   4.967  19.326  0.00  0.00    +0.000 A 
ATOM     11  C   UNL     1       4.612   4.680  19.004  0.00  0.00    +0.000 A 
ATOM     12  C   UNL     1       3.796   3.690  19.795  0.00  0.00    +0.000 C 
ATOM     13  C   UNL     1       4.168   2.254  19.417  0.00  0.00    +0.000 C 
ENDROOT
BRANCH   8  14
ATOM     14  O   UNL     1       6.895   7.408  16.812  0.00  0.00    +0.000 OA
ATOM     15  C   UNL     1       7.822   8.139  17.608  0.00  0.00    +0.000 C 
ENDBRANCH   8  14
TORSDOF 1
ENDMDL
MODEL 7
REMARK VINA RESULT:      -6.6      2.245      5.327
REMARK  Name = 
REMARK  3 active torsions:
REMARK  status: ('A' for Active; 'I' for Inactive)
REMARK    1  A    between atoms: C_8  and  O_9
REMARK    2  A    between atoms: O_9  and  C_10
REMARK    3  A    between atoms: C_14  and  C_15
REMARK                            x       y       z     vdW  Elec       q    Type
REMARK                         _______ _______ _______ _____ _____    ______ ____
ROOT
ATOM      1  C   UNL     1       2.212   5.323  20.733  0.00  0.00    +0.000 C 
ATOM      2  C   UNL     1       2.457   5.520  19.426  0.00  0.00    +0.000 C 
ATOM      3  C   UNL     1       2.613   6.916  18.959  0.00  0.00    +0.000 C 
ATOM      4  O   UNL     1       1.906   7.835  19.353  0.00  0.00    +0.000 OA
ATOM      5  O   UNL     1       3.665   7.107  18.073  0.00  0.00    +0.000 OA
ATOM      6  C   UNL     1       4.344   6.030  17.464  0.00  0.00    +0.000 A 
ATOM      7  C   UNL     1       5.479   6.345  16.716  0.00  0.00    +0.000 A 
ATOM      8  C   UNL     1       6.127   5.337  16.007  0.00  0.00    +0.000 A 
ATOM      9  C   UNL     1       5.630   4.030  16.066  0.00  0.00    +0.000 A 
ATOM     10  C   UNL     1       4.507   3.722  16.839  0.00  0.00    +0.000 A 
ATOM     11  C   UNL     1       3.858   4.727  17.559  0.00  0.00    +0.000 A 
ATOM     12  C   UNL     1       2.637   4.445  18.397  0.00  0.00    +0.000 C 
ATOM     13  C   UNL     1       1.392   4.313  17.516  0.00  0.00    +0.000 C 
ENDROOT
BRANCH   8  14
ATOM     14  O   UNL     1       7.232   5.493  15.217  0.00  0.00    +0.000 OA
ATOM     15  C   UNL     1       7.200   4.867  13.938  0.00  0.00    +0.000 C 
ENDBRANCH   8  14
TORSDOF 1
ENDMDL
MODEL 8
REMARK VINA RESULT:      -6.5      2.094      5.326
REMARK  Name = 
REMARK  3 active torsions:
REMARK  status: ('A' for Active; 'I' for Inactive)
REMARK    1  A    between atoms: C_8  and  O_9
REMARK    2  A    between atoms: O_9  and  C_10
REMARK    3  A    between atoms: C_14  and  C_15
REMARK                            x       y       z     vdW  Elec       q    Type
REMARK                         _______ _______ _______ _____ _____    ______ ____
ROOT
ATOM      1  C   UNL     1       2.292   3.874  21.521  0.00  0.00    +0.000 C 
ATOM      2  C   UNL     1       2.290   4.376  20.274  0.00  0.00    +0.000 C 
ATOM      3  C   UNL     1       2.216   5.847  20.126  0.00  0.00    +0.000 C 
ATOM      4  O   UNL     1       1.493   6.553  20.820  0.00  0.00    +0.000 OA
ATOM      5  O   UNL     1       3.076   6.369  19.169  0.00  0.00    +0.000 OA
ATOM      6  C   UNL     1       3.752   5.552  18.237  0.00  0.00    +0.000 A 
ATOM      7  C   UNL     1       4.704   6.176  17.429  0.00  0.00    +0.000 A 
ATOM      8  C   UNL     1       5.325   5.443  16.421  0.00  0.00    +0.000 A 
ATOM      9  C   UNL     1       4.985   4.097  16.245  0.00  0.00    +0.000 A 
ATOM     10  C   UNL     1       4.048   3.476  17.076  0.00  0.00    +0.000 A 
ATOM     11  C   UNL     1       3.429   4.203  18.094  0.00  0.00    +0.000 A 
ATOM     12  C   UNL     1       2.405   3.580  19.009  0.00  0.00    +0.000 C 
ATOM     13  C   UNL     1       1.049   3.465  18.307  0.00  0.00    +0.000 C 
ENDROOT
BRANCH   8  14
ATOM     14  O   UNL     1       6.257   5.917  15.540  0.00  0.00    +0.000 OA
ATOM     15  C   UNL     1       6.999   4.948  14.808  0.00  0.00    +0.000 C 
ENDBRANCH   8  14
TORSDOF 1
ENDMDL
MODEL 9
REMARK VINA RESULT:      -6.5      1.549      5.099
REMARK  Name = 
REMARK  3 active torsions:
REMARK  status: ('A' for Active; 'I' for Inactive)
REMARK    1  A    between atoms: C_8  and  O_9
REMARK    2  A    between atoms: O_9  and  C_10
REMARK    3  A    between atoms: C_14  and  C_15
REMARK                            x       y       z     vdW  Elec       q    Type
REMARK                         _______ _______ _______ _____ _____    ______ ____
ROOT
ATOM      1  C   UNL     1       0.665   2.920  20.013  0.00  0.00    +0.000 C 
ATOM      2  C   UNL     1       1.770   3.681  20.094  0.00  0.00    +0.000 C 
ATOM      3  C   UNL     1       2.946   3.114  20.792  0.00  0.00    +0.000 C 
ATOM      4  O   UNL     1       2.859   2.462  21.826  0.00  0.00    +0.000 OA
ATOM      5  O   UNL     1       4.155   3.337  20.146  0.00  0.00    +0.000 OA
ATOM      6  C   UNL     1       4.282   4.251  19.078  0.00  0.00    +0.000 A 
ATOM      7  C   UNL     1       5.510   4.272  18.414  0.00  0.00    +0.000 A 
ATOM      8  C   UNL     1       5.728   5.226  17.422  0.00  0.00    +0.000 A 
ATOM      9  C   UNL     1       4.712   6.136  17.111  0.00  0.00    +0.000 A 
ATOM     10  C   UNL     1       3.479   6.088  17.767  0.00  0.00    +0.000 A 
ATOM     11  C   UNL     1       3.250   5.129  18.755  0.00  0.00    +0.000 A 
ATOM     12  C   UNL     1       1.940   5.045  19.497  0.00  0.00    +0.000 C 
ATOM     13  C   UNL     1       1.855   6.131  20.572  0.00  0.00    +0.000 C 
ENDROOT
BRANCH   8  14
ATOM     14  O   UNL     1       6.879   5.386  16.701  0.00  0.00    +0.000 OA
ATOM     15  C   UNL     1       6.971   4.672  15.473  0.00  0.00    +0.000 C 
ENDBRANCH   8  14
TORSDOF 1
ENDMDL
