MODEL 1
REMARK VINA RESULT:      -6.9      0.000      0.000
REMARK  Name = 
REMARK  4 active torsions:
REMARK  status: ('A' for Active; 'I' for Inactive)
REMARK    1  A    between atoms: C_1  and  C_2
REMARK    2  A    between atoms: C_5  and  O_6
REMARK    3  A    between atoms: O_6  and  C_7
REMARK    4  A    between atoms: C_7  and  C_8
REMARK                            x       y       z     vdW  Elec       q    Type
REMARK                         _______ _______ _______ _____ _____    ______ ____
ROOT
ATOM      1  C   UNL     1       2.140   5.632  19.693  0.00  0.00    +0.000 C 
ATOM      2  O   UNL     1       2.093   5.817  20.916  0.00  0.00    +0.000 OA
ATOM      3  N   UNL     1       1.630   4.474  19.104  0.00  0.00    +0.000 N 
ATOM      4  C   UNL     1       0.876   3.568  19.956  0.00  0.00    +0.000 C 
ATOM      5  C   UNL     1       1.709   2.479  20.639  0.00  0.00    +0.000 C 
ATOM      6  C   UNL     1       3.235   2.588  20.556  0.00  0.00    +0.000 C 
ATOM      7  C   UNL     1       3.862   1.873  19.356  0.00  0.00    +0.000 C 
ATOM      8  C   UNL     1       3.743   2.554  17.990  0.00  0.00    +0.000 C 
ATOM      9  C   UNL     1       2.319   2.711  17.457  0.00  0.00    +0.000 C 
ATOM     10  C   UNL     1       1.748   4.113  17.690  0.00  0.00    +0.000 C 
ENDROOT
BRANCH   1  11
ATOM     11  C   UNL     1       2.788   6.690  18.808  0.00  0.00    +0.000 C 
BRANCH  11  12
ATOM     12  O   UNL     1       4.188   6.562  19.016  0.00  0.00    +0.000 OA
BRANCH  12  17
ATOM     13  C   UNL     1       7.158   4.705  14.583  0.00  0.00    +0.000 C 
ATOM     14  C   UNL     1       6.358   5.128  15.778  0.00  0.00    +0.000 A 
ATOM     15  C   UNL     1       5.224   5.927  15.624  0.00  0.00    +0.000 A 
ATOM     16  C   UNL     1       4.516   6.359  16.741  0.00  0.00    +0.000 A 
ATOM     17  C   UNL     1       4.923   5.992  18.025  0.00  0.00    +0.000 A 
ATOM     18  C   UNL     1       6.044   5.185  18.192  0.00  0.00    +0.000 A 
ATOM     19  C   UNL     1       6.761   4.758  17.070  0.00  0.00    +0.000 A 
ENDBRANCH  12  17
ENDBRANCH  11  12
ENDBRANCH   1  11
TORSDOF 3
ENDMDL
MODEL 2
REMARK VINA RESULT:      -6.9      0.149      1.115
REMARK  Name = 
REMARK  4 active torsions:
REMARK  status: ('A' for Active; 'I' for Inactive)
REMARK    1  A    between atoms: C_1  and  C_2
REMARK    2  A    between atoms: C_5  and  O_6
REMARK    3  A    between atoms: O_6  and  C_7
REMARK    4  A    between atoms: C_7  and  C_8
REMARK                            x       y       z     vdW  Elec       q    Type
REMARK                         _______ _______ _______ _____ _____    ______ ____
ROOT
ATOM      1  C   UNL     1       2.174   5.611  19.765  0.00  0.00    +0.000 C 
ATOM      2  O   UNL     1       2.098   5.781  20.989  0.00  0.00    +0.000 OA
ATOM      3  N   UNL     1       1.660   4.468  19.148  0.00  0.00    +0.000 N 
ATOM      4  C   UNL     1       0.868   3.566  19.968  0.00  0.00    +0.000 C 
ATOM      5  C   UNL     1       1.663   2.455  20.660  0.00  0.00    +0.000 C 
ATOM      6  C   UNL     1       3.193   2.537  20.619  0.00  0.00    +0.000 C 
ATOM      7  C   UNL     1       3.839   1.826  19.428  0.00  0.00    +0.000 C 
ATOM      8  C   UNL     1       3.769   2.525  18.067  0.00  0.00    +0.000 C 
ATOM      9  C   UNL     1       2.363   2.713  17.498  0.00  0.00    +0.000 C 
ATOM     10  C   UNL     1       1.810   4.122  17.734  0.00  0.00    +0.000 C 
ENDROOT
BRANCH   1  11
ATOM     11  C   UNL     1       2.864   6.667  18.911  0.00  0.00    +0.000 C 
BRANCH  11  12
ATOM     12  O   UNL     1       4.254   6.389  19.002  0.00  0.00    +0.000 OA
BRANCH  12  17
ATOM     13  C   UNL     1       7.106   4.701  14.425  0.00  0.00    +0.000 C 
ATOM     14  C   UNL     1       6.367   5.218  15.623  0.00  0.00    +0.000 A 
ATOM     15  C   UNL     1       6.709   4.786  16.906  0.00  0.00    +0.000 A 
ATOM     16  C   UNL     1       5.984   5.231  18.008  0.00  0.00    +0.000 A 
ATOM     17  C   UNL     1       4.919   6.117  17.848  0.00  0.00    +0.000 A 
ATOM     18  C   UNL     1       4.576   6.566  16.576  0.00  0.00    +0.000 A 
ATOM     19  C   UNL     1       5.298   6.112  15.466  0.00  0.00    +0.000 A 
ENDBRANCH  12  17
ENDBRANCH  11  12
ENDBRANCH   1  11
TORSDOF 3
ENDMDL
MODEL 3
REMARK VINA RESULT:      -6.8      2.245      4.869
REMARK  Name = 
REMARK  4 active torsions:
REMARK  status: ('A' for Active; 'I' for Inactive)
REMARK    1  A    between atoms: C_1  and  C_2
REMARK    2  A    between atoms: C_5  and  O_6
REMARK    3  A    between atoms: O_6  and  C_7
REMARK    4  A    between atoms: C_7  and  C_8
REMARK                            x       y       z     vdW  Elec       q    Type
REMARK                         _______ _______ _______ _____ _____    ______ ____
ROOT
ATOM      1  C   UNL     1       4.451   4.568  18.676  0.00  0.00    +0.000 C 
ATOM      2  O   UNL     1       5.016   4.127  17.667  0.00  0.00    +0.000 OA
ATOM      3  N   UNL     1       3.925   3.720  19.654  0.00  0.00    +0.000 N 
ATOM      4  C   UNL     1       4.224   2.301  19.536  0.00  0.00    +0.000 C 
ATOM      5  C   UNL     1       3.205   1.491  18.729  0.00  0.00    +0.000 C 
ATOM      6  C   UNL     1       2.136   2.260  17.947  0.00  0.00    +0.000 C 
ATOM      7  C   UNL     1       0.842   2.522  18.721  0.00  0.00    +0.000 C 
ATOM      8  C   UNL     1       0.864   3.632  19.775  0.00  0.00    +0.000 C 
ATOM      9  C   UNL     1       1.805   3.397  20.956  0.00  0.00    +0.000 C 
ATOM     10  C   UNL     1       3.137   4.140  20.813  0.00  0.00    +0.000 C 
ENDROOT
BRANCH   1  11
ATOM     11  C   UNL     1       4.308   6.074  18.848  0.00  0.00    +0.000 C 
BRANCH  11  12
ATOM     12  O   UNL     1       3.194   6.450  18.052  0.00  0.00    +0.000 OA
BRANCH  12  17
ATOM     13  C   UNL     1       0.233  10.618  20.461  0.00  0.00    +0.000 C 
ATOM     14  C   UNL     1       0.963   9.501  19.776  0.00  0.00    +0.000 A 
ATOM     15  C   UNL     1       1.393   8.388  20.500  0.00  0.00    +0.000 A 
ATOM     16  C   UNL     1       2.115   7.380  19.868  0.00  0.00    +0.000 A 
ATOM     17  C   UNL     1       2.407   7.463  18.506  0.00  0.00    +0.000 A 
ATOM     18  C   UNL     1       1.972   8.561  17.769  0.00  0.00    +0.000 A 
ATOM     19  C   UNL     1       1.255   9.579  18.406  0.00  0.00    +0.000 A 
ENDBRANCH  12  17
ENDBRANCH  11  12
ENDBRANCH   1  11
TORSDOF 3
ENDMDL
MODEL 4
REMARK VINA RESULT:      -6.8      2.373      4.829
REMARK  Name = 
REMARK  4 active torsions:
REMARK  status: ('A' for Active; 'I' for Inactive)
REMARK    1  A    between atoms: C_1  and  C_2
REMARK    2  A    between atoms: C_5  and  O_6
REMARK    3  A    between atoms: O_6  and  C_7
REMARK    4  A    between atoms: C_7  and  C_8
REMARK                            x       y       z     vdW  Elec       q    Type
REMARK                         _______ _______ _______ _____ _____    ______ ____
ROOT
ATOM      1  C   UNL     1       4.354   4.551  18.978  0.00  0.00    +0.000 C 
ATOM      2  O   UNL     1       4.978   4.249  17.953  0.00  0.00    +0.000 OA
ATOM      3  N   UNL     1       3.828   3.580  19.833  0.00  0.00    +0.000 N 
ATOM      4  C   UNL     1       4.194   2.196  19.575  0.00  0.00    +0.000 C 
ATOM      5  C   UNL     1       3.246   1.440  18.640  0.00  0.00    +0.000 C 
ATOM      6  C   UNL     1       2.176   2.248  17.899  0.00  0.00    +0.000 C 
ATOM      7  C   UNL     1       0.841   2.370  18.638  0.00  0.00    +0.000 C 
ATOM      8  C   UNL     1       0.771   3.356  19.806  0.00  0.00    +0.000 C 
ATOM      9  C   UNL     1       1.674   3.030  20.996  0.00  0.00    +0.000 C 
ATOM     10  C   UNL     1       2.976   3.837  20.994  0.00  0.00    +0.000 C 
ENDROOT
BRANCH   1  11
ATOM     11  C   UNL     1       4.137   6.023  19.307  0.00  0.00    +0.000 C 
BRANCH  11  12
ATOM     12  O   UNL     1       3.060   6.448  18.484  0.00  0.00    +0.000 OA
BRANCH  12  17
ATOM     13  C   UNL     1      -0.183  10.931  19.632  0.00  0.00    +0.000 C 
ATOM     14  C   UNL     1       0.725   9.765  19.377  0.00  0.00    +0.000 A 
ATOM     15  C   UNL     1       1.235   9.531  18.099  0.00  0.00    +0.000 A 
ATOM     16  C   UNL     1       2.035   8.418  17.859  0.00  0.00    +0.000 A 
ATOM     17  C   UNL     1       2.346   7.532  18.890  0.00  0.00    +0.000 A 
ATOM     18  C   UNL     1       1.856   7.760  20.172  0.00  0.00    +0.000 A 
ATOM     19  C   UNL     1       1.043   8.874  20.412  0.00  0.00    +0.000 A 
ENDBRANCH  12  17
ENDBRANCH  11  12
ENDBRANCH   1  11
TORSDOF 3
ENDMDL
MODEL 5
REMARK VINA RESULT:      -6.8      1.606      2.619
REMARK  Name = 
REMARK  4 active torsions:
REMARK  status: ('A' for Active; 'I' for Inactive)
REMARK    1  A    between atoms: C_1  and  C_2
REMARK    2  A    between atoms: C_5  and  O_6
REMARK    3  A    between atoms: O_6  and  C_7
REMARK    4  A    between atoms: C_7  and  C_8
REMARK                            x       y       z     vdW  Elec       q    Type
REMARK                         _______ _______ _______ _____ _____    ______ ____
ROOT
ATOM      1  C   UNL     1       4.963   5.357  18.982  0.00  0.00    +0.000 C 
ATOM      2  O   UNL     1       5.832   4.925  19.750  0.00  0.00    +0.000 OA
ATOM      3  N   UNL     1       3.605   5.105  19.191  0.00  0.00    +0.000 N 
ATOM      4  C   UNL     1       3.231   4.468  20.444  0.00  0.00    +0.000 C 
ATOM      5  C   UNL     1       3.190   2.938  20.405  0.00  0.00    +0.000 C 
ATOM      6  C   UNL     1       3.759   2.238  19.166  0.00  0.00    +0.000 C 
ATOM      7  C   UNL     1       2.741   1.980  18.053  0.00  0.00    +0.000 C 
ATOM      8  C   UNL     1       2.328   3.172  17.185  0.00  0.00    +0.000 C 
ATOM      9  C   UNL     1       1.599   4.297  17.919  0.00  0.00    +0.000 C 
ATOM     10  C   UNL     1       2.520   5.467  18.279  0.00  0.00    +0.000 C 
ENDROOT
BRANCH   1  11
ATOM     11  C   UNL     1       5.386   6.171  17.766  0.00  0.00    +0.000 C 
BRANCH  11  12
ATOM     12  O   UNL     1       6.574   5.559  17.286  0.00  0.00    +0.000 OA
BRANCH  12  17
ATOM     13  C   UNL     1       5.827   3.295  12.163  0.00  0.00    +0.000 C 
ATOM     14  C   UNL     1       6.090   3.862  13.525  0.00  0.00    +0.000 A 
ATOM     15  C   UNL     1       5.212   3.607  14.580  0.00  0.00    +0.000 A 
ATOM     16  C   UNL     1       5.435   4.180  15.829  0.00  0.00    +0.000 A 
ATOM     17  C   UNL     1       6.540   5.003  16.045  0.00  0.00    +0.000 A 
ATOM     18  C   UNL     1       7.431   5.255  15.006  0.00  0.00    +0.000 A 
ATOM     19  C   UNL     1       7.202   4.687  13.748  0.00  0.00    +0.000 A 
ENDBRANCH  12  17
ENDBRANCH  11  12
ENDBRANCH   1  11
TORSDOF 3
ENDMDL
MODEL 6
REMARK VINA RESULT:      -6.7      2.508      3.808
REMARK  Name = 
REMARK  4 active torsions:
REMARK  status: ('A' for Active; 'I' for Inactive)
REMARK    1  A    between atoms: C_1  and  C_2
REMARK    2  A    between atoms: C_5  and  O_6
REMARK    3  A    between atoms: O_6  and  C_7
REMARK    4  A    between atoms: C_7  and  C_8
REMARK                            x       y       z     vdW  Elec       q    Type
REMARK                         _______ _______ _______ _____ _____    ______ ____
ROOT
ATOM      1  C   UNL     1       4.435   3.433  18.199  0.00  0.00    +0.000 C 
ATOM      2  O   UNL     1       4.096   3.584  17.018  0.00  0.00    +0.000 OA
ATOM      3  N   UNL     1       3.733   2.590  19.063  0.00  0.00    +0.000 N 
ATOM      4  C   UNL     1       2.696   1.752  18.482  0.00  0.00    +0.000 C 
ATOM      5  C   UNL     1       1.298   2.377  18.458  0.00  0.00    +0.000 C 
ATOM      6  C   UNL     1       1.171   3.862  18.815  0.00  0.00    +0.000 C 
ATOM      7  C   UNL     1       0.929   4.145  20.299  0.00  0.00    +0.000 C 
ATOM      8  C   UNL     1       2.127   4.025  21.244  0.00  0.00    +0.000 C 
ATOM      9  C   UNL     1       2.731   2.626  21.363  0.00  0.00    +0.000 C 
ATOM     10  C   UNL     1       3.982   2.442  20.498  0.00  0.00    +0.000 C 
ENDROOT
BRANCH   1  11
ATOM     11  C   UNL     1       5.638   4.202  18.729  0.00  0.00    +0.000 C 
BRANCH  11  12
ATOM     12  O   UNL     1       6.222   4.833  17.598  0.00  0.00    +0.000 OA
BRANCH  12  17
ATOM     13  C   UNL     1       8.920   9.729  18.424  0.00  0.00    +0.000 C 
ATOM     14  C   UNL     1       8.141   8.464  18.221  0.00  0.00    +0.000 A 
ATOM     15  C   UNL     1       8.436   7.323  18.970  0.00  0.00    +0.000 A 
ATOM     16  C   UNL     1       7.745   6.138  18.740  0.00  0.00    +0.000 A 
ATOM     17  C   UNL     1       6.744   6.077  17.769  0.00  0.00    +0.000 A 
ATOM     18  C   UNL     1       6.430   7.210  17.024  0.00  0.00    +0.000 A 
ATOM     19  C   UNL     1       7.132   8.399  17.249  0.00  0.00    +0.000 A 
ENDBRANCH  12  17
ENDBRANCH  11  12
ENDBRANCH   1  11
TORSDOF 3
ENDMDL
MODEL 7
REMARK VINA RESULT:      -6.7      1.963      4.083
REMARK  Name = 
REMARK  4 active torsions:
REMARK  status: ('A' for Active; 'I' for Inactive)
REMARK    1  A    between atoms: C_1  and  C_2
REMARK    2  A    between atoms: C_5  and  O_6
REMARK    3  A    between atoms: O_6  and  C_7
REMARK    4  A    between atoms: C_7  and  C_8
REMARK                            x       y       z     vdW  Elec       q    Type
REMARK                         _______ _______ _______ _____ _____    ______ ____
ROOT
ATOM      1  C   UNL     1       4.111   3.503  17.934  0.00  0.00    +0.000 C 
ATOM      2  O   UNL     1       3.573   3.628  16.826  0.00  0.00    +0.000 OA
ATOM      3  N   UNL     1       3.673   2.555  18.861  0.00  0.00    +0.000 N 
ATOM      4  C   UNL     1       2.679   1.593  18.413  0.00  0.00    +0.000 C 
ATOM      5  C   UNL     1       1.224   2.019  18.630  0.00  0.00    +0.000 C 
ATOM      6  C   UNL     1       0.958   3.465  19.060  0.00  0.00    +0.000 C 
ATOM      7  C   UNL     1       0.916   3.684  20.574  0.00  0.00    +0.000 C 
ATOM      8  C   UNL     1       2.254   3.714  21.318  0.00  0.00    +0.000 C 
ATOM      9  C   UNL     1       3.051   2.409  21.287  0.00  0.00    +0.000 C 
ATOM     10  C   UNL     1       4.163   2.416  20.233  0.00  0.00    +0.000 C 
ENDROOT
BRANCH   1  11
ATOM     11  C   UNL     1       5.269   4.421  18.302  0.00  0.00    +0.000 C 
BRANCH  11  12
ATOM     12  O   UNL     1       4.751   5.331  19.262  0.00  0.00    +0.000 OA
BRANCH  12  17
ATOM     13  C   UNL     1       1.167   9.516  18.006  0.00  0.00    +0.000 C 
ATOM     14  C   UNL     1       2.096   8.372  18.279  0.00  0.00    +0.000 A 
ATOM     15  C   UNL     1       1.999   7.650  19.470  0.00  0.00    +0.000 A 
ATOM     16  C   UNL     1       2.898   6.622  19.739  0.00  0.00    +0.000 A 
ATOM     17  C   UNL     1       3.896   6.293  18.821  0.00  0.00    +0.000 A 
ATOM     18  C   UNL     1       3.996   6.996  17.624  0.00  0.00    +0.000 A 
ATOM     19  C   UNL     1       3.099   8.036  17.357  0.00  0.00    +0.000 A 
ENDBRANCH  12  17
ENDBRANCH  11  12
ENDBRANCH   1  11
TORSDOF 3
ENDMDL
MODEL 8
REMARK VINA RESULT:      -6.7      1.578      2.781
REMARK  Name = 
REMARK  4 active torsions:
REMARK  status: ('A' for Active; 'I' for Inactive)
REMARK    1  A    between atoms: C_1  and  C_2
REMARK    2  A    between atoms: C_5  and  O_6
REMARK    3  A    between atoms: O_6  and  C_7
REMARK    4  A    between atoms: C_7  and  C_8
REMARK                            x       y       z     vdW  Elec       q    Type
REMARK                         _______ _______ _______ _____ _____    ______ ____
ROOT
ATOM      1  C   UNL     1       4.405   4.896  18.950  0.00  0.00    +0.000 C 
ATOM      2  O   UNL     1       4.896   5.571  19.863  0.00  0.00    +0.000 OA
ATOM      3  N   UNL     1       3.032   4.893  18.693  0.00  0.00    +0.000 N 
ATOM      4  C   UNL     1       2.216   5.852  19.419  0.00  0.00    +0.000 C 
ATOM      5  C   UNL     1       1.652   5.345  20.750  0.00  0.00    +0.000 C 
ATOM      6  C   UNL     1       2.177   4.010  21.288  0.00  0.00    +0.000 C 
ATOM      7  C   UNL     1       1.378   2.783  20.843  0.00  0.00    +0.000 C 
ATOM      8  C   UNL     1       1.591   2.285  19.411  0.00  0.00    +0.000 C 
ATOM      9  C   UNL     1       1.169   3.257  18.309  0.00  0.00    +0.000 C 
ATOM     10  C   UNL     1       2.348   4.038  17.721  0.00  0.00    +0.000 C 
ENDROOT
BRANCH   1  11
ATOM     11  C   UNL     1       5.321   4.030  18.094  0.00  0.00    +0.000 C 
BRANCH  11  12
ATOM     12  O   UNL     1       6.065   4.932  17.289  0.00  0.00    +0.000 OA
BRANCH  12  17
ATOM     13  C   UNL     1       6.855   3.827  11.804  0.00  0.00    +0.000 C 
ATOM     14  C   UNL     1       6.586   4.158  13.241  0.00  0.00    +0.000 A 
ATOM     15  C   UNL     1       7.544   4.827  14.004  0.00  0.00    +0.000 A 
ATOM     16  C   UNL     1       7.309   5.085  15.351  0.00  0.00    +0.000 A 
ATOM     17  C   UNL     1       6.112   4.692  15.951  0.00  0.00    +0.000 A 
ATOM     18  C   UNL     1       5.142   4.037  15.199  0.00  0.00    +0.000 A 
ATOM     19  C   UNL     1       5.382   3.768  13.847  0.00  0.00    +0.000 A 
ENDBRANCH  12  17
ENDBRANCH  11  12
ENDBRANCH   1  11
TORSDOF 3
ENDMDL
MODEL 9
REMARK VINA RESULT:      -6.7      1.263      2.401
REMARK  Name = 
REMARK  4 active torsions:
REMARK  status: ('A' for Active; 'I' for Inactive)
REMARK    1  A    between atoms: C_1  and  C_2
REMARK    2  A    between atoms: C_5  and  O_6
REMARK    3  A    between atoms: O_6  and  C_7
REMARK    4  A    between atoms: C_7  and  C_8
REMARK                            x       y       z     vdW  Elec       q    Type
REMARK                         _______ _______ _______ _____ _____    ______ ____
ROOT
ATOM      1  C   UNL     1       4.092   5.488  19.086  0.00  0.00    +0.000 C 
ATOM      2  O   UNL     1       3.468   6.538  19.288  0.00  0.00    +0.000 OA
ATOM      3  N   UNL     1       3.442   4.302  18.738  0.00  0.00    +0.000 N 
ATOM      4  C   UNL     1       2.021   4.382  18.442  0.00  0.00    +0.000 C 
ATOM      5  C   UNL     1       1.096   4.170  19.644  0.00  0.00    +0.000 C 
ATOM      6  C   UNL     1       1.732   4.133  21.038  0.00  0.00    +0.000 C 
ATOM      7  C   UNL     1       2.150   2.740  21.514  0.00  0.00    +0.000 C 
ATOM      8  C   UNL     1       3.431   2.148  20.919  0.00  0.00    +0.000 C 
ATOM      9  C   UNL     1       3.395   1.886  19.413  0.00  0.00    +0.000 C 
ATOM     10  C   UNL     1       4.077   2.991  18.601  0.00  0.00    +0.000 C 
ENDROOT
BRANCH   1  11
ATOM     11  C   UNL     1       5.607   5.485  19.241  0.00  0.00    +0.000 C 
BRANCH  11  12
ATOM     12  O   UNL     1       6.103   6.325  18.208  0.00  0.00    +0.000 OA
BRANCH  12  17
ATOM     13  C   UNL     1       6.210   3.737  13.185  0.00  0.00    +0.000 C 
ATOM     14  C   UNL     1       6.197   4.486  14.484  0.00  0.00    +0.000 A 
ATOM     15  C   UNL     1       7.055   4.118  15.522  0.00  0.00    +0.000 A 
ATOM     16  C   UNL     1       7.001   4.785  16.742  0.00  0.00    +0.000 A 
ATOM     17  C   UNL     1       6.101   5.833  16.940  0.00  0.00    +0.000 A 
ATOM     18  C   UNL     1       5.249   6.218  15.909  0.00  0.00    +0.000 A 
ATOM     19  C   UNL     1       5.297   5.542  14.685  0.00  0.00    +0.000 A 
ENDBRANCH  12  17
ENDBRANCH  11  12
ENDBRANCH   1  11
TORSDOF 3
ENDMDL
