MODEL 1
REMARK VINA RESULT:      -8.2      0.000      0.000
REMARK  Name = 
REMARK  12 active torsions:
REMARK  status: ('A' for Active; 'I' for Inactive)
REMARK    1  A    between atoms: C_1  and  C_2
REMARK    2  A    between atoms: C_2  and  C_3
REMARK    3  A    between atoms: C_2  and  C_4
REMARK    4  A    between atoms: C_4  and  C_5
REMARK    5  A    between atoms: C_5  and  C_6
REMARK    6  A    between atoms: C_5  and  N_7
REMARK    7  A    between atoms: C_5  and  C_8
REMARK    8  A    between atoms: C_8  and  O_9
REMARK    9  A    between atoms: O_9  and  C_10
REMARK   10  A    between atoms: C_13  and  C_14
REMARK   11  A    between atoms: C_18  and  C_19
REMARK   12  A    between atoms: C_24  and  C_25
REMARK                            x       y       z     vdW  Elec       q    Type
REMARK                         _______ _______ _______ _____ _____    ______ ____
ROOT
ATOM      1  C   UNL     1       3.670   6.326  17.648  0.00  0.00    +0.000 A 
ATOM      2  C   UNL     1       3.486   7.639  17.210  0.00  0.00    +0.000 A 
ATOM      3  C   UNL     1       2.712   8.549  17.935  0.00  0.00    +0.000 A 
ATOM      4  C   UNL     1       2.040   8.180  19.106  0.00  0.00    +0.000 A 
ATOM      5  C   UNL     1       2.294   6.887  19.586  0.00  0.00    +0.000 A 
ATOM      6  C   UNL     1       3.125   5.962  18.891  0.00  0.00    +0.000 A 
ENDROOT
BRANCH   4   7
ATOM      7  C   UNL     1       1.091   9.114  19.761  0.00  0.00    +0.000 A 
ATOM      8  C   UNL     1       0.533  10.180  19.039  0.00  0.00    +0.000 A 
ATOM      9  C   UNL     1      -0.356  11.044  19.652  0.00  0.00    +0.000 A 
ATOM     10  N   UNL     1      -0.747  10.923  20.934  0.00  0.00    +0.000 NA
ATOM     11  C   UNL     1      -0.227   9.888  21.646  0.00  0.00    +0.000 A 
ATOM     12  C   UNL     1       0.687   8.980  21.096  0.00  0.00    +0.000 A 
BRANCH  11  13
ATOM     13  C   UNL     1      -0.670   9.722  23.082  0.00  0.00    +0.000 C 
ATOM     14  F   UNL     1       0.375   9.489  23.930  0.00  0.00    +0.000 F 
ATOM     15  F   UNL     1      -1.297  10.831  23.572  0.00  0.00    +0.000 F 
ENDBRANCH  11  13
ENDBRANCH   4   7
BRANCH   6  16
ATOM     16  C   UNL     1       3.397   4.649  19.579  0.00  0.00    +0.000 C 
ATOM     17  F   UNL     1       2.915   3.531  18.974  0.00  0.00    +0.000 F 
ATOM     18  F   UNL     1       4.744   4.431  19.719  0.00  0.00    +0.000 F 
ATOM     19  F   UNL     1       2.907   4.623  20.853  0.00  0.00    +0.000 F 
ENDBRANCH   6  16
BRANCH   1  20
ATOM     20  O   UNL     1       4.346   5.385  16.911  0.00  0.00    +0.000 OA
BRANCH  20  21
ATOM     21  C   UNL     1       5.266   5.862  15.894  0.00  0.00    +0.000 C 
BRANCH  21  22
ATOM     22  C   UNL     1       6.559   4.991  15.838  0.00  0.00    +0.000 C 
ATOM     23  C   UNL     1       6.161   3.540  15.494  0.00  0.00    +0.000 C 
BRANCH  22  24
ATOM     24  N   UNL     1       7.444   5.462  14.762  0.00  0.00    +0.000 NA
ATOM     25  H   UNL     1       7.868   6.345  15.042  0.00  0.00    +0.000 HD
ATOM     26  H   UNL     1       6.895   5.660  13.923  0.00  0.00    +0.000 HD
ENDBRANCH  22  24
BRANCH  22  27
ATOM     27  C   UNL     1       7.328   4.972  17.199  0.00  0.00    +0.000 C 
BRANCH  27  29
ATOM     28  C   UNL     1       7.905   5.753  19.523  0.00  0.00    +0.000 C 
ATOM     29  C   UNL     1       7.182   6.137  18.217  0.00  0.00    +0.000 C 
ATOM     30  C   UNL     1       7.759   7.472  17.741  0.00  0.00    +0.000 C 
ENDBRANCH  27  29
ENDBRANCH  22  27
ENDBRANCH  21  22
ENDBRANCH  20  21
ENDBRANCH   1  20
TORSDOF 9
ENDMDL
MODEL 2
REMARK VINA RESULT:      -7.9      1.228      1.739
REMARK  Name = 
REMARK  12 active torsions:
REMARK  status: ('A' for Active; 'I' for Inactive)
REMARK    1  A    between atoms: C_1  and  C_2
REMARK    2  A    between atoms: C_2  and  C_3
REMARK    3  A    between atoms: C_2  and  C_4
REMARK    4  A    between atoms: C_4  and  C_5
REMARK    5  A    between atoms: C_5  and  C_6
REMARK    6  A    between atoms: C_5  and  N_7
REMARK    7  A    between atoms: C_5  and  C_8
REMARK    8  A    between atoms: C_8  and  O_9
REMARK    9  A    between atoms: O_9  and  C_10
REMARK   10  A    between atoms: C_13  and  C_14
REMARK   11  A    between atoms: C_18  and  C_19
REMARK   12  A    between atoms: C_24  and  C_25
REMARK                            x       y       z     vdW  Elec       q    Type
REMARK                         _______ _______ _______ _____ _____    ______ ____
ROOT
ATOM      1  C   UNL     1       3.626   6.239  17.639  0.00  0.00    +0.000 A 
ATOM      2  C   UNL     1       3.387   7.580  17.337  0.00  0.00    +0.000 A 
ATOM      3  C   UNL     1       2.657   8.404  18.198  0.00  0.00    +0.000 A 
ATOM      4  C   UNL     1       2.086   7.917  19.379  0.00  0.00    +0.000 A 
ATOM      5  C   UNL     1       2.399   6.594  19.721  0.00  0.00    +0.000 A 
ATOM      6  C   UNL     1       3.188   5.754  18.883  0.00  0.00    +0.000 A 
ENDROOT
BRANCH   4   7
ATOM      7  C   UNL     1       1.175   8.766  20.187  0.00  0.00    +0.000 A 
ATOM      8  C   UNL     1       0.990   8.508  21.554  0.00  0.00    +0.000 A 
ATOM      9  C   UNL     1       0.145   9.307  22.303  0.00  0.00    +0.000 A 
ATOM     10  N   UNL     1      -0.526  10.359  21.798  0.00  0.00    +0.000 NA
ATOM     11  C   UNL     1      -0.349  10.632  20.478  0.00  0.00    +0.000 A 
ATOM     12  C   UNL     1       0.481   9.861  19.654  0.00  0.00    +0.000 A 
BRANCH  11  13
ATOM     13  C   UNL     1      -1.078  11.823  19.897  0.00  0.00    +0.000 C 
ATOM     14  F   UNL     1      -2.349  11.518  19.503  0.00  0.00    +0.000 F 
ATOM     15  F   UNL     1      -1.208  12.848  20.789  0.00  0.00    +0.000 F 
ENDBRANCH  11  13
ENDBRANCH   4   7
BRANCH   6  16
ATOM     16  C   UNL     1       3.536   4.392  19.428  0.00  0.00    +0.000 C 
ATOM     17  F   UNL     1       3.143   3.320  18.689  0.00  0.00    +0.000 F 
ATOM     18  F   UNL     1       4.892   4.249  19.579  0.00  0.00    +0.000 F 
ATOM     19  F   UNL     1       3.024   4.190  20.678  0.00  0.00    +0.000 F 
ENDBRANCH   6  16
BRANCH   1  20
ATOM     20  O   UNL     1       4.259   5.382  16.772  0.00  0.00    +0.000 OA
BRANCH  20  21
ATOM     21  C   UNL     1       5.260   5.945  15.882  0.00  0.00    +0.000 C 
BRANCH  21  22
ATOM     22  C   UNL     1       6.533   5.046  15.813  0.00  0.00    +0.000 C 
ATOM     23  C   UNL     1       6.099   3.604  15.473  0.00  0.00    +0.000 C 
BRANCH  22  24
ATOM     24  N   UNL     1       7.416   5.498  14.727  0.00  0.00    +0.000 NA
ATOM     25  H   UNL     1       7.020   5.209  13.834  0.00  0.00    +0.000 HD
ATOM     26  H   UNL     1       8.324   5.036  14.803  0.00  0.00    +0.000 HD
ENDBRANCH  22  24
BRANCH  22  27
ATOM     27  C   UNL     1       7.316   5.011  17.165  0.00  0.00    +0.000 C 
BRANCH  27  29
ATOM     28  C   UNL     1       7.928   5.771  19.488  0.00  0.00    +0.000 C 
ATOM     29  C   UNL     1       7.192   6.170  18.193  0.00  0.00    +0.000 C 
ATOM     30  C   UNL     1       7.775   7.503  17.719  0.00  0.00    +0.000 C 
ENDBRANCH  27  29
ENDBRANCH  22  27
ENDBRANCH  21  22
ENDBRANCH  20  21
ENDBRANCH   1  20
TORSDOF 9
ENDMDL
MODEL 3
REMARK VINA RESULT:      -7.8      3.725      8.570
REMARK  Name = 
REMARK  12 active torsions:
REMARK  status: ('A' for Active; 'I' for Inactive)
REMARK    1  A    between atoms: C_1  and  C_2
REMARK    2  A    between atoms: C_2  and  C_3
REMARK    3  A    between atoms: C_2  and  C_4
REMARK    4  A    between atoms: C_4  and  C_5
REMARK    5  A    between atoms: C_5  and  C_6
REMARK    6  A    between atoms: C_5  and  N_7
REMARK    7  A    between atoms: C_5  and  C_8
REMARK    8  A    between atoms: C_8  and  O_9
REMARK    9  A    between atoms: O_9  and  C_10
REMARK   10  A    between atoms: C_13  and  C_14
REMARK   11  A    between atoms: C_18  and  C_19
REMARK   12  A    between atoms: C_24  and  C_25
REMARK                            x       y       z     vdW  Elec       q    Type
REMARK                         _______ _______ _______ _____ _____    ______ ____
ROOT
ATOM      1  C   UNL     1       5.080   5.316  18.591  0.00  0.00    +0.000 A 
ATOM      2  C   UNL     1       6.250   4.625  18.271  0.00  0.00    +0.000 A 
ATOM      3  C   UNL     1       6.692   4.509  16.951  0.00  0.00    +0.000 A 
ATOM      4  C   UNL     1       5.961   5.032  15.878  0.00  0.00    +0.000 A 
ATOM      5  C   UNL     1       4.833   5.795  16.208  0.00  0.00    +0.000 A 
ATOM      6  C   UNL     1       4.397   5.972  17.553  0.00  0.00    +0.000 A 
ENDROOT
BRANCH   4   7
ATOM      7  C   UNL     1       6.363   4.747  14.477  0.00  0.00    +0.000 A 
ATOM      8  C   UNL     1       7.533   5.312  13.947  0.00  0.00    +0.000 A 
ATOM      9  C   UNL     1       7.906   5.038  12.643  0.00  0.00    +0.000 A 
ATOM     10  N   UNL     1       7.208   4.231  11.823  0.00  0.00    +0.000 NA
ATOM     11  C   UNL     1       6.078   3.665  12.324  0.00  0.00    +0.000 A 
ATOM     12  C   UNL     1       5.631   3.904  13.630  0.00  0.00    +0.000 A 
BRANCH  11  13
ATOM     13  C   UNL     1       5.291   2.739  11.425  0.00  0.00    +0.000 C 
ATOM     14  F   UNL     1       5.539   1.421  11.684  0.00  0.00    +0.000 F 
ATOM     15  F   UNL     1       3.941   2.891  11.564  0.00  0.00    +0.000 F 
ENDBRANCH  11  13
ENDBRANCH   4   7
BRANCH   6  16
ATOM     16  C   UNL     1       3.234   6.908  17.768  0.00  0.00    +0.000 C 
ATOM     17  F   UNL     1       1.991   6.358  17.717  0.00  0.00    +0.000 F 
ATOM     18  F   UNL     1       3.308   7.519  18.994  0.00  0.00    +0.000 F 
ATOM     19  F   UNL     1       3.224   7.934  16.868  0.00  0.00    +0.000 F 
ENDBRANCH   6  16
BRANCH   1  20
ATOM     20  O   UNL     1       4.572   5.367  19.866  0.00  0.00    +0.000 OA
BRANCH  20  21
ATOM     21  C   UNL     1       3.999   4.149  20.410  0.00  0.00    +0.000 C 
BRANCH  21  22
ATOM     22  C   UNL     1       2.482   4.325  20.731  0.00  0.00    +0.000 C 
ATOM     23  C   UNL     1       2.111   3.374  21.890  0.00  0.00    +0.000 C 
BRANCH  22  24
ATOM     24  N   UNL     1       2.216   5.694  21.196  0.00  0.00    +0.000 NA
ATOM     25  H   UNL     1       2.709   5.849  22.074  0.00  0.00    +0.000 HD
ATOM     26  H   UNL     1       1.221   5.804  21.401  0.00  0.00    +0.000 HD
ENDBRANCH  22  24
BRANCH  22  27
ATOM     27  C   UNL     1       1.568   3.982  19.510  0.00  0.00    +0.000 C 
BRANCH  27  29
ATOM     28  C   UNL     1       0.531   1.941  18.458  0.00  0.00    +0.000 C 
ATOM     29  C   UNL     1       1.844   2.731  18.630  0.00  0.00    +0.000 C 
ATOM     30  C   UNL     1       2.384   3.045  17.233  0.00  0.00    +0.000 C 
ENDBRANCH  27  29
ENDBRANCH  22  27
ENDBRANCH  21  22
ENDBRANCH  20  21
ENDBRANCH   1  20
TORSDOF 9
ENDMDL
MODEL 4
REMARK VINA RESULT:      -7.8      1.091      2.252
REMARK  Name = 
REMARK  12 active torsions:
REMARK  status: ('A' for Active; 'I' for Inactive)
REMARK    1  A    between atoms: C_1  and  C_2
REMARK    2  A    between atoms: C_2  and  C_3
REMARK    3  A    between atoms: C_2  and  C_4
REMARK    4  A    between atoms: C_4  and  C_5
REMARK    5  A    between atoms: C_5  and  C_6
REMARK    6  A    between atoms: C_5  and  N_7
REMARK    7  A    between atoms: C_5  and  C_8
REMARK    8  A    between atoms: C_8  and  O_9
REMARK    9  A    between atoms: O_9  and  C_10
REMARK   10  A    between atoms: C_13  and  C_14
REMARK   11  A    between atoms: C_18  and  C_19
REMARK   12  A    between atoms: C_24  and  C_25
REMARK                            x       y       z     vdW  Elec       q    Type
REMARK                         _______ _______ _______ _____ _____    ______ ____
ROOT
ATOM      1  C   UNL     1       3.635   5.868  17.975  0.00  0.00    +0.000 A 
ATOM      2  C   UNL     1       3.690   7.198  17.556  0.00  0.00    +0.000 A 
ATOM      3  C   UNL     1       2.923   8.190  18.174  0.00  0.00    +0.000 A 
ATOM      4  C   UNL     1       2.025   7.895  19.206  0.00  0.00    +0.000 A 
ATOM      5  C   UNL     1       2.035   6.576  19.679  0.00  0.00    +0.000 A 
ATOM      6  C   UNL     1       2.850   5.561  19.100  0.00  0.00    +0.000 A 
ENDROOT
BRANCH   4   7
ATOM      7  C   UNL     1       1.102   8.934  19.726  0.00  0.00    +0.000 A 
ATOM      8  C   UNL     1       0.601   9.930  18.873  0.00  0.00    +0.000 A 
ATOM      9  C   UNL     1      -0.264  10.892  19.362  0.00  0.00    +0.000 A 
ATOM     10  N   UNL     1      -0.684  10.935  20.640  0.00  0.00    +0.000 NA
ATOM     11  C   UNL     1      -0.219   9.971  21.479  0.00  0.00    +0.000 A 
ATOM     12  C   UNL     1       0.668   8.972  21.058  0.00  0.00    +0.000 A 
BRANCH  11  13
ATOM     13  C   UNL     1      -0.695   9.990  22.913  0.00  0.00    +0.000 C 
ATOM     14  F   UNL     1       0.196   9.412  23.770  0.00  0.00    +0.000 F 
ATOM     15  F   UNL     1      -0.889  11.256  23.388  0.00  0.00    +0.000 F 
ENDBRANCH  11  13
ENDBRANCH   4   7
BRANCH   6  16
ATOM     16  C   UNL     1       2.841   4.216  19.781  0.00  0.00    +0.000 C 
ATOM     17  F   UNL     1       2.023   4.085  20.859  0.00  0.00    +0.000 F 
ATOM     18  F   UNL     1       2.459   3.224  18.915  0.00  0.00    +0.000 F 
ATOM     19  F   UNL     1       4.083   3.846  20.209  0.00  0.00    +0.000 F 
ENDBRANCH   6  16
BRANCH   1  20
ATOM     20  O   UNL     1       4.304   4.857  17.330  0.00  0.00    +0.000 OA
BRANCH  20  21
ATOM     21  C   UNL     1       5.655   4.558  17.770  0.00  0.00    +0.000 C 
BRANCH  21  22
ATOM     22  C   UNL     1       6.716   5.071  16.748  0.00  0.00    +0.000 C 
ATOM     23  C   UNL     1       7.196   6.468  17.196  0.00  0.00    +0.000 C 
BRANCH  22  24
ATOM     24  N   UNL     1       7.894   4.190  16.752  0.00  0.00    +0.000 NA
ATOM     25  H   UNL     1       7.987   3.755  15.835  0.00  0.00    +0.000 HD
ATOM     26  H   UNL     1       7.756   3.428  17.419  0.00  0.00    +0.000 HD
ENDBRANCH  22  24
BRANCH  22  27
ATOM     27  C   UNL     1       6.142   5.196  15.299  0.00  0.00    +0.000 C 
BRANCH  27  29
ATOM     28  C   UNL     1       5.545   3.774  13.308  0.00  0.00    +0.000 C 
ATOM     29  C   UNL     1       6.716   4.344  14.133  0.00  0.00    +0.000 C 
ATOM     30  C   UNL     1       7.630   5.112  13.177  0.00  0.00    +0.000 C 
ENDBRANCH  27  29
ENDBRANCH  22  27
ENDBRANCH  21  22
ENDBRANCH  20  21
ENDBRANCH   1  20
TORSDOF 9
ENDMDL
MODEL 5
REMARK VINA RESULT:      -7.6      1.502      2.018
REMARK  Name = 
REMARK  12 active torsions:
REMARK  status: ('A' for Active; 'I' for Inactive)
REMARK    1  A    between atoms: C_1  and  C_2
REMARK    2  A    between atoms: C_2  and  C_3
REMARK    3  A    between atoms: C_2  and  C_4
REMARK    4  A    between atoms: C_4  and  C_5
REMARK    5  A    between atoms: C_5  and  C_6
REMARK    6  A    between atoms: C_5  and  N_7
REMARK    7  A    between atoms: C_5  and  C_8
REMARK    8  A    between atoms: C_8  and  O_9
REMARK    9  A    between atoms: O_9  and  C_10
REMARK   10  A    between atoms: C_13  and  C_14
REMARK   11  A    between atoms: C_18  and  C_19
REMARK   12  A    between atoms: C_24  and  C_25
REMARK                            x       y       z     vdW  Elec       q    Type
REMARK                         _______ _______ _______ _____ _____    ______ ____
ROOT
ATOM      1  C   UNL     1       2.829   6.753  18.311  0.00  0.00    +0.000 A 
ATOM      2  C   UNL     1       2.573   8.093  18.018  0.00  0.00    +0.000 A 
ATOM      3  C   UNL     1       1.896   8.921  18.918  0.00  0.00    +0.000 A 
ATOM      4  C   UNL     1       1.395   8.439  20.132  0.00  0.00    +0.000 A 
ATOM      5  C   UNL     1       1.726   7.117  20.459  0.00  0.00    +0.000 A 
ATOM      6  C   UNL     1       2.464   6.273  19.580  0.00  0.00    +0.000 A 
ENDROOT
BRANCH   4   7
ATOM      7  C   UNL     1       0.534   9.292  20.988  0.00  0.00    +0.000 A 
ATOM      8  C   UNL     1       0.407   9.022  22.360  0.00  0.00    +0.000 A 
ATOM      9  C   UNL     1      -0.391   9.825  23.155  0.00  0.00    +0.000 A 
ATOM     10  N   UNL     1      -1.070  10.891  22.691  0.00  0.00    +0.000 NA
ATOM     11  C   UNL     1      -0.950  11.175  21.367  0.00  0.00    +0.000 A 
ATOM     12  C   UNL     1      -0.169  10.402  20.499  0.00  0.00    +0.000 A 
BRANCH  11  13
ATOM     13  C   UNL     1      -1.687  12.382  20.831  0.00  0.00    +0.000 C 
ATOM     14  F   UNL     1      -2.013  12.254  19.512  0.00  0.00    +0.000 F 
ATOM     15  F   UNL     1      -2.868  12.607  21.479  0.00  0.00    +0.000 F 
ENDBRANCH  11  13
ENDBRANCH   4   7
BRANCH   6  16
ATOM     16  C   UNL     1       2.842   4.913  20.108  0.00  0.00    +0.000 C 
ATOM     17  F   UNL     1       2.243   3.842  19.523  0.00  0.00    +0.000 F 
ATOM     18  F   UNL     1       4.189   4.687  19.980  0.00  0.00    +0.000 F 
ATOM     19  F   UNL     1       2.595   4.792  21.446  0.00  0.00    +0.000 F 
ENDBRANCH   6  16
BRANCH   1  20
ATOM     20  O   UNL     1       3.409   5.893  17.410  0.00  0.00    +0.000 OA
BRANCH  20  21
ATOM     21  C   UNL     1       4.560   6.374  16.668  0.00  0.00    +0.000 C 
BRANCH  21  22
ATOM     22  C   UNL     1       5.532   5.209  16.302  0.00  0.00    +0.000 C 
ATOM     23  C   UNL     1       4.856   3.871  16.670  0.00  0.00    +0.000 C 
BRANCH  22  24
ATOM     24  N   UNL     1       5.773   5.185  14.851  0.00  0.00    +0.000 NA
ATOM     25  H   UNL     1       5.346   6.008  14.429  0.00  0.00    +0.000 HD
ATOM     26  H   UNL     1       5.310   4.375  14.436  0.00  0.00    +0.000 HD
ENDBRANCH  22  24
BRANCH  22  27
ATOM     27  C   UNL     1       6.889   5.296  17.073  0.00  0.00    +0.000 C 
BRANCH  27  29
ATOM     28  C   UNL     1       7.972   5.736  19.305  0.00  0.00    +0.000 C 
ATOM     29  C   UNL     1       7.110   6.357  18.187  0.00  0.00    +0.000 C 
ATOM     30  C   UNL     1       7.808   7.635  17.716  0.00  0.00    +0.000 C 
ENDBRANCH  27  29
ENDBRANCH  22  27
ENDBRANCH  21  22
ENDBRANCH  20  21
ENDBRANCH   1  20
TORSDOF 9
ENDMDL
MODEL 6
REMARK VINA RESULT:      -7.5      1.412      2.536
REMARK  Name = 
REMARK  12 active torsions:
REMARK  status: ('A' for Active; 'I' for Inactive)
REMARK    1  A    between atoms: C_1  and  C_2
REMARK    2  A    between atoms: C_2  and  C_3
REMARK    3  A    between atoms: C_2  and  C_4
REMARK    4  A    between atoms: C_4  and  C_5
REMARK    5  A    between atoms: C_5  and  C_6
REMARK    6  A    between atoms: C_5  and  N_7
REMARK    7  A    between atoms: C_5  and  C_8
REMARK    8  A    between atoms: C_8  and  O_9
REMARK    9  A    between atoms: O_9  and  C_10
REMARK   10  A    between atoms: C_13  and  C_14
REMARK   11  A    between atoms: C_18  and  C_19
REMARK   12  A    between atoms: C_24  and  C_25
REMARK                            x       y       z     vdW  Elec       q    Type
REMARK                         _______ _______ _______ _____ _____    ______ ____
ROOT
ATOM      1  C   UNL     1       3.222   6.550  17.962  0.00  0.00    +0.000 A 
ATOM      2  C   UNL     1       3.086   7.823  17.405  0.00  0.00    +0.000 A 
ATOM      3  C   UNL     1       2.329   8.817  18.031  0.00  0.00    +0.000 A 
ATOM      4  C   UNL     1       1.627   8.574  19.217  0.00  0.00    +0.000 A 
ATOM      5  C   UNL     1       1.833   7.324  19.816  0.00  0.00    +0.000 A 
ATOM      6  C   UNL     1       2.646   6.316  19.222  0.00  0.00    +0.000 A 
ENDROOT
BRANCH   4   7
ATOM      7  C   UNL     1       0.696   9.591  19.768  0.00  0.00    +0.000 A 
ATOM      8  C   UNL     1       0.014  10.466  18.909  0.00  0.00    +0.000 A 
ATOM      9  C   UNL     1      -0.858  11.408  19.427  0.00  0.00    +0.000 A 
ATOM     10  N   UNL     1      -1.115  11.540  20.741  0.00  0.00    +0.000 NA
ATOM     11  C   UNL     1      -0.472  10.692  21.587  0.00  0.00    +0.000 A 
ATOM     12  C   UNL     1       0.432   9.721  21.138  0.00  0.00    +0.000 A 
BRANCH  11  13
ATOM     13  C   UNL     1      -0.764  10.811  23.066  0.00  0.00    +0.000 C 
ATOM     14  F   UNL     1      -2.088  11.021  23.325  0.00  0.00    +0.000 F 
ATOM     15  F   UNL     1      -0.430   9.684  23.761  0.00  0.00    +0.000 F 
ENDBRANCH  11  13
ENDBRANCH   4   7
BRANCH   6  16
ATOM     16  C   UNL     1       2.866   5.063  20.030  0.00  0.00    +0.000 C 
ATOM     17  F   UNL     1       2.433   5.084  21.319  0.00  0.00    +0.000 F 
ATOM     18  F   UNL     1       2.241   3.985  19.457  0.00  0.00    +0.000 F 
ATOM     19  F   UNL     1       4.184   4.710  20.087  0.00  0.00    +0.000 F 
ENDBRANCH   6  16
BRANCH   1  20
ATOM     20  O   UNL     1       3.881   5.527  17.325  0.00  0.00    +0.000 OA
BRANCH  20  21
ATOM     21  C   UNL     1       5.232   5.786  16.859  0.00  0.00    +0.000 C 
BRANCH  21  22
ATOM     22  C   UNL     1       5.815   4.561  16.088  0.00  0.00    +0.000 C 
ATOM     23  C   UNL     1       7.337   4.499  16.341  0.00  0.00    +0.000 C 
BRANCH  22  24
ATOM     24  N   UNL     1       5.241   3.312  16.610  0.00  0.00    +0.000 NA
ATOM     25  H   UNL     1       4.806   2.800  15.843  0.00  0.00    +0.000 HD
ATOM     26  H   UNL     1       4.494   3.524  17.274  0.00  0.00    +0.000 HD
ENDBRANCH  22  24
BRANCH  22  27
ATOM     27  C   UNL     1       5.584   4.658  14.545  0.00  0.00    +0.000 C 
BRANCH  27  29
ATOM     28  C   UNL     1       5.790   3.366  12.392  0.00  0.00    +0.000 C 
ATOM     29  C   UNL     1       6.583   4.015  13.544  0.00  0.00    +0.000 C 
ATOM     30  C   UNL     1       7.582   4.996  12.926  0.00  0.00    +0.000 C 
ENDBRANCH  27  29
ENDBRANCH  22  27
ENDBRANCH  21  22
ENDBRANCH  20  21
ENDBRANCH   1  20
TORSDOF 9
ENDMDL
MODEL 7
REMARK VINA RESULT:      -7.5      0.857      1.098
REMARK  Name = 
REMARK  12 active torsions:
REMARK  status: ('A' for Active; 'I' for Inactive)
REMARK    1  A    between atoms: C_1  and  C_2
REMARK    2  A    between atoms: C_2  and  C_3
REMARK    3  A    between atoms: C_2  and  C_4
REMARK    4  A    between atoms: C_4  and  C_5
REMARK    5  A    between atoms: C_5  and  C_6
REMARK    6  A    between atoms: C_5  and  N_7
REMARK    7  A    between atoms: C_5  and  C_8
REMARK    8  A    between atoms: C_8  and  O_9
REMARK    9  A    between atoms: O_9  and  C_10
REMARK   10  A    between atoms: C_13  and  C_14
REMARK   11  A    between atoms: C_18  and  C_19
REMARK   12  A    between atoms: C_24  and  C_25
REMARK                            x       y       z     vdW  Elec       q    Type
REMARK                         _______ _______ _______ _____ _____    ______ ____
ROOT
ATOM      1  C   UNL     1       3.554   5.452  18.271  0.00  0.00    +0.000 A 
ATOM      2  C   UNL     1       3.585   6.742  17.739  0.00  0.00    +0.000 A 
ATOM      3  C   UNL     1       2.878   7.793  18.331  0.00  0.00    +0.000 A 
ATOM      4  C   UNL     1       2.064   7.597  19.453  0.00  0.00    +0.000 A 
ATOM      5  C   UNL     1       2.102   6.321  20.032  0.00  0.00    +0.000 A 
ATOM      6  C   UNL     1       2.861   5.251  19.476  0.00  0.00    +0.000 A 
ENDROOT
BRANCH   4   7
ATOM      7  C   UNL     1       1.194   8.688  19.957  0.00  0.00    +0.000 A 
ATOM      8  C   UNL     1       0.824   9.747  19.113  0.00  0.00    +0.000 A 
ATOM      9  C   UNL     1       0.007  10.759  19.586  0.00  0.00    +0.000 A 
ATOM     10  N   UNL     1      -0.485  10.794  20.838  0.00  0.00    +0.000 NA
ATOM     11  C   UNL     1      -0.147   9.769  21.666  0.00  0.00    +0.000 A 
ATOM     12  C   UNL     1       0.684   8.717  21.262  0.00  0.00    +0.000 A 
BRANCH  11  13
ATOM     13  C   UNL     1      -0.707   9.780  23.071  0.00  0.00    +0.000 C 
ATOM     14  F   UNL     1       0.199   9.358  24.000  0.00  0.00    +0.000 F 
ATOM     15  F   UNL     1      -1.092  11.025  23.475  0.00  0.00    +0.000 F 
ENDBRANCH  11  13
ENDBRANCH   4   7
BRANCH   6  16
ATOM     16  C   UNL     1       2.897   3.967  20.266  0.00  0.00    +0.000 C 
ATOM     17  F   UNL     1       4.098   3.336  20.350  0.00  0.00    +0.000 F 
ATOM     18  F   UNL     1       2.504   4.172  21.564  0.00  0.00    +0.000 F 
ATOM     19  F   UNL     1       2.022   3.038  19.781  0.00  0.00    +0.000 F 
ENDBRANCH   6  16
BRANCH   1  20
ATOM     20  O   UNL     1       4.162   4.382  17.660  0.00  0.00    +0.000 OA
BRANCH  20  21
ATOM     21  C   UNL     1       4.339   4.442  16.220  0.00  0.00    +0.000 C 
BRANCH  21  22
ATOM     22  C   UNL     1       5.787   4.880  15.840  0.00  0.00    +0.000 C 
ATOM     23  C   UNL     1       6.334   3.904  14.776  0.00  0.00    +0.000 C 
BRANCH  22  24
ATOM     24  N   UNL     1       5.770   6.218  15.229  0.00  0.00    +0.000 NA
ATOM     25  H   UNL     1       6.610   6.336  14.664  0.00  0.00    +0.000 HD
ATOM     26  H   UNL     1       5.810   6.933  15.957  0.00  0.00    +0.000 HD
ENDBRANCH  22  24
BRANCH  22  27
ATOM     27  C   UNL     1       6.760   4.859  17.063  0.00  0.00    +0.000 C 
BRANCH  27  29
ATOM     28  C   UNL     1       7.617   5.664  19.291  0.00  0.00    +0.000 C 
ATOM     29  C   UNL     1       6.905   6.095  17.993  0.00  0.00    +0.000 C 
ATOM     30  C   UNL     1       7.700   7.254  17.389  0.00  0.00    +0.000 C 
ENDBRANCH  27  29
ENDBRANCH  22  27
ENDBRANCH  21  22
ENDBRANCH  20  21
ENDBRANCH   1  20
TORSDOF 9
ENDMDL
MODEL 8
REMARK VINA RESULT:      -7.5      2.768      8.357
REMARK  Name = 
REMARK  12 active torsions:
REMARK  status: ('A' for Active; 'I' for Inactive)
REMARK    1  A    between atoms: C_1  and  C_2
REMARK    2  A    between atoms: C_2  and  C_3
REMARK    3  A    between atoms: C_2  and  C_4
REMARK    4  A    between atoms: C_4  and  C_5
REMARK    5  A    between atoms: C_5  and  C_6
REMARK    6  A    between atoms: C_5  and  N_7
REMARK    7  A    between atoms: C_5  and  C_8
REMARK    8  A    between atoms: C_8  and  O_9
REMARK    9  A    between atoms: O_9  and  C_10
REMARK   10  A    between atoms: C_13  and  C_14
REMARK   11  A    between atoms: C_18  and  C_19
REMARK   12  A    between atoms: C_24  and  C_25
REMARK                            x       y       z     vdW  Elec       q    Type
REMARK                         _______ _______ _______ _____ _____    ______ ____
ROOT
ATOM      1  C   UNL     1       1.521   9.587  19.204  0.00  0.00    +0.000 A 
ATOM      2  C   UNL     1       1.987   9.431  17.898  0.00  0.00    +0.000 A 
ATOM      3  C   UNL     1       2.528   8.221  17.455  0.00  0.00    +0.000 A 
ATOM      4  C   UNL     1       2.677   7.122  18.308  0.00  0.00    +0.000 A 
ATOM      5  C   UNL     1       2.132   7.254  19.593  0.00  0.00    +0.000 A 
ATOM      6  C   UNL     1       1.526   8.462  20.046  0.00  0.00    +0.000 A 
ENDROOT
BRANCH   4   7
ATOM      7  C   UNL     1       3.408   5.910  17.861  0.00  0.00    +0.000 A 
ATOM      8  C   UNL     1       2.730   4.690  17.706  0.00  0.00    +0.000 A 
ATOM      9  C   UNL     1       3.415   3.565  17.282  0.00  0.00    +0.000 A 
ATOM     10  N   UNL     1       4.728   3.560  16.988  0.00  0.00    +0.000 NA
ATOM     11  C   UNL     1       5.398   4.736  17.121  0.00  0.00    +0.000 A 
ATOM     12  C   UNL     1       4.775   5.913  17.555  0.00  0.00    +0.000 A 
BRANCH  11  13
ATOM     13  C   UNL     1       6.870   4.756  16.774  0.00  0.00    +0.000 C 
ATOM     14  F   UNL     1       7.273   5.957  16.266  0.00  0.00    +0.000 F 
ATOM     15  F   UNL     1       7.670   4.531  17.857  0.00  0.00    +0.000 F 
ENDBRANCH  11  13
ENDBRANCH   4   7
BRANCH   6  16
ATOM     16  C   UNL     1       0.885   8.425  21.410  0.00  0.00    +0.000 C 
ATOM     17  F   UNL     1      -0.380   8.917  21.503  0.00  0.00    +0.000 F 
ATOM     18  F   UNL     1       0.809   7.142  21.888  0.00  0.00    +0.000 F 
ATOM     19  F   UNL     1       1.616   9.102  22.343  0.00  0.00    +0.000 F 
ENDBRANCH   6  16
BRANCH   1  20
ATOM     20  O   UNL     1       1.071  10.789  19.695  0.00  0.00    +0.000 OA
BRANCH  20  21
ATOM     21  C   UNL     1       0.675  11.801  18.732  0.00  0.00    +0.000 C 
BRANCH  21  22
ATOM     22  C   UNL     1      -0.872  12.002  18.719  0.00  0.00    +0.000 C 
ATOM     23  C   UNL     1      -1.370  12.090  20.178  0.00  0.00    +0.000 C 
BRANCH  22  24
ATOM     24  N   UNL     1      -1.214  13.277  18.069  0.00  0.00    +0.000 NA
ATOM     25  H   UNL     1      -2.193  13.255  17.789  0.00  0.00    +0.000 HD
ATOM     26  H   UNL     1      -0.671  13.385  17.211  0.00  0.00    +0.000 HD
ENDBRANCH  22  24
BRANCH  22  27
ATOM     27  C   UNL     1      -1.624  10.823  18.021  0.00  0.00    +0.000 C 
BRANCH  27  29
ATOM     28  C   UNL     1      -2.577   9.888  15.884  0.00  0.00    +0.000 C 
ATOM     29  C   UNL     1      -2.618  11.085  16.855  0.00  0.00    +0.000 C 
ATOM     30  C   UNL     1      -4.071  11.280  17.293  0.00  0.00    +0.000 C 
ENDBRANCH  27  29
ENDBRANCH  22  27
ENDBRANCH  21  22
ENDBRANCH  20  21
ENDBRANCH   1  20
TORSDOF 9
ENDMDL
MODEL 9
REMARK VINA RESULT:      -7.5      2.480      8.333
REMARK  Name = 
REMARK  12 active torsions:
REMARK  status: ('A' for Active; 'I' for Inactive)
REMARK    1  A    between atoms: C_1  and  C_2
REMARK    2  A    between atoms: C_2  and  C_3
REMARK    3  A    between atoms: C_2  and  C_4
REMARK    4  A    between atoms: C_4  and  C_5
REMARK    5  A    between atoms: C_5  and  C_6
REMARK    6  A    between atoms: C_5  and  N_7
REMARK    7  A    between atoms: C_5  and  C_8
REMARK    8  A    between atoms: C_8  and  O_9
REMARK    9  A    between atoms: O_9  and  C_10
REMARK   10  A    between atoms: C_13  and  C_14
REMARK   11  A    between atoms: C_18  and  C_19
REMARK   12  A    between atoms: C_24  and  C_25
REMARK                            x       y       z     vdW  Elec       q    Type
REMARK                         _______ _______ _______ _____ _____    ______ ____
ROOT
ATOM      1  C   UNL     1       2.171   6.549  19.850  0.00  0.00    +0.000 A 
ATOM      2  C   UNL     1       2.646   7.367  18.823  0.00  0.00    +0.000 A 
ATOM      3  C   UNL     1       3.579   6.902  17.892  0.00  0.00    +0.000 A 
ATOM      4  C   UNL     1       4.123   5.615  17.970  0.00  0.00    +0.000 A 
ATOM      5  C   UNL     1       3.582   4.771  18.949  0.00  0.00    +0.000 A 
ATOM      6  C   UNL     1       2.590   5.208  19.873  0.00  0.00    +0.000 A 
ENDROOT
BRANCH   4   7
ATOM      7  C   UNL     1       5.234   5.207  17.074  0.00  0.00    +0.000 A 
ATOM      8  C   UNL     1       6.529   5.029  17.586  0.00  0.00    +0.000 A 
ATOM      9  C   UNL     1       7.559   4.643  16.748  0.00  0.00    +0.000 A 
ATOM     10  N   UNL     1       7.400   4.406  15.433  0.00  0.00    +0.000 NA
ATOM     11  C   UNL     1       6.150   4.561  14.921  0.00  0.00    +0.000 A 
ATOM     12  C   UNL     1       5.060   4.961  15.706  0.00  0.00    +0.000 A 
BRANCH  11  13
ATOM     13  C   UNL     1       5.945   4.279  13.450  0.00  0.00    +0.000 C 
ATOM     14  F   UNL     1       6.719   3.248  13.001  0.00  0.00    +0.000 F 
ATOM     15  F   UNL     1       4.660   3.927  13.155  0.00  0.00    +0.000 F 
ENDBRANCH  11  13
ENDBRANCH   4   7
BRANCH   6  16
ATOM     16  C   UNL     1       2.021   4.162  20.798  0.00  0.00    +0.000 C 
ATOM     17  F   UNL     1       2.350   4.267  22.113  0.00  0.00    +0.000 F 
ATOM     18  F   UNL     1       0.650   4.165  20.769  0.00  0.00    +0.000 F 
ATOM     19  F   UNL     1       2.374   2.897  20.427  0.00  0.00    +0.000 F 
ENDBRANCH   6  16
BRANCH   1  20
ATOM     20  O   UNL     1       1.327   7.005  20.832  0.00  0.00    +0.000 OA
BRANCH  20  21
ATOM     21  C   UNL     1       1.700   8.224  21.527  0.00  0.00    +0.000 C 
BRANCH  21  22
ATOM     22  C   UNL     1       0.541   9.269  21.511  0.00  0.00    +0.000 C 
ATOM     23  C   UNL     1      -0.796   8.523  21.710  0.00  0.00    +0.000 C 
BRANCH  22  24
ATOM     24  N   UNL     1       0.684  10.204  22.637  0.00  0.00    +0.000 NA
ATOM     25  H   UNL     1       0.204   9.820  23.451  0.00  0.00    +0.000 HD
ATOM     26  H   UNL     1       0.218  11.086  22.417  0.00  0.00    +0.000 HD
ENDBRANCH  22  24
BRANCH  22  27
ATOM     27  C   UNL     1       0.461  10.056  20.163  0.00  0.00    +0.000 C 
BRANCH  27  29
ATOM     28  C   UNL     1      -0.496  12.311  19.577  0.00  0.00    +0.000 C 
ATOM     29  C   UNL     1      -0.831  10.817  19.755  0.00  0.00    +0.000 C 
ATOM     30  C   UNL     1      -1.473  10.325  18.456  0.00  0.00    +0.000 C 
ENDBRANCH  27  29
ENDBRANCH  22  27
ENDBRANCH  21  22
ENDBRANCH  20  21
ENDBRANCH   1  20
TORSDOF 9
ENDMDL
