MODEL 1
REMARK VINA RESULT:      -7.2      0.000      0.000
REMARK  Name = 
REMARK  13 active torsions:
REMARK  status: ('A' for Active; 'I' for Inactive)
REMARK    1  A    between atoms: C_1  and  C_2
REMARK    2  A    between atoms: C_2  and  O_3
REMARK    3  A    between atoms: O_3  and  C_4
REMARK    4  A    between atoms: C_4  and  C_6
REMARK    5  A    between atoms: C_8  and  O_9
REMARK    6  A    between atoms: O_9  and  C_10
REMARK    7  A    between atoms: C_10  and  C_11
REMARK    8  A    between atoms: C_10  and  C_13
REMARK    9  A    between atoms: C_11  and  C_12
REMARK   10  A    between atoms: C_13  and  C_14
REMARK   11  A    between atoms: C_15  and  N_16
REMARK   12  A    between atoms: C_17  and  C_18
REMARK   13  A    between atoms: C_20  and  N_21
REMARK                            x       y       z     vdW  Elec       q    Type
REMARK                         _______ _______ _______ _____ _____    ______ ____
ROOT
ATOM      1  C   UNL     1       5.487   5.154  15.923  0.00  0.00    +0.000 C 
ATOM      2  C   UNL     1       4.561   4.359  16.491  0.00  0.00    +0.000 C 
ATOM      3  C   UNL     1       3.863   4.659  17.792  0.00  0.00    +0.000 C 
ATOM      4  C   UNL     1       4.147   6.101  18.310  0.00  0.00    +0.000 C 
ATOM      5  C   UNL     1       5.621   6.525  18.087  0.00  0.00    +0.000 C 
ATOM      6  C   UNL     1       6.002   6.398  16.600  0.00  0.00    +0.000 C 
ENDROOT
BRANCH   5   7
ATOM      7  N   UNL     1       6.536   5.713  18.899  0.00  0.00    +0.000 N 
ATOM      8  C   UNL     1       7.844   5.978  19.072  0.00  0.00    +0.000 C 
ATOM      9  N   UNL     1       8.442   7.111  19.071  0.00  0.00    +0.000 NA
ATOM     10  N   UNL     1       8.564   4.857  19.281  0.00  0.00    +0.000 N 
ATOM     11  H   UNL     1       6.354   4.717  18.813  0.00  0.00    +0.000 HD
ATOM     12  H   UNL     1       7.764   7.864  18.940  0.00  0.00    +0.000 HD
ATOM     13  H   UNL     1       8.154   4.224  19.958  0.00  0.00    +0.000 HD
ATOM     14  H   UNL     1       9.508   5.111  19.556  0.00  0.00    +0.000 HD
ENDBRANCH   5   7
BRANCH   4  15
ATOM     15  N   UNL     1       3.193   7.043  17.687  0.00  0.00    +0.000 N 
ATOM     16  C   UNL     1       2.313   7.786  18.435  0.00  0.00    +0.000 C 
ATOM     17  C   UNL     1       1.355   8.617  17.620  0.00  0.00    +0.000 C 
ATOM     18  O   UNL     1       2.276   7.752  19.658  0.00  0.00    +0.000 OA
ATOM     19  H   UNL     1       3.207   7.160  16.682  0.00  0.00    +0.000 HD
ENDBRANCH   4  15
BRANCH   1  20
ATOM     20  C   UNL     1       6.059   4.847  14.579  0.00  0.00    +0.000 C 
ATOM     21  O   UNL     1       7.102   5.324  14.156  0.00  0.00    +0.000 OA
BRANCH  20  22
ATOM     22  O   UNL     1       5.205   4.067  13.864  0.00  0.00    +0.000 OA
BRANCH  22  24
ATOM     23  C   UNL     1       4.622   3.239  11.661  0.00  0.00    +0.000 C 
ATOM     24  C   UNL     1       5.736   3.507  12.653  0.00  0.00    +0.000 C 
ENDBRANCH  22  24
ENDBRANCH  20  22
ENDBRANCH   1  20
BRANCH   3  25
ATOM     25  O   UNL     1       4.194   3.590  18.676  0.00  0.00    +0.000 OA
BRANCH  25  26
ATOM     26  C   UNL     1       3.103   2.852  19.243  0.00  0.00    +0.000 C 
BRANCH  26  27
ATOM     27  C   UNL     1       3.122   2.773  20.783  0.00  0.00    +0.000 C 
ATOM     28  C   UNL     1       2.183   3.720  21.517  0.00  0.00    +0.000 C 
ENDBRANCH  26  27
BRANCH  26  29
ATOM     29  C   UNL     1       1.801   3.465  18.706  0.00  0.00    +0.000 C 
ATOM     30  C   UNL     1       0.680   2.431  18.647  0.00  0.00    +0.000 C 
ENDBRANCH  26  29
ENDBRANCH  25  26
ENDBRANCH   3  25
TORSDOF 9
ENDMDL
MODEL 2
REMARK VINA RESULT:      -7.0      0.655      1.009
REMARK  Name = 
REMARK  13 active torsions:
REMARK  status: ('A' for Active; 'I' for Inactive)
REMARK    1  A    between atoms: C_1  and  C_2
REMARK    2  A    between atoms: C_2  and  O_3
REMARK    3  A    between atoms: O_3  and  C_4
REMARK    4  A    between atoms: C_4  and  C_6
REMARK    5  A    between atoms: C_8  and  O_9
REMARK    6  A    between atoms: O_9  and  C_10
REMARK    7  A    between atoms: C_10  and  C_11
REMARK    8  A    between atoms: C_10  and  C_13
REMARK    9  A    between atoms: C_11  and  C_12
REMARK   10  A    between atoms: C_13  and  C_14
REMARK   11  A    between atoms: C_15  and  N_16
REMARK   12  A    between atoms: C_17  and  C_18
REMARK   13  A    between atoms: C_20  and  N_21
REMARK                            x       y       z     vdW  Elec       q    Type
REMARK                         _______ _______ _______ _____ _____    ______ ____
ROOT
ATOM      1  C   UNL     1       5.453   5.285  15.898  0.00  0.00    +0.000 C 
ATOM      2  C   UNL     1       4.476   4.555  16.470  0.00  0.00    +0.000 C 
ATOM      3  C   UNL     1       3.784   4.919  17.758  0.00  0.00    +0.000 C 
ATOM      4  C   UNL     1       4.150   6.350  18.256  0.00  0.00    +0.000 C 
ATOM      5  C   UNL     1       5.649   6.681  18.041  0.00  0.00    +0.000 C 
ATOM      6  C   UNL     1       6.035   6.507  16.560  0.00  0.00    +0.000 C 
ENDROOT
BRANCH   5   7
ATOM      7  N   UNL     1       6.506   5.829  18.875  0.00  0.00    +0.000 N 
ATOM      8  C   UNL     1       7.820   6.035  19.078  0.00  0.00    +0.000 C 
ATOM      9  N   UNL     1       8.469   7.139  19.091  0.00  0.00    +0.000 NA
ATOM     10  N   UNL     1       8.483   4.882  19.306  0.00  0.00    +0.000 N 
ATOM     11  H   UNL     1       6.280   4.843  18.786  0.00  0.00    +0.000 HD
ATOM     12  H   UNL     1       7.830   7.922  18.943  0.00  0.00    +0.000 HD
ATOM     13  H   UNL     1       8.028   4.270  19.973  0.00  0.00    +0.000 HD
ATOM     14  H   UNL     1       9.431   5.093  19.603  0.00  0.00    +0.000 HD
ENDBRANCH   5   7
BRANCH   4  15
ATOM     15  N   UNL     1       3.259   7.337  17.609  0.00  0.00    +0.000 N 
ATOM     16  C   UNL     1       2.315   8.038  18.317  0.00  0.00    +0.000 C 
ATOM     17  C   UNL     1       1.439   8.926  17.472  0.00  0.00    +0.000 C 
ATOM     18  O   UNL     1       2.166   7.928  19.527  0.00  0.00    +0.000 OA
ATOM     19  H   UNL     1       3.367   7.515  16.618  0.00  0.00    +0.000 HD
ENDBRANCH   4  15
BRANCH   1  20
ATOM     20  C   UNL     1       6.017   4.921  14.565  0.00  0.00    +0.000 C 
ATOM     21  O   UNL     1       7.054   5.384  14.115  0.00  0.00    +0.000 OA
BRANCH  20  22
ATOM     22  O   UNL     1       5.163   4.107  13.891  0.00  0.00    +0.000 OA
BRANCH  22  24
ATOM     23  C   UNL     1       4.576   3.267  11.693  0.00  0.00    +0.000 C 
ATOM     24  C   UNL     1       5.686   3.503  12.698  0.00  0.00    +0.000 C 
ENDBRANCH  22  24
ENDBRANCH  20  22
ENDBRANCH   1  20
BRANCH   3  25
ATOM     25  O   UNL     1       4.043   3.846  18.662  0.00  0.00    +0.000 OA
BRANCH  25  26
ATOM     26  C   UNL     1       2.905   3.162  19.204  0.00  0.00    +0.000 C 
BRANCH  26  27
ATOM     27  C   UNL     1       1.631   4.025  19.300  0.00  0.00    +0.000 C 
ATOM     28  C   UNL     1       1.385   4.718  20.633  0.00  0.00    +0.000 C 
ENDBRANCH  26  27
BRANCH  26  29
ATOM     29  C   UNL     1       2.688   1.891  18.368  0.00  0.00    +0.000 C 
ATOM     30  C   UNL     1       3.952   1.038  18.311  0.00  0.00    +0.000 C 
ENDBRANCH  26  29
ENDBRANCH  25  26
ENDBRANCH   3  25
TORSDOF 9
ENDMDL
MODEL 3
REMARK VINA RESULT:      -6.8      0.475      1.244
REMARK  Name = 
REMARK  13 active torsions:
REMARK  status: ('A' for Active; 'I' for Inactive)
REMARK    1  A    between atoms: C_1  and  C_2
REMARK    2  A    between atoms: C_2  and  O_3
REMARK    3  A    between atoms: O_3  and  C_4
REMARK    4  A    between atoms: C_4  and  C_6
REMARK    5  A    between atoms: C_8  and  O_9
REMARK    6  A    between atoms: O_9  and  C_10
REMARK    7  A    between atoms: C_10  and  C_11
REMARK    8  A    between atoms: C_10  and  C_13
REMARK    9  A    between atoms: C_11  and  C_12
REMARK   10  A    between atoms: C_13  and  C_14
REMARK   11  A    between atoms: C_15  and  N_16
REMARK   12  A    between atoms: C_17  and  C_18
REMARK   13  A    between atoms: C_20  and  N_21
REMARK                            x       y       z     vdW  Elec       q    Type
REMARK                         _______ _______ _______ _____ _____    ______ ____
ROOT
ATOM      1  C   UNL     1       5.434   5.324  15.847  0.00  0.00    +0.000 C 
ATOM      2  C   UNL     1       4.438   4.607  16.400  0.00  0.00    +0.000 C 
ATOM      3  C   UNL     1       3.742   4.968  17.687  0.00  0.00    +0.000 C 
ATOM      4  C   UNL     1       4.130   6.385  18.206  0.00  0.00    +0.000 C 
ATOM      5  C   UNL     1       5.637   6.689  18.009  0.00  0.00    +0.000 C 
ATOM      6  C   UNL     1       6.034   6.526  16.530  0.00  0.00    +0.000 C 
ENDROOT
BRANCH   5   7
ATOM      7  N   UNL     1       6.470   5.810  18.841  0.00  0.00    +0.000 N 
ATOM      8  C   UNL     1       7.784   5.992  19.066  0.00  0.00    +0.000 C 
ATOM      9  N   UNL     1       8.449   7.086  19.107  0.00  0.00    +0.000 NA
ATOM     10  N   UNL     1       8.426   4.826  19.282  0.00  0.00    +0.000 N 
ATOM     11  H   UNL     1       6.230   4.829  18.731  0.00  0.00    +0.000 HD
ATOM     12  H   UNL     1       7.824   7.881  18.964  0.00  0.00    +0.000 HD
ATOM     13  H   UNL     1       7.952   4.209  19.933  0.00  0.00    +0.000 HD
ATOM     14  H   UNL     1       9.372   5.017  19.597  0.00  0.00    +0.000 HD
ENDBRANCH   5   7
BRANCH   4  15
ATOM     15  N   UNL     1       3.265   7.397  17.563  0.00  0.00    +0.000 N 
ATOM     16  C   UNL     1       2.312   8.091  18.267  0.00  0.00    +0.000 C 
ATOM     17  C   UNL     1       1.465   9.009  17.423  0.00  0.00    +0.000 C 
ATOM     18  O   UNL     1       2.132   7.952  19.470  0.00  0.00    +0.000 OA
ATOM     19  H   UNL     1       3.399   7.600  16.580  0.00  0.00    +0.000 HD
ENDBRANCH   4  15
BRANCH   1  20
ATOM     20  C   UNL     1       6.004   4.967  14.515  0.00  0.00    +0.000 C 
ATOM     21  O   UNL     1       7.048   5.425  14.075  0.00  0.00    +0.000 OA
BRANCH  20  22
ATOM     22  O   UNL     1       5.149   4.164  13.829  0.00  0.00    +0.000 OA
BRANCH  22  24
ATOM     23  C   UNL     1       4.616   3.233  11.654  0.00  0.00    +0.000 C 
ATOM     24  C   UNL     1       5.699   3.500  12.681  0.00  0.00    +0.000 C 
ENDBRANCH  22  24
ENDBRANCH  20  22
ENDBRANCH   1  20
BRANCH   3  25
ATOM     25  O   UNL     1       3.970   3.879  18.579  0.00  0.00    +0.000 OA
BRANCH  25  26
ATOM     26  C   UNL     1       3.107   3.779  19.720  0.00  0.00    +0.000 C 
BRANCH  26  27
ATOM     27  C   UNL     1       1.603   3.852  19.388  0.00  0.00    +0.000 C 
ATOM     28  C   UNL     1       1.021   2.662  18.638  0.00  0.00    +0.000 C 
ENDBRANCH  26  27
BRANCH  26  29
ATOM     29  C   UNL     1       3.478   2.490  20.469  0.00  0.00    +0.000 C 
ATOM     30  C   UNL     1       2.635   2.313  21.729  0.00  0.00    +0.000 C 
ENDBRANCH  26  29
ENDBRANCH  25  26
ENDBRANCH   3  25
TORSDOF 9
ENDMDL
MODEL 4
REMARK VINA RESULT:      -6.8      1.652      5.015
REMARK  Name = 
REMARK  13 active torsions:
REMARK  status: ('A' for Active; 'I' for Inactive)
REMARK    1  A    between atoms: C_1  and  C_2
REMARK    2  A    between atoms: C_2  and  O_3
REMARK    3  A    between atoms: O_3  and  C_4
REMARK    4  A    between atoms: C_4  and  C_6
REMARK    5  A    between atoms: C_8  and  O_9
REMARK    6  A    between atoms: O_9  and  C_10
REMARK    7  A    between atoms: C_10  and  C_11
REMARK    8  A    between atoms: C_10  and  C_13
REMARK    9  A    between atoms: C_11  and  C_12
REMARK   10  A    between atoms: C_13  and  C_14
REMARK   11  A    between atoms: C_15  and  N_16
REMARK   12  A    between atoms: C_17  and  C_18
REMARK   13  A    between atoms: C_20  and  N_21
REMARK                            x       y       z     vdW  Elec       q    Type
REMARK                         _______ _______ _______ _____ _____    ______ ____
ROOT
ATOM      1  C   UNL     1       4.687   3.731  18.406  0.00  0.00    +0.000 C 
ATOM      2  C   UNL     1       3.819   4.687  18.024  0.00  0.00    +0.000 C 
ATOM      3  C   UNL     1       4.129   5.766  17.019  0.00  0.00    +0.000 C 
ATOM      4  C   UNL     1       5.484   5.536  16.285  0.00  0.00    +0.000 C 
ATOM      5  C   UNL     1       6.584   5.002  17.237  0.00  0.00    +0.000 C 
ATOM      6  C   UNL     1       6.118   3.709  17.933  0.00  0.00    +0.000 C 
ENDROOT
BRANCH   5   7
ATOM      7  N   UNL     1       6.941   6.004  18.250  0.00  0.00    +0.000 N 
ATOM      8  C   UNL     1       7.679   7.103  18.010  0.00  0.00    +0.000 C 
ATOM      9  N   UNL     1       7.775   7.786  16.930  0.00  0.00    +0.000 NA
ATOM     10  N   UNL     1       8.377   7.491  19.096  0.00  0.00    +0.000 N 
ATOM     11  H   UNL     1       7.155   5.587  19.151  0.00  0.00    +0.000 HD
ATOM     12  H   UNL     1       7.163   7.395  16.213  0.00  0.00    +0.000 HD
ATOM     13  H   UNL     1       7.832   7.509  19.951  0.00  0.00    +0.000 HD
ATOM     14  H   UNL     1       8.793   8.401  18.921  0.00  0.00    +0.000 HD
ENDBRANCH   5   7
BRANCH   4  15
ATOM     15  N   UNL     1       5.267   4.647  15.124  0.00  0.00    +0.000 N 
ATOM     16  C   UNL     1       6.178   4.553  14.101  0.00  0.00    +0.000 C 
ATOM     17  C   UNL     1       5.741   3.670  12.960  0.00  0.00    +0.000 C 
ATOM     18  O   UNL     1       7.240   5.163  14.089  0.00  0.00    +0.000 OA
ATOM     19  H   UNL     1       4.434   4.073  15.096  0.00  0.00    +0.000 HD
ENDBRANCH   4  15
BRANCH   1  20
ATOM     20  C   UNL     1       4.277   2.629  19.325  0.00  0.00    +0.000 C 
ATOM     21  O   UNL     1       4.959   2.229  20.256  0.00  0.00    +0.000 OA
BRANCH  20  22
ATOM     22  O   UNL     1       3.110   2.070  18.908  0.00  0.00    +0.000 OA
BRANCH  22  24
ATOM     23  C   UNL     1       0.736   2.559  18.970  0.00  0.00    +0.000 C 
ATOM     24  C   UNL     1       1.983   2.257  19.777  0.00  0.00    +0.000 C 
ENDBRANCH  22  24
ENDBRANCH  20  22
ENDBRANCH   1  20
BRANCH   3  25
ATOM     25  O   UNL     1       3.983   7.005  17.711  0.00  0.00    +0.000 OA
BRANCH  25  26
ATOM     26  C   UNL     1       2.678   7.322  18.214  0.00  0.00    +0.000 C 
BRANCH  26  27
ATOM     27  C   UNL     1       2.556   7.260  19.750  0.00  0.00    +0.000 C 
ATOM     28  C   UNL     1       1.744   6.104  20.315  0.00  0.00    +0.000 C 
ENDBRANCH  26  27
BRANCH  26  29
ATOM     29  C   UNL     1       2.288   8.698  17.652  0.00  0.00    +0.000 C 
ATOM     30  C   UNL     1       1.283   9.406  18.556  0.00  0.00    +0.000 C 
ENDBRANCH  26  29
ENDBRANCH  25  26
ENDBRANCH   3  25
TORSDOF 9
ENDMDL
MODEL 5
REMARK VINA RESULT:      -6.8      2.072      3.556
REMARK  Name = 
REMARK  13 active torsions:
REMARK  status: ('A' for Active; 'I' for Inactive)
REMARK    1  A    between atoms: C_1  and  C_2
REMARK    2  A    between atoms: C_2  and  O_3
REMARK    3  A    between atoms: O_3  and  C_4
REMARK    4  A    between atoms: C_4  and  C_6
REMARK    5  A    between atoms: C_8  and  O_9
REMARK    6  A    between atoms: O_9  and  C_10
REMARK    7  A    between atoms: C_10  and  C_11
REMARK    8  A    between atoms: C_10  and  C_13
REMARK    9  A    between atoms: C_11  and  C_12
REMARK   10  A    between atoms: C_13  and  C_14
REMARK   11  A    between atoms: C_15  and  N_16
REMARK   12  A    between atoms: C_17  and  C_18
REMARK   13  A    between atoms: C_20  and  N_21
REMARK                            x       y       z     vdW  Elec       q    Type
REMARK                         _______ _______ _______ _____ _____    ______ ____
ROOT
ATOM      1  C   UNL     1       6.269   5.057  15.062  0.00  0.00    +0.000 C 
ATOM      2  C   UNL     1       5.145   5.761  15.292  0.00  0.00    +0.000 C 
ATOM      3  C   UNL     1       4.804   6.418  16.604  0.00  0.00    +0.000 C 
ATOM      4  C   UNL     1       5.990   6.399  17.614  0.00  0.00    +0.000 C 
ATOM      5  C   UNL     1       6.771   5.060  17.578  0.00  0.00    +0.000 C 
ATOM      6  C   UNL     1       7.268   4.762  16.151  0.00  0.00    +0.000 C 
ENDROOT
BRANCH   5   7
ATOM      7  N   UNL     1       5.938   3.946  18.050  0.00  0.00    +0.000 N 
ATOM      8  C   UNL     1       5.327   3.905  19.248  0.00  0.00    +0.000 C 
ATOM      9  N   UNL     1       4.883   4.874  19.958  0.00  0.00    +0.000 NA
ATOM     10  N   UNL     1       5.182   2.642  19.698  0.00  0.00    +0.000 N 
ATOM     11  H   UNL     1       6.306   3.040  17.774  0.00  0.00    +0.000 HD
ATOM     12  H   UNL     1       5.029   5.760  19.471  0.00  0.00    +0.000 HD
ATOM     13  H   UNL     1       4.827   1.995  19.004  0.00  0.00    +0.000 HD
ATOM     14  H   UNL     1       4.587   2.645  20.521  0.00  0.00    +0.000 HD
ENDBRANCH   5   7
BRANCH   4  15
ATOM     15  N   UNL     1       6.865   7.564  17.366  0.00  0.00    +0.000 N 
ATOM     16  C   UNL     1       7.987   7.804  18.119  0.00  0.00    +0.000 C 
ATOM     17  C   UNL     1       8.698   9.089  17.780  0.00  0.00    +0.000 C 
ATOM     18  O   UNL     1       8.364   7.062  19.017  0.00  0.00    +0.000 OA
ATOM     19  H   UNL     1       6.640   8.189  16.602  0.00  0.00    +0.000 HD
ENDBRANCH   4  15
BRANCH   1  20
ATOM     20  C   UNL     1       6.592   4.527  13.705  0.00  0.00    +0.000 C 
ATOM     21  O   UNL     1       7.518   4.932  13.018  0.00  0.00    +0.000 OA
BRANCH  20  22
ATOM     22  O   UNL     1       5.654   3.628  13.307  0.00  0.00    +0.000 OA
BRANCH  22  24
ATOM     23  C   UNL     1       4.322   3.160  11.336  0.00  0.00    +0.000 C 
ATOM     24  C   UNL     1       5.715   3.229  11.930  0.00  0.00    +0.000 C 
ENDBRANCH  22  24
ENDBRANCH  20  22
ENDBRANCH   1  20
BRANCH   3  25
ATOM     25  O   UNL     1       3.586   5.817  17.042  0.00  0.00    +0.000 OA
BRANCH  25  26
ATOM     26  C   UNL     1       2.868   6.487  18.087  0.00  0.00    +0.000 C 
BRANCH  26  27
ATOM     27  C   UNL     1       2.262   7.844  17.673  0.00  0.00    +0.000 C 
ATOM     28  C   UNL     1       1.803   8.750  18.806  0.00  0.00    +0.000 C 
ENDBRANCH  26  27
BRANCH  26  29
ATOM     29  C   UNL     1       1.806   5.511  18.617  0.00  0.00    +0.000 C 
ATOM     30  C   UNL     1       1.673   4.287  17.717  0.00  0.00    +0.000 C 
ENDBRANCH  26  29
ENDBRANCH  25  26
ENDBRANCH   3  25
TORSDOF 9
ENDMDL
MODEL 6
REMARK VINA RESULT:      -6.7      0.927      1.310
REMARK  Name = 
REMARK  13 active torsions:
REMARK  status: ('A' for Active; 'I' for Inactive)
REMARK    1  A    between atoms: C_1  and  C_2
REMARK    2  A    between atoms: C_2  and  O_3
REMARK    3  A    between atoms: O_3  and  C_4
REMARK    4  A    between atoms: C_4  and  C_6
REMARK    5  A    between atoms: C_8  and  O_9
REMARK    6  A    between atoms: O_9  and  C_10
REMARK    7  A    between atoms: C_10  and  C_11
REMARK    8  A    between atoms: C_10  and  C_13
REMARK    9  A    between atoms: C_11  and  C_12
REMARK   10  A    between atoms: C_13  and  C_14
REMARK   11  A    between atoms: C_15  and  N_16
REMARK   12  A    between atoms: C_17  and  C_18
REMARK   13  A    between atoms: C_20  and  N_21
REMARK                            x       y       z     vdW  Elec       q    Type
REMARK                         _______ _______ _______ _____ _____    ______ ____
ROOT
ATOM      1  C   UNL     1       5.309   5.130  15.917  0.00  0.00    +0.000 C 
ATOM      2  C   UNL     1       4.391   4.367  16.541  0.00  0.00    +0.000 C 
ATOM      3  C   UNL     1       3.760   4.706  17.866  0.00  0.00    +0.000 C 
ATOM      4  C   UNL     1       4.102   6.149  18.346  0.00  0.00    +0.000 C 
ATOM      5  C   UNL     1       5.575   6.532  18.049  0.00  0.00    +0.000 C 
ATOM      6  C   UNL     1       5.884   6.372  16.548  0.00  0.00    +0.000 C 
ENDROOT
BRANCH   5   7
ATOM      7  N   UNL     1       6.506   5.710  18.833  0.00  0.00    +0.000 N 
ATOM      8  C   UNL     1       7.815   5.980  18.989  0.00  0.00    +0.000 C 
ATOM      9  N   UNL     1       8.408   7.116  18.999  0.00  0.00    +0.000 NA
ATOM     10  N   UNL     1       8.544   4.859  19.167  0.00  0.00    +0.000 N 
ATOM     11  H   UNL     1       6.327   4.716  18.732  0.00  0.00    +0.000 HD
ATOM     12  H   UNL     1       7.724   7.867  18.892  0.00  0.00    +0.000 HD
ATOM     13  H   UNL     1       8.147   4.212  19.839  0.00  0.00    +0.000 HD
ATOM     14  H   UNL     1       9.491   5.112  19.433  0.00  0.00    +0.000 HD
ENDBRANCH   5   7
BRANCH   4  15
ATOM     15  N   UNL     1       3.144   7.104  17.751  0.00  0.00    +0.000 N 
ATOM     16  C   UNL     1       2.280   7.842  18.523  0.00  0.00    +0.000 C 
ATOM     17  C   UNL     1       1.314   8.689  17.735  0.00  0.00    +0.000 C 
ATOM     18  O   UNL     1       2.264   7.793  19.746  0.00  0.00    +0.000 OA
ATOM     19  H   UNL     1       3.142   7.233  16.747  0.00  0.00    +0.000 HD
ENDBRANCH   4  15
BRANCH   1  20
ATOM     20  C   UNL     1       5.810   4.787  14.554  0.00  0.00    +0.000 C 
ATOM     21  O   UNL     1       5.201   4.085  13.761  0.00  0.00    +0.000 OA
BRANCH  20  22
ATOM     22  O   UNL     1       7.070   5.265  14.374  0.00  0.00    +0.000 OA
BRANCH  22  24
ATOM     23  C   UNL     1       8.354   6.039  12.469  0.00  0.00    +0.000 C 
ATOM     24  C   UNL     1       7.730   4.848  13.169  0.00  0.00    +0.000 C 
ENDBRANCH  22  24
ENDBRANCH  20  22
ENDBRANCH   1  20
BRANCH   3  25
ATOM     25  O   UNL     1       4.106   3.643  18.752  0.00  0.00    +0.000 OA
BRANCH  25  26
ATOM     26  C   UNL     1       3.025   2.957  19.400  0.00  0.00    +0.000 C 
BRANCH  26  27
ATOM     27  C   UNL     1       2.255   3.811  20.427  0.00  0.00    +0.000 C 
ATOM     28  C   UNL     1       2.172   3.253  21.840  0.00  0.00    +0.000 C 
ENDBRANCH  26  27
BRANCH  26  29
ATOM     29  C   UNL     1       2.109   2.397  18.301  0.00  0.00    +0.000 C 
ATOM     30  C   UNL     1       0.639   2.477  18.704  0.00  0.00    +0.000 C 
ENDBRANCH  26  29
ENDBRANCH  25  26
ENDBRANCH   3  25
TORSDOF 9
ENDMDL
MODEL 7
REMARK VINA RESULT:      -6.7      1.672      5.255
REMARK  Name = 
REMARK  13 active torsions:
REMARK  status: ('A' for Active; 'I' for Inactive)
REMARK    1  A    between atoms: C_1  and  C_2
REMARK    2  A    between atoms: C_2  and  O_3
REMARK    3  A    between atoms: O_3  and  C_4
REMARK    4  A    between atoms: C_4  and  C_6
REMARK    5  A    between atoms: C_8  and  O_9
REMARK    6  A    between atoms: O_9  and  C_10
REMARK    7  A    between atoms: C_10  and  C_11
REMARK    8  A    between atoms: C_10  and  C_13
REMARK    9  A    between atoms: C_11  and  C_12
REMARK   10  A    between atoms: C_13  and  C_14
REMARK   11  A    between atoms: C_15  and  N_16
REMARK   12  A    between atoms: C_17  and  C_18
REMARK   13  A    between atoms: C_20  and  N_21
REMARK                            x       y       z     vdW  Elec       q    Type
REMARK                         _______ _______ _______ _____ _____    ______ ____
ROOT
ATOM      1  C   UNL     1       3.437   3.441  18.012  0.00  0.00    +0.000 C 
ATOM      2  C   UNL     1       3.034   4.677  17.662  0.00  0.00    +0.000 C 
ATOM      3  C   UNL     1       3.920   5.712  17.018  0.00  0.00    +0.000 C 
ATOM      4  C   UNL     1       5.301   5.137  16.582  0.00  0.00    +0.000 C 
ATOM      5  C   UNL     1       5.875   4.137  17.620  0.00  0.00    +0.000 C 
ATOM      6  C   UNL     1       4.873   2.999  17.887  0.00  0.00    +0.000 C 
ENDROOT
BRANCH   5   7
ATOM      7  N   UNL     1       6.200   4.812  18.883  0.00  0.00    +0.000 N 
ATOM      8  C   UNL     1       7.227   5.665  19.051  0.00  0.00    +0.000 C 
ATOM      9  N   UNL     1       7.767   6.451  18.196  0.00  0.00    +0.000 NA
ATOM     10  N   UNL     1       7.696   5.650  20.315  0.00  0.00    +0.000 N 
ATOM     11  H   UNL     1       6.062   4.213  19.692  0.00  0.00    +0.000 HD
ATOM     12  H   UNL     1       7.282   6.380  17.300  0.00  0.00    +0.000 HD
ATOM     13  H   UNL     1       6.972   5.692  21.023  0.00  0.00    +0.000 HD
ATOM     14  H   UNL     1       8.359   6.409  20.437  0.00  0.00    +0.000 HD
ENDBRANCH   5   7
BRANCH   4  15
ATOM     15  N   UNL     1       5.180   4.538  15.236  0.00  0.00    +0.000 N 
ATOM     16  C   UNL     1       6.262   4.401  14.402  0.00  0.00    +0.000 C 
ATOM     17  C   UNL     1       5.928   3.859  13.036  0.00  0.00    +0.000 C 
ATOM     18  O   UNL     1       7.399   4.727  14.719  0.00  0.00    +0.000 OA
ATOM     19  H   UNL     1       4.276   4.198  14.932  0.00  0.00    +0.000 HD
ENDBRANCH   4  15
BRANCH   1  20
ATOM     20  C   UNL     1       2.477   2.431  18.545  0.00  0.00    +0.000 C 
ATOM     21  O   UNL     1       1.412   2.155  18.014  0.00  0.00    +0.000 OA
BRANCH  20  22
ATOM     22  O   UNL     1       2.900   1.958  19.747  0.00  0.00    +0.000 OA
BRANCH  22  24
ATOM     23  C   UNL     1       1.327   3.091  21.203  0.00  0.00    +0.000 C 
ATOM     24  C   UNL     1       2.784   2.868  20.852  0.00  0.00    +0.000 C 
ENDBRANCH  22  24
ENDBRANCH  20  22
ENDBRANCH   1  20
BRANCH   3  25
ATOM     25  O   UNL     1       3.948   6.821  17.915  0.00  0.00    +0.000 OA
BRANCH  25  26
ATOM     26  C   UNL     1       2.690   7.269  18.437  0.00  0.00    +0.000 C 
BRANCH  26  27
ATOM     27  C   UNL     1       2.469   6.944  19.928  0.00  0.00    +0.000 C 
ATOM     28  C   UNL     1       1.582   7.908  20.703  0.00  0.00    +0.000 C 
ENDBRANCH  26  27
BRANCH  26  29
ATOM     29  C   UNL     1       2.577   8.773  18.145  0.00  0.00    +0.000 C 
ATOM     30  C   UNL     1       1.190   9.139  17.625  0.00  0.00    +0.000 C 
ENDBRANCH  26  29
ENDBRANCH  25  26
ENDBRANCH   3  25
TORSDOF 9
ENDMDL
MODEL 8
REMARK VINA RESULT:      -6.6      0.907      1.799
REMARK  Name = 
REMARK  13 active torsions:
REMARK  status: ('A' for Active; 'I' for Inactive)
REMARK    1  A    between atoms: C_1  and  C_2
REMARK    2  A    between atoms: C_2  and  O_3
REMARK    3  A    between atoms: O_3  and  C_4
REMARK    4  A    between atoms: C_4  and  C_6
REMARK    5  A    between atoms: C_8  and  O_9
REMARK    6  A    between atoms: O_9  and  C_10
REMARK    7  A    between atoms: C_10  and  C_11
REMARK    8  A    between atoms: C_10  and  C_13
REMARK    9  A    between atoms: C_11  and  C_12
REMARK   10  A    between atoms: C_13  and  C_14
REMARK   11  A    between atoms: C_15  and  N_16
REMARK   12  A    between atoms: C_17  and  C_18
REMARK   13  A    between atoms: C_20  and  N_21
REMARK                            x       y       z     vdW  Elec       q    Type
REMARK                         _______ _______ _______ _____ _____    ______ ____
ROOT
ATOM      1  C   UNL     1       5.270   5.131  15.859  0.00  0.00    +0.000 C 
ATOM      2  C   UNL     1       4.311   4.443  16.507  0.00  0.00    +0.000 C 
ATOM      3  C   UNL     1       3.710   4.855  17.826  0.00  0.00    +0.000 C 
ATOM      4  C   UNL     1       4.142   6.286  18.265  0.00  0.00    +0.000 C 
ATOM      5  C   UNL     1       5.633   6.572  17.951  0.00  0.00    +0.000 C 
ATOM      6  C   UNL     1       5.923   6.352  16.454  0.00  0.00    +0.000 C 
ENDROOT
BRANCH   5   7
ATOM      7  N   UNL     1       6.518   5.716  18.753  0.00  0.00    +0.000 N 
ATOM      8  C   UNL     1       7.819   5.969  18.985  0.00  0.00    +0.000 C 
ATOM      9  N   UNL     1       8.418   7.099  19.062  0.00  0.00    +0.000 NA
ATOM     10  N   UNL     1       8.529   4.836  19.162  0.00  0.00    +0.000 N 
ATOM     11  H   UNL     1       6.337   4.727  18.610  0.00  0.00    +0.000 HD
ATOM     12  H   UNL     1       7.746   7.859  18.946  0.00  0.00    +0.000 HD
ATOM     13  H   UNL     1       8.095   4.171  19.791  0.00  0.00    +0.000 HD
ATOM     14  H   UNL     1       9.463   5.073  19.484  0.00  0.00    +0.000 HD
ENDBRANCH   5   7
BRANCH   4  15
ATOM     15  N   UNL     1       3.239   7.282  17.648  0.00  0.00    +0.000 N 
ATOM     16  C   UNL     1       2.314   7.979  18.385  0.00  0.00    +0.000 C 
ATOM     17  C   UNL     1       1.421   8.877  17.569  0.00  0.00    +0.000 C 
ATOM     18  O   UNL     1       2.193   7.857  19.597  0.00  0.00    +0.000 OA
ATOM     19  H   UNL     1       3.325   7.470  16.657  0.00  0.00    +0.000 HD
ENDBRANCH   4  15
BRANCH   1  20
ATOM     20  C   UNL     1       5.742   4.721  14.504  0.00  0.00    +0.000 C 
ATOM     21  O   UNL     1       5.082   4.045  13.728  0.00  0.00    +0.000 OA
BRANCH  20  22
ATOM     22  O   UNL     1       7.031   5.104  14.312  0.00  0.00    +0.000 OA
BRANCH  22  24
ATOM     23  C   UNL     1       8.605   5.984  12.690  0.00  0.00    +0.000 C 
ATOM     24  C   UNL     1       7.537   4.947  12.977  0.00  0.00    +0.000 C 
ENDBRANCH  22  24
ENDBRANCH  20  22
ENDBRANCH   1  20
BRANCH   3  25
ATOM     25  O   UNL     1       3.995   3.797  18.739  0.00  0.00    +0.000 OA
BRANCH  25  26
ATOM     26  C   UNL     1       2.882   3.210  19.425  0.00  0.00    +0.000 C 
BRANCH  26  27
ATOM     27  C   UNL     1       2.112   2.156  18.603  0.00  0.00    +0.000 C 
ATOM     28  C   UNL     1       0.594   2.265  18.620  0.00  0.00    +0.000 C 
ENDBRANCH  26  27
BRANCH  26  29
ATOM     29  C   UNL     1       3.403   2.645  20.755  0.00  0.00    +0.000 C 
ATOM     30  C   UNL     1       2.329   2.684  21.839  0.00  0.00    +0.000 C 
ENDBRANCH  26  29
ENDBRANCH  25  26
ENDBRANCH   3  25
TORSDOF 9
ENDMDL
MODEL 9
REMARK VINA RESULT:      -6.5      2.805      5.244
REMARK  Name = 
REMARK  13 active torsions:
REMARK  status: ('A' for Active; 'I' for Inactive)
REMARK    1  A    between atoms: C_1  and  C_2
REMARK    2  A    between atoms: C_2  and  O_3
REMARK    3  A    between atoms: O_3  and  C_4
REMARK    4  A    between atoms: C_4  and  C_6
REMARK    5  A    between atoms: C_8  and  O_9
REMARK    6  A    between atoms: O_9  and  C_10
REMARK    7  A    between atoms: C_10  and  C_11
REMARK    8  A    between atoms: C_10  and  C_13
REMARK    9  A    between atoms: C_11  and  C_12
REMARK   10  A    between atoms: C_13  and  C_14
REMARK   11  A    between atoms: C_15  and  N_16
REMARK   12  A    between atoms: C_17  and  C_18
REMARK   13  A    between atoms: C_20  and  N_21
REMARK                            x       y       z     vdW  Elec       q    Type
REMARK                         _______ _______ _______ _____ _____    ______ ____
ROOT
ATOM      1  C   UNL     1       5.943   5.156  19.073  0.00  0.00    +0.000 C 
ATOM      2  C   UNL     1       4.925   5.981  19.381  0.00  0.00    +0.000 C 
ATOM      3  C   UNL     1       3.479   5.709  19.054  0.00  0.00    +0.000 C 
ATOM      4  C   UNL     1       3.242   4.263  18.523  0.00  0.00    +0.000 C 
ATOM      5  C   UNL     1       4.372   3.796  17.569  0.00  0.00    +0.000 C 
ATOM      6  C   UNL     1       5.744   3.902  18.261  0.00  0.00    +0.000 C 
ENDROOT
BRANCH   5   7
ATOM      7  N   UNL     1       4.383   4.587  16.332  0.00  0.00    +0.000 N 
ATOM      8  C   UNL     1       5.352   4.533  15.400  0.00  0.00    +0.000 C 
ATOM      9  N   UNL     1       6.106   3.548  15.079  0.00  0.00    +0.000 NA
ATOM     10  N   UNL     1       5.489   5.704  14.745  0.00  0.00    +0.000 N 
ATOM     11  H   UNL     1       4.035   5.531  16.471  0.00  0.00    +0.000 HD
ATOM     12  H   UNL     1       5.860   2.726  15.632  0.00  0.00    +0.000 HD
ATOM     13  H   UNL     1       4.612   6.110  14.440  0.00  0.00    +0.000 HD
ATOM     14  H   UNL     1       6.116   5.576  13.956  0.00  0.00    +0.000 HD
ENDBRANCH   5   7
BRANCH   4  15
ATOM     15  N   UNL     1       3.060   3.344  19.667  0.00  0.00    +0.000 N 
ATOM     16  C   UNL     1       1.882   3.286  20.371  0.00  0.00    +0.000 C 
ATOM     17  C   UNL     1       1.916   2.362  21.561  0.00  0.00    +0.000 C 
ATOM     18  O   UNL     1       0.897   3.955  20.087  0.00  0.00    +0.000 OA
ATOM     19  H   UNL     1       3.818   2.724  19.921  0.00  0.00    +0.000 HD
ENDBRANCH   4  15
BRANCH   1  20
ATOM     20  C   UNL     1       7.337   5.438  19.525  0.00  0.00    +0.000 C 
ATOM     21  O   UNL     1       7.729   5.276  20.671  0.00  0.00    +0.000 OA
BRANCH  20  22
ATOM     22  O   UNL     1       8.060   6.001  18.521  0.00  0.00    +0.000 OA
BRANCH  22  24
ATOM     23  C   UNL     1       7.616   8.127  17.442  0.00  0.00    +0.000 C 
ATOM     24  C   UNL     1       8.262   7.419  18.617  0.00  0.00    +0.000 C 
ENDBRANCH  22  24
ENDBRANCH  20  22
ENDBRANCH   1  20
BRANCH   3  25
ATOM     25  O   UNL     1       3.058   6.775  18.204  0.00  0.00    +0.000 OA
BRANCH  25  26
ATOM     26  C   UNL     1       2.479   7.923  18.838  0.00  0.00    +0.000 C 
BRANCH  26  27
ATOM     27  C   UNL     1       1.584   8.775  17.914  0.00  0.00    +0.000 C 
ATOM     28  C   UNL     1       1.882  10.268  17.878  0.00  0.00    +0.000 C 
ENDBRANCH  26  27
BRANCH  26  29
ATOM     29  C   UNL     1       1.729   7.434  20.086  0.00  0.00    +0.000 C 
ATOM     30  C   UNL     1       1.219   8.602  20.925  0.00  0.00    +0.000 C 
ENDBRANCH  26  29
ENDBRANCH  25  26
ENDBRANCH   3  25
TORSDOF 9
ENDMDL
