MODEL 1
REMARK VINA RESULT:      -7.8      0.000      0.000
REMARK  Name = 
REMARK  3 active torsions:
REMARK  status: ('A' for Active; 'I' for Inactive)
REMARK    1  A    between atoms: C_5  and  N_6
REMARK    2  A    between atoms: N_6  and  C_7
REMARK    3  A    between atoms: C_14  and  C_15
REMARK                            x       y       z     vdW  Elec       q    Type
REMARK                         _______ _______ _______ _____ _____    ______ ____
ROOT
ATOM      1  O   UNL     1       0.465   9.790  21.789  0.00  0.00    +0.000 OA
ATOM      2  C   UNL     1       0.984   9.112  20.908  0.00  0.00    +0.000 A 
ATOM      3  N   UNL     1       1.487   7.861  21.173  0.00  0.00    +0.000 N 
ATOM      4  C   UNL     1       2.108   7.067  20.246  0.00  0.00    +0.000 A 
ATOM      5  C   UNL     1       2.282   7.467  18.971  0.00  0.00    +0.000 A 
ATOM      6  C   UNL     1       1.734   8.770  18.602  0.00  0.00    +0.000 A 
ATOM      7  C   UNL     1       1.120   9.576  19.489  0.00  0.00    +0.000 A 
ATOM      8  H   UNL     1       1.388   7.544  22.131  0.00  0.00    +0.000 HD
ENDROOT
BRANCH   7   9
ATOM      9  C   UNL     1       0.625  10.893  19.075  0.00  0.00    +0.000 A 
ATOM     10  C   UNL     1       1.423  12.043  19.166  0.00  0.00    +0.000 A 
ATOM     11  C   UNL     1       0.935  13.281  18.752  0.00  0.00    +0.000 A 
ATOM     12  C   UNL     1      -0.358  13.411  18.238  0.00  0.00    +0.000 A 
ATOM     13  C   UNL     1      -1.144  12.255  18.153  0.00  0.00    +0.000 A 
ATOM     14  N   UNL     1      -2.435  12.097  17.698  0.00  0.00    +0.000 N 
ATOM     15  C   UNL     1      -2.810  10.784  17.785  0.00  0.00    +0.000 A 
ATOM     16  C   UNL     1      -1.757  10.081  18.323  0.00  0.00    +0.000 A 
ATOM     17  C   UNL     1      -0.689  10.998  18.559  0.00  0.00    +0.000 A 
ATOM     18  H   UNL     1      -3.015  12.849  17.350  0.00  0.00    +0.000 HD
ENDBRANCH   7   9
BRANCH   5  19
ATOM     19  N   UNL     1       2.906   6.715  17.997  0.00  0.00    +0.000 N 
ATOM     20  H   UNL     1       3.681   7.180  17.532  0.00  0.00    +0.000 HD
BRANCH  19  21
ATOM     21  C   UNL     1       3.034   5.305  17.985  0.00  0.00    +0.000 A 
ATOM     22  C   UNL     1       1.911   4.511  17.731  0.00  0.00    +0.000 A 
ATOM     23  C   UNL     1       1.999   3.119  17.787  0.00  0.00    +0.000 A 
ATOM     24  C   UNL     1       3.216   2.548  18.116  0.00  0.00    +0.000 A 
ATOM     25  N   UNL     1       4.325   3.264  18.376  0.00  0.00    +0.000 NA
ATOM     26  C   UNL     1       4.205   4.614  18.307  0.00  0.00    +0.000 A 
ENDBRANCH  19  21
ENDBRANCH   5  19
TORSDOF 3
ENDMDL
MODEL 2
REMARK VINA RESULT:      -7.8      0.635      1.010
REMARK  Name = 
REMARK  3 active torsions:
REMARK  status: ('A' for Active; 'I' for Inactive)
REMARK    1  A    between atoms: C_5  and  N_6
REMARK    2  A    between atoms: N_6  and  C_7
REMARK    3  A    between atoms: C_14  and  C_15
REMARK                            x       y       z     vdW  Elec       q    Type
REMARK                         _______ _______ _______ _____ _____    ______ ____
ROOT
ATOM      1  O   UNL     1       0.564   9.859  21.810  0.00  0.00    +0.000 OA
ATOM      2  C   UNL     1       1.043   9.159  20.924  0.00  0.00    +0.000 A 
ATOM      3  N   UNL     1       1.540   7.906  21.193  0.00  0.00    +0.000 N 
ATOM      4  C   UNL     1       2.117   7.089  20.260  0.00  0.00    +0.000 A 
ATOM      5  C   UNL     1       2.252   7.464  18.973  0.00  0.00    +0.000 A 
ATOM      6  C   UNL     1       1.708   8.767  18.599  0.00  0.00    +0.000 A 
ATOM      7  C   UNL     1       1.135   9.597  19.493  0.00  0.00    +0.000 A 
ATOM      8  H   UNL     1       1.470   7.607  22.159  0.00  0.00    +0.000 HD
ENDROOT
BRANCH   7   9
ATOM      9  C   UNL     1       0.643  10.913  19.073  0.00  0.00    +0.000 A 
ATOM     10  C   UNL     1       1.446  12.061  19.153  0.00  0.00    +0.000 A 
ATOM     11  C   UNL     1       0.960  13.298  18.734  0.00  0.00    +0.000 A 
ATOM     12  C   UNL     1      -0.335  13.429  18.226  0.00  0.00    +0.000 A 
ATOM     13  C   UNL     1      -1.125  12.276  18.152  0.00  0.00    +0.000 A 
ATOM     14  N   UNL     1      -2.419  12.120  17.704  0.00  0.00    +0.000 N 
ATOM     15  C   UNL     1      -2.798  10.809  17.801  0.00  0.00    +0.000 A 
ATOM     16  C   UNL     1      -1.746  10.105  18.338  0.00  0.00    +0.000 A 
ATOM     17  C   UNL     1      -0.673  11.020  18.563  0.00  0.00    +0.000 A 
ATOM     18  H   UNL     1      -2.998  12.871  17.355  0.00  0.00    +0.000 HD
ENDBRANCH   7   9
BRANCH   5  19
ATOM     19  N   UNL     1       2.832   6.687  17.990  0.00  0.00    +0.000 N 
ATOM     20  H   UNL     1       3.655   7.097  17.555  0.00  0.00    +0.000 HD
BRANCH  19  21
ATOM     21  C   UNL     1       2.840   5.272  17.941  0.00  0.00    +0.000 A 
ATOM     22  C   UNL     1       4.059   4.587  17.968  0.00  0.00    +0.000 A 
ATOM     23  C   UNL     1       4.093   3.196  17.847  0.00  0.00    +0.000 A 
ATOM     24  C   UNL     1       2.898   2.519  17.683  0.00  0.00    +0.000 A 
ATOM     25  N   UNL     1       1.699   3.129  17.642  0.00  0.00    +0.000 NA
ATOM     26  C   UNL     1       1.702   4.481  17.769  0.00  0.00    +0.000 A 
ENDBRANCH  19  21
ENDBRANCH   5  19
TORSDOF 3
ENDMDL
MODEL 3
REMARK VINA RESULT:      -7.7      1.323      1.876
REMARK  Name = 
REMARK  3 active torsions:
REMARK  status: ('A' for Active; 'I' for Inactive)
REMARK    1  A    between atoms: C_5  and  N_6
REMARK    2  A    between atoms: N_6  and  C_7
REMARK    3  A    between atoms: C_14  and  C_15
REMARK                            x       y       z     vdW  Elec       q    Type
REMARK                         _______ _______ _______ _____ _____    ______ ____
ROOT
ATOM      1  O   UNL     1       0.408   9.519  21.626  0.00  0.00    +0.000 OA
ATOM      2  C   UNL     1       0.990   8.900  20.742  0.00  0.00    +0.000 A 
ATOM      3  N   UNL     1       1.519   7.653  20.974  0.00  0.00    +0.000 N 
ATOM      4  C   UNL     1       2.209   6.922  20.044  0.00  0.00    +0.000 A 
ATOM      5  C   UNL     1       2.431   7.387  18.799  0.00  0.00    +0.000 A 
ATOM      6  C   UNL     1       1.861   8.689  18.462  0.00  0.00    +0.000 A 
ATOM      7  C   UNL     1       1.179   9.434  19.354  0.00  0.00    +0.000 A 
ATOM      8  H   UNL     1       1.384   7.288  21.910  0.00  0.00    +0.000 HD
ENDROOT
BRANCH   7   9
ATOM      9  C   UNL     1       0.663  10.754  18.976  0.00  0.00    +0.000 A 
ATOM     10  C   UNL     1       1.442  11.914  19.103  0.00  0.00    +0.000 A 
ATOM     11  C   UNL     1       0.934  13.156  18.724  0.00  0.00    +0.000 A 
ATOM     12  C   UNL     1      -0.359  13.278  18.210  0.00  0.00    +0.000 A 
ATOM     13  C   UNL     1      -1.126  12.112  18.089  0.00  0.00    +0.000 A 
ATOM     14  N   UNL     1      -2.412  11.946  17.625  0.00  0.00    +0.000 N 
ATOM     15  C   UNL     1      -2.766  10.625  17.673  0.00  0.00    +0.000 A 
ATOM     16  C   UNL     1      -1.703   9.924  18.194  0.00  0.00    +0.000 A 
ATOM     17  C   UNL     1      -0.651  10.852  18.460  0.00  0.00    +0.000 A 
ATOM     18  H   UNL     1      -3.004  12.697  17.298  0.00  0.00    +0.000 HD
ENDBRANCH   7   9
BRANCH   5  19
ATOM     19  N   UNL     1       3.125   6.700  17.823  0.00  0.00    +0.000 N 
ATOM     20  H   UNL     1       2.885   6.959  16.869  0.00  0.00    +0.000 HD
BRANCH  19  21
ATOM     21  C   UNL     1       4.445   6.199  17.934  0.00  0.00    +0.000 A 
ATOM     22  C   UNL     1       5.468   6.773  17.173  0.00  0.00    +0.000 A 
ATOM     23  C   UNL     1       6.761   6.246  17.211  0.00  0.00    +0.000 A 
ATOM     24  C   UNL     1       6.998   5.138  18.005  0.00  0.00    +0.000 A 
ATOM     25  N   UNL     1       6.049   4.543  18.751  0.00  0.00    +0.000 NA
ATOM     26  C   UNL     1       4.806   5.084  18.694  0.00  0.00    +0.000 A 
ENDBRANCH  19  21
ENDBRANCH   5  19
TORSDOF 3
ENDMDL
MODEL 4
REMARK VINA RESULT:      -7.6      2.817      7.875
REMARK  Name = 
REMARK  3 active torsions:
REMARK  status: ('A' for Active; 'I' for Inactive)
REMARK    1  A    between atoms: C_5  and  N_6
REMARK    2  A    between atoms: N_6  and  C_7
REMARK    3  A    between atoms: C_14  and  C_15
REMARK                            x       y       z     vdW  Elec       q    Type
REMARK                         _______ _______ _______ _____ _____    ______ ____
ROOT
ATOM      1  O   UNL     1       2.882   2.267  18.779  0.00  0.00    +0.000 OA
ATOM      2  C   UNL     1       2.683   3.385  19.241  0.00  0.00    +0.000 A 
ATOM      3  N   UNL     1       1.714   3.605  20.190  0.00  0.00    +0.000 N 
ATOM      4  C   UNL     1       1.418   4.830  20.721  0.00  0.00    +0.000 A 
ATOM      5  C   UNL     1       2.068   5.947  20.338  0.00  0.00    +0.000 A 
ATOM      6  C   UNL     1       3.144   5.788  19.362  0.00  0.00    +0.000 A 
ATOM      7  C   UNL     1       3.460   4.596  18.819  0.00  0.00    +0.000 A 
ATOM      8  H   UNL     1       1.195   2.784  20.482  0.00  0.00    +0.000 HD
ENDROOT
BRANCH   7   9
ATOM      9  C   UNL     1       4.521   4.500  17.811  0.00  0.00    +0.000 A 
ATOM     10  C   UNL     1       4.261   4.057  16.506  0.00  0.00    +0.000 A 
ATOM     11  C   UNL     1       5.285   3.987  15.562  0.00  0.00    +0.000 A 
ATOM     12  C   UNL     1       6.592   4.354  15.889  0.00  0.00    +0.000 A 
ATOM     13  C   UNL     1       6.838   4.793  17.196  0.00  0.00    +0.000 A 
ATOM     14  N   UNL     1       8.015   5.205  17.782  0.00  0.00    +0.000 N 
ATOM     15  C   UNL     1       7.796   5.561  19.085  0.00  0.00    +0.000 A 
ATOM     16  C   UNL     1       6.463   5.359  19.357  0.00  0.00    +0.000 A 
ATOM     17  C   UNL     1       5.838   4.876  18.168  0.00  0.00    +0.000 A 
ATOM     18  H   UNL     1       8.908   5.238  17.310  0.00  0.00    +0.000 HD
ENDBRANCH   7   9
BRANCH   5  19
ATOM     19  N   UNL     1       1.808   7.209  20.831  0.00  0.00    +0.000 N 
ATOM     20  H   UNL     1       2.338   7.459  21.663  0.00  0.00    +0.000 HD
BRANCH  19  21
ATOM     21  C   UNL     1       1.429   8.341  20.070  0.00  0.00    +0.000 A 
ATOM     22  C   UNL     1       1.929   8.500  18.774  0.00  0.00    +0.000 A 
ATOM     23  C   UNL     1       1.627   9.645  18.033  0.00  0.00    +0.000 A 
ATOM     24  C   UNL     1       0.838  10.620  18.618  0.00  0.00    +0.000 A 
ATOM     25  N   UNL     1       0.337  10.521  19.863  0.00  0.00    +0.000 NA
ATOM     26  C   UNL     1       0.646   9.393  20.552  0.00  0.00    +0.000 A 
ENDBRANCH  19  21
ENDBRANCH   5  19
TORSDOF 3
ENDMDL
MODEL 5
REMARK VINA RESULT:      -7.6      3.112      4.736
REMARK  Name = 
REMARK  3 active torsions:
REMARK  status: ('A' for Active; 'I' for Inactive)
REMARK    1  A    between atoms: C_5  and  N_6
REMARK    2  A    between atoms: N_6  and  C_7
REMARK    3  A    between atoms: C_14  and  C_15
REMARK                            x       y       z     vdW  Elec       q    Type
REMARK                         _______ _______ _______ _____ _____    ______ ____
ROOT
ATOM      1  O   UNL     1       0.824   4.139  20.669  0.00  0.00    +0.000 OA
ATOM      2  C   UNL     1       1.942   4.183  20.167  0.00  0.00    +0.000 A 
ATOM      3  N   UNL     1       2.636   3.035  19.866  0.00  0.00    +0.000 N 
ATOM      4  C   UNL     1       3.897   3.013  19.337  0.00  0.00    +0.000 A 
ATOM      5  C   UNL     1       4.576   4.146  19.070  0.00  0.00    +0.000 A 
ATOM      6  C   UNL     1       3.887   5.409  19.324  0.00  0.00    +0.000 A 
ATOM      7  C   UNL     1       2.646   5.466  19.845  0.00  0.00    +0.000 A 
ATOM      8  H   UNL     1       2.156   2.167  20.076  0.00  0.00    +0.000 HD
ENDROOT
BRANCH   7   9
ATOM      9  C   UNL     1       2.016   6.763  20.119  0.00  0.00    +0.000 A 
ATOM     10  C   UNL     1       1.367   7.026  21.335  0.00  0.00    +0.000 A 
ATOM     11  C   UNL     1       0.789   8.270  21.576  0.00  0.00    +0.000 A 
ATOM     12  C   UNL     1       0.838   9.286  20.619  0.00  0.00    +0.000 A 
ATOM     13  C   UNL     1       1.488   9.010  19.409  0.00  0.00    +0.000 A 
ATOM     14  N   UNL     1       1.678   9.813  18.306  0.00  0.00    +0.000 N 
ATOM     15  C   UNL     1       2.380   9.138  17.345  0.00  0.00    +0.000 A 
ATOM     16  C   UNL     1       2.634   7.873  17.820  0.00  0.00    +0.000 A 
ATOM     17  C   UNL     1       2.079   7.774  19.132  0.00  0.00    +0.000 A 
ATOM     18  H   UNL     1       1.344  10.763  18.226  0.00  0.00    +0.000 HD
ENDBRANCH   7   9
BRANCH   5  19
ATOM     19  N   UNL     1       5.852   4.186  18.545  0.00  0.00    +0.000 N 
ATOM     20  H   UNL     1       6.511   3.546  18.981  0.00  0.00    +0.000 HD
BRANCH  19  21
ATOM     21  C   UNL     1       6.194   4.488  17.205  0.00  0.00    +0.000 A 
ATOM     22  C   UNL     1       5.598   3.772  16.162  0.00  0.00    +0.000 A 
ATOM     23  C   UNL     1       5.976   4.002  14.838  0.00  0.00    +0.000 A 
ATOM     24  C   UNL     1       6.961   4.940  14.586  0.00  0.00    +0.000 A 
ATOM     25  N   UNL     1       7.572   5.651  15.552  0.00  0.00    +0.000 NA
ATOM     26  C   UNL     1       7.177   5.406  16.828  0.00  0.00    +0.000 A 
ENDBRANCH  19  21
ENDBRANCH   5  19
TORSDOF 3
ENDMDL
MODEL 6
REMARK VINA RESULT:      -7.6      1.779      7.277
REMARK  Name = 
REMARK  3 active torsions:
REMARK  status: ('A' for Active; 'I' for Inactive)
REMARK    1  A    between atoms: C_5  and  N_6
REMARK    2  A    between atoms: N_6  and  C_7
REMARK    3  A    between atoms: C_14  and  C_15
REMARK                            x       y       z     vdW  Elec       q    Type
REMARK                         _______ _______ _______ _____ _____    ______ ____
ROOT
ATOM      1  O   UNL     1       2.783   6.053  20.807  0.00  0.00    +0.000 OA
ATOM      2  C   UNL     1       2.314   6.984  20.162  0.00  0.00    +0.000 A 
ATOM      3  N   UNL     1       1.599   7.987  20.773  0.00  0.00    +0.000 N 
ATOM      4  C   UNL     1       1.021   9.036  20.110  0.00  0.00    +0.000 A 
ATOM      5  C   UNL     1       1.105   9.163  18.772  0.00  0.00    +0.000 A 
ATOM      6  C   UNL     1       1.886   8.158  18.055  0.00  0.00    +0.000 A 
ATOM      7  C   UNL     1       2.467   7.113  18.677  0.00  0.00    +0.000 A 
ATOM      8  H   UNL     1       1.503   7.904  21.778  0.00  0.00    +0.000 HD
ENDROOT
BRANCH   7   9
ATOM      9  C   UNL     1       3.206   6.109  17.904  0.00  0.00    +0.000 A 
ATOM     10  C   UNL     1       4.377   6.433  17.202  0.00  0.00    +0.000 A 
ATOM     11  C   UNL     1       5.069   5.458  16.486  0.00  0.00    +0.000 A 
ATOM     12  C   UNL     1       4.618   4.137  16.447  0.00  0.00    +0.000 A 
ATOM     13  C   UNL     1       3.447   3.827  17.151  0.00  0.00    +0.000 A 
ATOM     14  N   UNL     1       2.786   2.625  17.278  0.00  0.00    +0.000 N 
ATOM     15  C   UNL     1       1.681   2.775  18.072  0.00  0.00    +0.000 A 
ATOM     16  C   UNL     1       1.611   4.095  18.450  0.00  0.00    +0.000 A 
ATOM     17  C   UNL     1       2.727   4.778  17.879  0.00  0.00    +0.000 A 
ATOM     18  H   UNL     1       3.081   1.761  16.844  0.00  0.00    +0.000 HD
ENDBRANCH   7   9
BRANCH   5  19
ATOM     19  N   UNL     1       0.536  10.193  18.049  0.00  0.00    +0.000 N 
ATOM     20  H   UNL     1       1.002  10.403  17.170  0.00  0.00    +0.000 HD
BRANCH  19  21
ATOM     21  C   UNL     1      -0.836  10.543  18.034  0.00  0.00    +0.000 A 
ATOM     22  C   UNL     1      -1.710   9.874  17.173  0.00  0.00    +0.000 A 
ATOM     23  C   UNL     1      -3.051  10.254  17.089  0.00  0.00    +0.000 A 
ATOM     24  C   UNL     1      -3.487  11.314  17.864  0.00  0.00    +0.000 A 
ATOM     25  N   UNL     1      -2.686  11.996  18.703  0.00  0.00    +0.000 NA
ATOM     26  C   UNL     1      -1.390  11.597  18.764  0.00  0.00    +0.000 A 
ENDBRANCH  19  21
ENDBRANCH   5  19
TORSDOF 3
ENDMDL
MODEL 7
REMARK VINA RESULT:      -7.6      2.838      7.891
REMARK  Name = 
REMARK  3 active torsions:
REMARK  status: ('A' for Active; 'I' for Inactive)
REMARK    1  A    between atoms: C_5  and  N_6
REMARK    2  A    between atoms: N_6  and  C_7
REMARK    3  A    between atoms: C_14  and  C_15
REMARK                            x       y       z     vdW  Elec       q    Type
REMARK                         _______ _______ _______ _____ _____    ______ ____
ROOT
ATOM      1  O   UNL     1       2.549   2.385  18.225  0.00  0.00    +0.000 OA
ATOM      2  C   UNL     1       2.455   3.434  18.853  0.00  0.00    +0.000 A 
ATOM      3  N   UNL     1       1.460   3.624  19.782  0.00  0.00    +0.000 N 
ATOM      4  C   UNL     1       1.277   4.779  20.491  0.00  0.00    +0.000 A 
ATOM      5  C   UNL     1       2.078   5.850  20.324  0.00  0.00    +0.000 A 
ATOM      6  C   UNL     1       3.187   5.711  19.383  0.00  0.00    +0.000 A 
ATOM      7  C   UNL     1       3.394   4.588  18.668  0.00  0.00    +0.000 A 
ATOM      8  H   UNL     1       0.830   2.840  19.912  0.00  0.00    +0.000 HD
ENDROOT
BRANCH   7   9
ATOM      9  C   UNL     1       4.499   4.515  17.706  0.00  0.00    +0.000 A 
ATOM     10  C   UNL     1       4.298   4.096  16.382  0.00  0.00    +0.000 A 
ATOM     11  C   UNL     1       5.362   4.049  15.483  0.00  0.00    +0.000 A 
ATOM     12  C   UNL     1       6.652   4.416  15.873  0.00  0.00    +0.000 A 
ATOM     13  C   UNL     1       6.838   4.832  17.197  0.00  0.00    +0.000 A 
ATOM     14  N   UNL     1       7.986   5.240  17.841  0.00  0.00    +0.000 N 
ATOM     15  C   UNL     1       7.709   5.570  19.140  0.00  0.00    +0.000 A 
ATOM     16  C   UNL     1       6.366   5.356  19.350  0.00  0.00    +0.000 A 
ATOM     17  C   UNL     1       5.796   4.892  18.127  0.00  0.00    +0.000 A 
ATOM     18  H   UNL     1       8.899   5.286  17.409  0.00  0.00    +0.000 HD
ENDBRANCH   7   9
BRANCH   5  19
ATOM     19  N   UNL     1       1.937   7.043  21.003  0.00  0.00    +0.000 N 
ATOM     20  H   UNL     1       2.673   7.238  21.677  0.00  0.00    +0.000 HD
BRANCH  19  21
ATOM     21  C   UNL     1       1.333   8.222  20.504  0.00  0.00    +0.000 A 
ATOM     22  C   UNL     1       0.335   8.857  21.250  0.00  0.00    +0.000 A 
ATOM     23  C   UNL     1      -0.325   9.977  20.742  0.00  0.00    +0.000 A 
ATOM     24  C   UNL     1       0.021  10.432  19.482  0.00  0.00    +0.000 A 
ATOM     25  N   UNL     1       0.968   9.856  18.720  0.00  0.00    +0.000 NA
ATOM     26  C   UNL     1       1.593   8.771  19.246  0.00  0.00    +0.000 A 
ENDBRANCH  19  21
ENDBRANCH   5  19
TORSDOF 3
ENDMDL
MODEL 8
REMARK VINA RESULT:      -7.6      3.083      7.994
REMARK  Name = 
REMARK  3 active torsions:
REMARK  status: ('A' for Active; 'I' for Inactive)
REMARK    1  A    between atoms: C_5  and  N_6
REMARK    2  A    between atoms: N_6  and  C_7
REMARK    3  A    between atoms: C_14  and  C_15
REMARK                            x       y       z     vdW  Elec       q    Type
REMARK                         _______ _______ _______ _____ _____    ______ ____
ROOT
ATOM      1  O   UNL     1       3.313   3.283  20.077  0.00  0.00    +0.000 OA
ATOM      2  C   UNL     1       2.978   4.460  20.017  0.00  0.00    +0.000 A 
ATOM      3  N   UNL     1       2.090   4.997  20.919  0.00  0.00    +0.000 N 
ATOM      4  C   UNL     1       1.649   6.292  20.889  0.00  0.00    +0.000 A 
ATOM      5  C   UNL     1       2.059   7.161  19.944  0.00  0.00    +0.000 A 
ATOM      6  C   UNL     1       3.038   6.676  18.974  0.00  0.00    +0.000 A 
ATOM      7  C   UNL     1       3.491   5.407  18.974  0.00  0.00    +0.000 A 
ATOM      8  H   UNL     1       1.750   4.359  21.629  0.00  0.00    +0.000 HD
ENDROOT
BRANCH   7   9
ATOM      9  C   UNL     1       4.443   4.960  17.952  0.00  0.00    +0.000 A 
ATOM     10  C   UNL     1       4.014   4.440  16.721  0.00  0.00    +0.000 A 
ATOM     11  C   UNL     1       4.939   4.036  15.760  0.00  0.00    +0.000 A 
ATOM     12  C   UNL     1       6.312   4.136  15.994  0.00  0.00    +0.000 A 
ATOM     13  C   UNL     1       6.727   4.656  17.226  0.00  0.00    +0.000 A 
ATOM     14  N   UNL     1       7.998   4.858  17.716  0.00  0.00    +0.000 N 
ATOM     15  C   UNL     1       7.942   5.401  18.970  0.00  0.00    +0.000 A 
ATOM     16  C   UNL     1       6.616   5.534  19.311  0.00  0.00    +0.000 A 
ATOM     17  C   UNL     1       5.829   5.070  18.214  0.00  0.00    +0.000 A 
ATOM     18  H   UNL     1       8.847   4.636  17.213  0.00  0.00    +0.000 HD
ENDBRANCH   7   9
BRANCH   5  19
ATOM     19  N   UNL     1       1.643   8.474  19.858  0.00  0.00    +0.000 N 
ATOM     20  H   UNL     1       1.462   8.802  18.913  0.00  0.00    +0.000 HD
BRANCH  19  21
ATOM     21  C   UNL     1       0.889   9.176  20.830  0.00  0.00    +0.000 A 
ATOM     22  C   UNL     1      -0.119  10.054  20.420  0.00  0.00    +0.000 A 
ATOM     23  C   UNL     1      -0.824  10.811  21.358  0.00  0.00    +0.000 A 
ATOM     24  C   UNL     1      -0.491  10.682  22.695  0.00  0.00    +0.000 A 
ATOM     25  N   UNL     1       0.474   9.857  23.142  0.00  0.00    +0.000 NA
ATOM     26  C   UNL     1       1.136   9.133  22.204  0.00  0.00    +0.000 A 
ENDBRANCH  19  21
ENDBRANCH   5  19
TORSDOF 3
ENDMDL
MODEL 9
REMARK VINA RESULT:      -7.6      2.662      4.431
REMARK  Name = 
REMARK  3 active torsions:
REMARK  status: ('A' for Active; 'I' for Inactive)
REMARK    1  A    between atoms: C_5  and  N_6
REMARK    2  A    between atoms: N_6  and  C_7
REMARK    3  A    between atoms: C_14  and  C_15
REMARK                            x       y       z     vdW  Elec       q    Type
REMARK                         _______ _______ _______ _____ _____    ______ ____
ROOT
ATOM      1  O   UNL     1       0.897   5.240  20.590  0.00  0.00    +0.000 OA
ATOM      2  C   UNL     1       1.990   5.040  20.071  0.00  0.00    +0.000 A 
ATOM      3  N   UNL     1       2.626   3.828  20.189  0.00  0.00    +0.000 N 
ATOM      4  C   UNL     1       3.859   3.549  19.664  0.00  0.00    +0.000 A 
ATOM      5  C   UNL     1       4.564   4.471  18.979  0.00  0.00    +0.000 A 
ATOM      6  C   UNL     1       3.935   5.773  18.775  0.00  0.00    +0.000 A 
ATOM      7  C   UNL     1       2.723   6.080  19.279  0.00  0.00    +0.000 A 
ATOM      8  H   UNL     1       2.126   3.122  20.718  0.00  0.00    +0.000 HD
ENDROOT
BRANCH   7   9
ATOM      9  C   UNL     1       2.155   7.417  19.078  0.00  0.00    +0.000 A 
ATOM     10  C   UNL     1       2.003   7.970  17.798  0.00  0.00    +0.000 A 
ATOM     11  C   UNL     1       1.447   9.237  17.632  0.00  0.00    +0.000 A 
ATOM     12  C   UNL     1       1.029   9.990  18.732  0.00  0.00    +0.000 A 
ATOM     13  C   UNL     1       1.187   9.427  20.005  0.00  0.00    +0.000 A 
ATOM     14  N   UNL     1       0.871   9.941  21.243  0.00  0.00    +0.000 N 
ATOM     15  C   UNL     1       1.188   9.042  22.224  0.00  0.00    +0.000 A 
ATOM     16  C   UNL     1       1.738   7.936  21.619  0.00  0.00    +0.000 A 
ATOM     17  C   UNL     1       1.741   8.160  20.209  0.00  0.00    +0.000 A 
ATOM     18  H   UNL     1       0.462  10.853  21.397  0.00  0.00    +0.000 HD
ENDBRANCH   7   9
BRANCH   5  19
ATOM     19  N   UNL     1       5.814   4.251  18.436  0.00  0.00    +0.000 N 
ATOM     20  H   UNL     1       6.325   3.473  18.845  0.00  0.00    +0.000 HD
BRANCH  19  21
ATOM     21  C   UNL     1       6.199   4.509  17.098  0.00  0.00    +0.000 A 
ATOM     22  C   UNL     1       5.687   3.716  16.066  0.00  0.00    +0.000 A 
ATOM     23  C   UNL     1       6.111   3.906  14.750  0.00  0.00    +0.000 A 
ATOM     24  C   UNL     1       7.057   4.882  14.495  0.00  0.00    +0.000 A 
ATOM     25  N   UNL     1       7.587   5.668  15.450  0.00  0.00    +0.000 NA
ATOM     26  C   UNL     1       7.149   5.460  16.718  0.00  0.00    +0.000 A 
ENDBRANCH  19  21
ENDBRANCH   5  19
TORSDOF 3
ENDMDL
