MODEL 1
REMARK VINA RESULT:      -6.4      0.000      0.000
REMARK  Name = 
REMARK  7 active torsions:
REMARK  status: ('A' for Active; 'I' for Inactive)
REMARK    1  A    between atoms: C_1  and  O_2
REMARK    2  A    between atoms: O_2  and  C_3
REMARK    3  A    between atoms: C_9  and  C_10
REMARK    4  A    between atoms: C_10  and  N_11
REMARK    5  A    between atoms: N_11  and  C_12
REMARK    6  A    between atoms: C_12  and  C_13
REMARK    7  A    between atoms: C_13  and  C_14
REMARK                            x       y       z     vdW  Elec       q    Type
REMARK                         _______ _______ _______ _____ _____    ______ ____
ROOT
ATOM      1  N   UNL     1       2.377   2.018  18.451  0.00  0.00    +0.000 NA
ATOM      2  H   UNL     1       2.046   1.138  18.052  0.00  0.00    +0.000 HD
ENDROOT
BRANCH   1   3
ATOM      3  C   UNL     1       1.413   3.062  18.080  0.00  0.00    +0.000 C 
BRANCH   3  10
ATOM      4  C   UNL     1       1.467   4.444  20.230  0.00  0.00    +0.000 A 
ATOM      5  C   UNL     1       1.668   5.673  20.869  0.00  0.00    +0.000 A 
ATOM      6  C   UNL     1       2.039   6.806  20.138  0.00  0.00    +0.000 A 
ATOM      7  C   UNL     1       2.215   6.713  18.762  0.00  0.00    +0.000 A 
ATOM      8 BR   UNL     1       2.699   8.247  17.770  0.00  0.00    +0.000 Br
ATOM      9  C   UNL     1       2.031   5.497  18.114  0.00  0.00    +0.000 A 
ATOM     10  C   UNL     1       1.666   4.345  18.840  0.00  0.00    +0.000 A 
BRANCH   4  12
ATOM     11  C   UNL     1       2.047   2.749  21.796  0.00  0.00    +0.000 C 
ATOM     12  O   UNL     1       1.104   3.293  20.879  0.00  0.00    +0.000 OA
ENDBRANCH   4  12
ENDBRANCH   3  10
ENDBRANCH   1   3
BRANCH   1  13
ATOM     13  C   UNL     1       3.727   2.293  17.942  0.00  0.00    +0.000 C 
BRANCH  13  14
ATOM     14  C   UNL     1       4.634   2.957  18.987  0.00  0.00    +0.000 C 
BRANCH  14  15
ATOM     15  C   UNL     1       5.360   4.170  18.463  0.00  0.00    +0.000 A 
ATOM     16  C   UNL     1       6.360   4.783  19.227  0.00  0.00    +0.000 A 
ATOM     17  C   UNL     1       6.995   5.935  18.762  0.00  0.00    +0.000 A 
ATOM     18  C   UNL     1       6.643   6.478  17.526  0.00  0.00    +0.000 A 
ATOM     19  C   UNL     1       5.660   5.862  16.755  0.00  0.00    +0.000 A 
ATOM     20 CL   UNL     1       5.218   6.535  15.234  0.00  0.00    +0.000 Cl
ATOM     21  C   UNL     1       5.022   4.710  17.213  0.00  0.00    +0.000 A 
ENDBRANCH  14  15
ENDBRANCH  13  14
ENDBRANCH   1  13
TORSDOF 6
ENDMDL
MODEL 2
REMARK VINA RESULT:      -6.3      3.544      4.529
REMARK  Name = 
REMARK  7 active torsions:
REMARK  status: ('A' for Active; 'I' for Inactive)
REMARK    1  A    between atoms: C_1  and  O_2
REMARK    2  A    between atoms: O_2  and  C_3
REMARK    3  A    between atoms: C_9  and  C_10
REMARK    4  A    between atoms: C_10  and  N_11
REMARK    5  A    between atoms: N_11  and  C_12
REMARK    6  A    between atoms: C_12  and  C_13
REMARK    7  A    between atoms: C_13  and  C_14
REMARK                            x       y       z     vdW  Elec       q    Type
REMARK                         _______ _______ _______ _____ _____    ______ ____
ROOT
ATOM      1  N   UNL     1       5.929   4.201  18.002  0.00  0.00    +0.000 NA
ATOM      2  H   UNL     1       6.361   3.295  18.191  0.00  0.00    +0.000 HD
ENDROOT
BRANCH   1   3
ATOM      3  C   UNL     1       4.533   3.953  17.620  0.00  0.00    +0.000 C 
BRANCH   3  10
ATOM      4  C   UNL     1       3.266   5.801  18.851  0.00  0.00    +0.000 A 
ATOM      5  C   UNL     1       2.410   6.193  19.886  0.00  0.00    +0.000 A 
ATOM      6  C   UNL     1       1.878   5.248  20.769  0.00  0.00    +0.000 A 
ATOM      7  C   UNL     1       2.198   3.903  20.617  0.00  0.00    +0.000 A 
ATOM      8 BR   UNL     1       1.495   2.627  21.820  0.00  0.00    +0.000 Br
ATOM      9  C   UNL     1       3.037   3.497  19.586  0.00  0.00    +0.000 A 
ATOM     10  C   UNL     1       3.573   4.437  18.683  0.00  0.00    +0.000 A 
BRANCH   4  12
ATOM     11  C   UNL     1       3.081   7.843  17.644  0.00  0.00    +0.000 C 
ATOM     12  O   UNL     1       3.824   6.668  17.948  0.00  0.00    +0.000 OA
ENDBRANCH   4  12
ENDBRANCH   3  10
ENDBRANCH   1   3
BRANCH   1  13
ATOM     13  C   UNL     1       6.690   4.880  16.946  0.00  0.00    +0.000 C 
BRANCH  13  14
ATOM     14  C   UNL     1       5.809   5.334  15.774  0.00  0.00    +0.000 C 
BRANCH  14  15
ATOM     15  C   UNL     1       6.316   4.869  14.432  0.00  0.00    +0.000 A 
ATOM     16  C   UNL     1       7.503   5.392  13.903  0.00  0.00    +0.000 A 
ATOM     17  C   UNL     1       7.944   4.998  12.639  0.00  0.00    +0.000 A 
ATOM     18  C   UNL     1       7.208   4.073  11.898  0.00  0.00    +0.000 A 
ATOM     19  C   UNL     1       6.035   3.539  12.427  0.00  0.00    +0.000 A 
ATOM     20 CL   UNL     1       5.122   2.404  11.510  0.00  0.00    +0.000 Cl
ATOM     21  C   UNL     1       5.589   3.926  13.690  0.00  0.00    +0.000 A 
ENDBRANCH  14  15
ENDBRANCH  13  14
ENDBRANCH   1  13
TORSDOF 6
ENDMDL
MODEL 3
REMARK VINA RESULT:      -6.3      5.249      7.165
REMARK  Name = 
REMARK  7 active torsions:
REMARK  status: ('A' for Active; 'I' for Inactive)
REMARK    1  A    between atoms: C_1  and  O_2
REMARK    2  A    between atoms: O_2  and  C_3
REMARK    3  A    between atoms: C_9  and  C_10
REMARK    4  A    between atoms: C_10  and  N_11
REMARK    5  A    between atoms: N_11  and  C_12
REMARK    6  A    between atoms: C_12  and  C_13
REMARK    7  A    between atoms: C_13  and  C_14
REMARK                            x       y       z     vdW  Elec       q    Type
REMARK                         _______ _______ _______ _____ _____    ______ ____
ROOT
ATOM      1  N   UNL     1       7.256   8.083  17.141  0.00  0.00    +0.000 NA
ATOM      2  H   UNL     1       6.274   8.341  17.256  0.00  0.00    +0.000 HD
ENDROOT
BRANCH   1   3
ATOM      3  C   UNL     1       7.516   6.935  18.018  0.00  0.00    +0.000 C 
BRANCH   3  10
ATOM      4  C   UNL     1       6.464   5.171  16.496  0.00  0.00    +0.000 A 
ATOM      5  C   UNL     1       5.513   4.164  16.293  0.00  0.00    +0.000 A 
ATOM      6  C   UNL     1       4.632   3.799  17.316  0.00  0.00    +0.000 A 
ATOM      7  C   UNL     1       4.701   4.437  18.549  0.00  0.00    +0.000 A 
ATOM      8 BR   UNL     1       3.499   3.958  19.926  0.00  0.00    +0.000 Br
ATOM      9  C   UNL     1       5.648   5.431  18.769  0.00  0.00    +0.000 A 
ATOM     10  C   UNL     1       6.549   5.803  17.750  0.00  0.00    +0.000 A 
BRANCH   4  12
ATOM     11  C   UNL     1       7.262   4.966  14.264  0.00  0.00    +0.000 C 
ATOM     12  O   UNL     1       7.360   5.582  15.543  0.00  0.00    +0.000 OA
ENDBRANCH   4  12
ENDBRANCH   3  10
ENDBRANCH   1   3
BRANCH   1  13
ATOM     13  C   UNL     1       8.094   9.244  17.469  0.00  0.00    +0.000 C 
BRANCH  13  14
ATOM     14  C   UNL     1       8.688   9.169  18.883  0.00  0.00    +0.000 C 
BRANCH  14  15
ATOM     15  C   UNL     1       9.496  10.386  19.255  0.00  0.00    +0.000 A 
ATOM     16  C   UNL     1       9.513  10.849  20.577  0.00  0.00    +0.000 A 
ATOM     17  C   UNL     1      10.221  12.005  20.909  0.00  0.00    +0.000 A 
ATOM     18  C   UNL     1      10.924  12.702  19.926  0.00  0.00    +0.000 A 
ATOM     19  C   UNL     1      10.923  12.236  18.613  0.00  0.00    +0.000 A 
ATOM     20 CL   UNL     1      11.783  13.099  17.398  0.00  0.00    +0.000 Cl
ATOM     21  C   UNL     1      10.219  11.081  18.274  0.00  0.00    +0.000 A 
ENDBRANCH  14  15
ENDBRANCH  13  14
ENDBRANCH   1  13
TORSDOF 6
ENDMDL
MODEL 4
REMARK VINA RESULT:      -6.2      1.175      1.581
REMARK  Name = 
REMARK  7 active torsions:
REMARK  status: ('A' for Active; 'I' for Inactive)
REMARK    1  A    between atoms: C_1  and  O_2
REMARK    2  A    between atoms: O_2  and  C_3
REMARK    3  A    between atoms: C_9  and  C_10
REMARK    4  A    between atoms: C_10  and  N_11
REMARK    5  A    between atoms: N_11  and  C_12
REMARK    6  A    between atoms: C_12  and  C_13
REMARK    7  A    between atoms: C_13  and  C_14
REMARK                            x       y       z     vdW  Elec       q    Type
REMARK                         _______ _______ _______ _____ _____    ______ ____
ROOT
ATOM      1  N   UNL     1       2.356   2.884  17.205  0.00  0.00    +0.000 NA
ATOM      2  H   UNL     1       2.684   3.766  16.810  0.00  0.00    +0.000 HD
ENDROOT
BRANCH   1   3
ATOM      3  C   UNL     1       1.338   3.202  18.214  0.00  0.00    +0.000 C 
BRANCH   3  10
ATOM      4  C   UNL     1       1.484   4.645  20.319  0.00  0.00    +0.000 A 
ATOM      5  C   UNL     1       1.742   5.883  20.917  0.00  0.00    +0.000 A 
ATOM      6  C   UNL     1       2.138   6.980  20.145  0.00  0.00    +0.000 A 
ATOM      7  C   UNL     1       2.283   6.841  18.769  0.00  0.00    +0.000 A 
ATOM      8 BR   UNL     1       2.800   8.326  17.722  0.00  0.00    +0.000 Br
ATOM      9  C   UNL     1       2.042   5.613  18.162  0.00  0.00    +0.000 A 
ATOM     10  C   UNL     1       1.652   4.497  18.929  0.00  0.00    +0.000 A 
BRANCH   4  12
ATOM     11  C   UNL     1       2.097   2.858  21.766  0.00  0.00    +0.000 C 
ATOM     12  O   UNL     1       1.094   3.526  21.009  0.00  0.00    +0.000 OA
ENDBRANCH   4  12
ENDBRANCH   3  10
ENDBRANCH   1   3
BRANCH   1  13
ATOM     13  C   UNL     1       3.502   2.161  17.771  0.00  0.00    +0.000 C 
BRANCH  13  14
ATOM     14  C   UNL     1       4.423   3.062  18.605  0.00  0.00    +0.000 C 
BRANCH  14  15
ATOM     15  C   UNL     1       5.244   4.011  17.770  0.00  0.00    +0.000 A 
ATOM     16  C   UNL     1       5.226   3.923  16.372  0.00  0.00    +0.000 A 
ATOM     17  C   UNL     1       6.026   4.769  15.603  0.00  0.00    +0.000 A 
ATOM     18  C   UNL     1       6.842   5.716  16.222  0.00  0.00    +0.000 A 
ATOM     19  C   UNL     1       6.851   5.818  17.612  0.00  0.00    +0.000 A 
ATOM     20 CL   UNL     1       7.864   6.980  18.378  0.00  0.00    +0.000 Cl
ATOM     21  C   UNL     1       6.053   4.977  18.387  0.00  0.00    +0.000 A 
ENDBRANCH  14  15
ENDBRANCH  13  14
ENDBRANCH   1  13
TORSDOF 6
ENDMDL
MODEL 5
REMARK VINA RESULT:      -6.1      3.547      6.060
REMARK  Name = 
REMARK  7 active torsions:
REMARK  status: ('A' for Active; 'I' for Inactive)
REMARK    1  A    between atoms: C_1  and  O_2
REMARK    2  A    between atoms: O_2  and  C_3
REMARK    3  A    between atoms: C_9  and  C_10
REMARK    4  A    between atoms: C_10  and  N_11
REMARK    5  A    between atoms: N_11  and  C_12
REMARK    6  A    between atoms: C_12  and  C_13
REMARK    7  A    between atoms: C_13  and  C_14
REMARK                            x       y       z     vdW  Elec       q    Type
REMARK                         _______ _______ _______ _____ _____    ______ ____
ROOT
ATOM      1  N   UNL     1       4.083   5.146  19.588  0.00  0.00    +0.000 NA
ATOM      2  H   UNL     1       4.810   5.803  19.300  0.00  0.00    +0.000 HD
ENDROOT
BRANCH   1   3
ATOM      3  C   UNL     1       4.128   4.004  18.667  0.00  0.00    +0.000 C 
BRANCH   3  10
ATOM      4  C   UNL     1       6.521   4.589  17.984  0.00  0.00    +0.000 A 
ATOM      5  C   UNL     1       7.480   4.770  16.980  0.00  0.00    +0.000 A 
ATOM      6  C   UNL     1       7.154   4.560  15.637  0.00  0.00    +0.000 A 
ATOM      7  C   UNL     1       5.867   4.164  15.291  0.00  0.00    +0.000 A 
ATOM      8 BR   UNL     1       5.419   3.898  13.475  0.00  0.00    +0.000 Br
ATOM      9  C   UNL     1       4.907   3.968  16.278  0.00  0.00    +0.000 A 
ATOM     10  C   UNL     1       5.225   4.166  17.637  0.00  0.00    +0.000 A 
BRANCH   4  12
ATOM     11  C   UNL     1       7.763   5.731  19.662  0.00  0.00    +0.000 C 
ATOM     12  O   UNL     1       6.767   4.774  19.320  0.00  0.00    +0.000 OA
ENDBRANCH   4  12
ENDBRANCH   3  10
ENDBRANCH   1   3
BRANCH   1  13
ATOM     13  C   UNL     1       2.786   5.834  19.569  0.00  0.00    +0.000 C 
BRANCH  13  14
ATOM     14  C   UNL     1       2.720   6.954  18.522  0.00  0.00    +0.000 C 
BRANCH  14  15
ATOM     15  C   UNL     1       1.912   8.145  18.971  0.00  0.00    +0.000 A 
ATOM     16  C   UNL     1       1.547   9.141  18.056  0.00  0.00    +0.000 A 
ATOM     17  C   UNL     1       0.842  10.266  18.485  0.00  0.00    +0.000 A 
ATOM     18  C   UNL     1       0.489  10.401  19.827  0.00  0.00    +0.000 A 
ATOM     19  C   UNL     1       0.835   9.406  20.738  0.00  0.00    +0.000 A 
ATOM     20 CL   UNL     1       0.408   9.576  22.396  0.00  0.00    +0.000 Cl
ATOM     21  C   UNL     1       1.538   8.278  20.317  0.00  0.00    +0.000 A 
ENDBRANCH  14  15
ENDBRANCH  13  14
ENDBRANCH   1  13
TORSDOF 6
ENDMDL
MODEL 6
REMARK VINA RESULT:      -6.1      3.188      4.054
REMARK  Name = 
REMARK  7 active torsions:
REMARK  status: ('A' for Active; 'I' for Inactive)
REMARK    1  A    between atoms: C_1  and  O_2
REMARK    2  A    between atoms: O_2  and  C_3
REMARK    3  A    between atoms: C_9  and  C_10
REMARK    4  A    between atoms: C_10  and  N_11
REMARK    5  A    between atoms: N_11  and  C_12
REMARK    6  A    between atoms: C_12  and  C_13
REMARK    7  A    between atoms: C_13  and  C_14
REMARK                            x       y       z     vdW  Elec       q    Type
REMARK                         _______ _______ _______ _____ _____    ______ ____
ROOT
ATOM      1  N   UNL     1       5.511   6.377  17.457  0.00  0.00    +0.000 NA
ATOM      2  H   UNL     1       5.659   6.364  18.467  0.00  0.00    +0.000 HD
ENDROOT
BRANCH   1   3
ATOM      3  C   UNL     1       4.247   5.679  17.187  0.00  0.00    +0.000 C 
BRANCH   3  10
ATOM      4  C   UNL     1       3.154   4.239  18.994  0.00  0.00    +0.000 A 
ATOM      5  C   UNL     1       2.348   4.139  20.134  0.00  0.00    +0.000 A 
ATOM      6  C   UNL     1       1.794   5.283  20.718  0.00  0.00    +0.000 A 
ATOM      7  C   UNL     1       2.047   6.533  20.166  0.00  0.00    +0.000 A 
ATOM      8 BR   UNL     1       1.284   8.077  20.942  0.00  0.00    +0.000 Br
ATOM      9  C   UNL     1       2.856   6.650  19.041  0.00  0.00    +0.000 A 
ATOM     10  C   UNL     1       3.429   5.506  18.448  0.00  0.00    +0.000 A 
BRANCH   4  12
ATOM     11  C   UNL     1       2.852   2.240  17.740  0.00  0.00    +0.000 C 
ATOM     12  O   UNL     1       3.732   3.165  18.368  0.00  0.00    +0.000 OA
ENDBRANCH   4  12
ENDBRANCH   3  10
ENDBRANCH   1   3
BRANCH   1  13
ATOM     13  C   UNL     1       6.658   5.738  16.799  0.00  0.00    +0.000 C 
BRANCH  13  14
ATOM     14  C   UNL     1       6.303   4.388  16.160  0.00  0.00    +0.000 C 
BRANCH  14  15
ATOM     15  C   UNL     1       6.580   4.338  14.679  0.00  0.00    +0.000 A 
ATOM     16  C   UNL     1       7.568   5.154  14.114  0.00  0.00    +0.000 A 
ATOM     17  C   UNL     1       7.788   5.143  12.737  0.00  0.00    +0.000 A 
ATOM     18  C   UNL     1       7.029   4.310  11.914  0.00  0.00    +0.000 A 
ATOM     19  C   UNL     1       6.056   3.485  12.473  0.00  0.00    +0.000 A 
ATOM     20 CL   UNL     1       5.113   2.464  11.457  0.00  0.00    +0.000 Cl
ATOM     21  C   UNL     1       5.831   3.490  13.849  0.00  0.00    +0.000 A 
ENDBRANCH  14  15
ENDBRANCH  13  14
ENDBRANCH   1  13
TORSDOF 6
ENDMDL
MODEL 7
REMARK VINA RESULT:      -6.0      4.966      6.576
REMARK  Name = 
REMARK  7 active torsions:
REMARK  status: ('A' for Active; 'I' for Inactive)
REMARK    1  A    between atoms: C_1  and  O_2
REMARK    2  A    between atoms: O_2  and  C_3
REMARK    3  A    between atoms: C_9  and  C_10
REMARK    4  A    between atoms: C_10  and  N_11
REMARK    5  A    between atoms: N_11  and  C_12
REMARK    6  A    between atoms: C_12  and  C_13
REMARK    7  A    between atoms: C_13  and  C_14
REMARK                            x       y       z     vdW  Elec       q    Type
REMARK                         _______ _______ _______ _____ _____    ______ ____
ROOT
ATOM      1  N   UNL     1       1.380   8.841  17.854  0.00  0.00    +0.000 NA
ATOM      2  H   UNL     1       1.643   9.529  17.146  0.00  0.00    +0.000 HD
ENDROOT
BRANCH   1   3
ATOM      3  C   UNL     1       0.902   9.578  19.030  0.00  0.00    +0.000 C 
BRANCH   3  10
ATOM      4  C   UNL     1      -0.962  11.209  19.661  0.00  0.00    +0.000 A 
ATOM      5  C   UNL     1      -2.173  11.837  19.347  0.00  0.00    +0.000 A 
ATOM      6  C   UNL     1      -2.817  11.579  18.133  0.00  0.00    +0.000 A 
ATOM      7  C   UNL     1      -2.250  10.694  17.224  0.00  0.00    +0.000 A 
ATOM      8 BR   UNL     1      -3.128  10.330  15.591  0.00  0.00    +0.000 Br
ATOM      9  C   UNL     1      -1.041  10.072  17.515  0.00  0.00    +0.000 A 
ATOM     10  C   UNL     1      -0.376  10.330  18.731  0.00  0.00    +0.000 A 
BRANCH   4  12
ATOM     11  C   UNL     1      -0.438  12.678  21.457  0.00  0.00    +0.000 C 
ATOM     12  O   UNL     1      -0.273  11.412  20.828  0.00  0.00    +0.000 OA
ENDBRANCH   4  12
ENDBRANCH   3  10
ENDBRANCH   1   3
BRANCH   1  13
ATOM     13  C   UNL     1       2.544   7.997  18.153  0.00  0.00    +0.000 C 
BRANCH  13  14
ATOM     14  C   UNL     1       2.413   7.253  19.489  0.00  0.00    +0.000 C 
BRANCH  14  15
ATOM     15  C   UNL     1       2.123   5.782  19.326  0.00  0.00    +0.000 A 
ATOM     16  C   UNL     1       2.027   5.215  18.048  0.00  0.00    +0.000 A 
ATOM     17  C   UNL     1       1.709   3.865  17.899  0.00  0.00    +0.000 A 
ATOM     18  C   UNL     1       1.494   3.069  19.024  0.00  0.00    +0.000 A 
ATOM     19  C   UNL     1       1.604   3.624  20.297  0.00  0.00    +0.000 A 
ATOM     20 CL   UNL     1       1.330   2.644  21.685  0.00  0.00    +0.000 Cl
ATOM     21  C   UNL     1       1.923   4.972  20.454  0.00  0.00    +0.000 A 
ENDBRANCH  14  15
ENDBRANCH  13  14
ENDBRANCH   1  13
TORSDOF 6
ENDMDL
MODEL 8
REMARK VINA RESULT:      -6.0      3.107      4.088
REMARK  Name = 
REMARK  7 active torsions:
REMARK  status: ('A' for Active; 'I' for Inactive)
REMARK    1  A    between atoms: C_1  and  O_2
REMARK    2  A    between atoms: O_2  and  C_3
REMARK    3  A    between atoms: C_9  and  C_10
REMARK    4  A    between atoms: C_10  and  N_11
REMARK    5  A    between atoms: N_11  and  C_12
REMARK    6  A    between atoms: C_12  and  C_13
REMARK    7  A    between atoms: C_13  and  C_14
REMARK                            x       y       z     vdW  Elec       q    Type
REMARK                         _______ _______ _______ _____ _____    ______ ____
ROOT
ATOM      1  N   UNL     1       6.716   4.290  18.134  0.00  0.00    +0.000 NA
ATOM      2  H   UNL     1       6.324   3.348  18.176  0.00  0.00    +0.000 HD
ENDROOT
BRANCH   1   3
ATOM      3  C   UNL     1       6.076   5.084  19.191  0.00  0.00    +0.000 C 
BRANCH   3  10
ATOM      4  C   UNL     1       3.706   4.171  18.898  0.00  0.00    +0.000 A 
ATOM      5  C   UNL     1       2.356   4.391  18.602  0.00  0.00    +0.000 A 
ATOM      6  C   UNL     1       1.890   5.678  18.313  0.00  0.00    +0.000 A 
ATOM      7  C   UNL     1       2.773   6.752  18.324  0.00  0.00    +0.000 A 
ATOM      8 BR   UNL     1       2.148   8.487  17.916  0.00  0.00    +0.000 Br
ATOM      9  C   UNL     1       4.114   6.550  18.629  0.00  0.00    +0.000 A 
ATOM     10  C   UNL     1       4.596   5.260  18.931  0.00  0.00    +0.000 A 
BRANCH   4  12
ATOM     11  C   UNL     1       3.855   2.359  20.434  0.00  0.00    +0.000 C 
ATOM     12  O   UNL     1       4.235   2.940  19.192  0.00  0.00    +0.000 OA
ENDBRANCH   4  12
ENDBRANCH   3  10
ENDBRANCH   1   3
BRANCH   1  13
ATOM     13  C   UNL     1       6.483   4.844  16.794  0.00  0.00    +0.000 C 
BRANCH  13  14
ATOM     14  C   UNL     1       5.860   3.826  15.829  0.00  0.00    +0.000 C 
BRANCH  14  15
ATOM     15  C   UNL     1       6.296   4.017  14.398  0.00  0.00    +0.000 A 
ATOM     16  C   UNL     1       5.741   3.234  13.378  0.00  0.00    +0.000 A 
ATOM     17  C   UNL     1       6.182   3.378  12.062  0.00  0.00    +0.000 A 
ATOM     18  C   UNL     1       7.173   4.310  11.753  0.00  0.00    +0.000 A 
ATOM     19  C   UNL     1       7.716   5.102  12.763  0.00  0.00    +0.000 A 
ATOM     20 CL   UNL     1       8.945   6.246  12.385  0.00  0.00    +0.000 Cl
ATOM     21  C   UNL     1       7.279   4.965  14.080  0.00  0.00    +0.000 A 
ENDBRANCH  14  15
ENDBRANCH  13  14
ENDBRANCH   1  13
TORSDOF 6
ENDMDL
MODEL 9
REMARK VINA RESULT:      -6.0      1.865      2.394
REMARK  Name = 
REMARK  7 active torsions:
REMARK  status: ('A' for Active; 'I' for Inactive)
REMARK    1  A    between atoms: C_1  and  O_2
REMARK    2  A    between atoms: O_2  and  C_3
REMARK    3  A    between atoms: C_9  and  C_10
REMARK    4  A    between atoms: C_10  and  N_11
REMARK    5  A    between atoms: N_11  and  C_12
REMARK    6  A    between atoms: C_12  and  C_13
REMARK    7  A    between atoms: C_13  and  C_14
REMARK                            x       y       z     vdW  Elec       q    Type
REMARK                         _______ _______ _______ _____ _____    ______ ____
ROOT
ATOM      1  N   UNL     1       5.126   3.572  17.114  0.00  0.00    +0.000 NA
ATOM      2  H   UNL     1       5.537   2.765  17.586  0.00  0.00    +0.000 HD
ENDROOT
BRANCH   1   3
ATOM      3  C   UNL     1       3.668   3.475  17.262  0.00  0.00    +0.000 C 
BRANCH   3  10
ATOM      4  C   UNL     1       2.650   4.180  19.498  0.00  0.00    +0.000 A 
ATOM      5  C   UNL     1       2.124   5.182  20.322  0.00  0.00    +0.000 A 
ATOM      6  C   UNL     1       2.054   6.506  19.879  0.00  0.00    +0.000 A 
ATOM      7  C   UNL     1       2.515   6.836  18.610  0.00  0.00    +0.000 A 
ATOM      8 BR   UNL     1       2.405   8.622  18.004  0.00  0.00    +0.000 Br
ATOM      9  C   UNL     1       3.052   5.855  17.785  0.00  0.00    +0.000 A 
ATOM     10  C   UNL     1       3.138   4.517  18.222  0.00  0.00    +0.000 A 
BRANCH   4  12
ATOM     11  C   UNL     1       3.012   2.596  21.236  0.00  0.00    +0.000 C 
ATOM     12  O   UNL     1       2.751   2.862  19.863  0.00  0.00    +0.000 OA
ENDBRANCH   4  12
ENDBRANCH   3  10
ENDBRANCH   1   3
BRANCH   1  13
ATOM     13  C   UNL     1       5.551   3.570  15.709  0.00  0.00    +0.000 C 
BRANCH  13  14
ATOM     14  C   UNL     1       6.484   4.740  15.366  0.00  0.00    +0.000 C 
BRANCH  14  15
ATOM     15  C   UNL     1       7.087   5.397  16.582  0.00  0.00    +0.000 A 
ATOM     16  C   UNL     1       7.522   4.622  17.665  0.00  0.00    +0.000 A 
ATOM     17  C   UNL     1       8.033   5.235  18.809  0.00  0.00    +0.000 A 
ATOM     18  C   UNL     1       8.123   6.625  18.878  0.00  0.00    +0.000 A 
ATOM     19  C   UNL     1       7.707   7.399  17.797  0.00  0.00    +0.000 A 
ATOM     20 CL   UNL     1       7.810   9.115  17.883  0.00  0.00    +0.000 Cl
ATOM     21  C   UNL     1       7.196   6.794  16.649  0.00  0.00    +0.000 A 
ENDBRANCH  14  15
ENDBRANCH  13  14
ENDBRANCH   1  13
TORSDOF 6
ENDMDL
