MODEL 1
REMARK VINA RESULT:      -7.7      0.000      0.000
REMARK  Name = 
REMARK  12 active torsions:
REMARK  status: ('A' for Active; 'I' for Inactive)
REMARK    1  A    between atoms: C_1  and  O_2
REMARK    2  A    between atoms: O_2  and  C_3
REMARK    3  A    between atoms: C_7  and  C_8
REMARK    4  A    between atoms: C_8  and  N_9
REMARK    5  A    between atoms: N_9  and  C_10
REMARK    6  A    between atoms: C_10  and  C_11
REMARK    7  A    between atoms: C_11  and  C_12
REMARK    8  A    between atoms: C_12  and  N_13
REMARK    9  A    between atoms: N_21  and  C_22
REMARK   10  A    between atoms: C_29  and  O_30
REMARK   11  A    between atoms: C_34  and  O_35
REMARK   12  A    between atoms: O_35  and  C_36
REMARK                            x       y       z     vdW  Elec       q    Type
REMARK                         _______ _______ _______ _____ _____    ______ ____
ROOT
ATOM      1  N   UNL     1       2.068   8.331  19.008  0.00  0.00    +0.000 N 
ATOM      2  C   UNL     1       2.907   7.761  18.027  0.00  0.00    +0.000 C 
ATOM      3  O   UNL     1       2.782   8.071  16.842  0.00  0.00    +0.000 OA
ATOM      4  N   UNL     1       3.835   6.839  18.460  0.00  0.00    +0.000 N 
ATOM      5  H   UNL     1       3.718   6.429  19.371  0.00  0.00    +0.000 HD
ENDROOT
BRANCH   4   6
ATOM      6  C   UNL     1       4.779   6.185  17.632  0.00  0.00    +0.000 A 
ATOM      7  C   UNL     1       6.062   6.687  17.386  0.00  0.00    +0.000 A 
ATOM      8  C   UNL     1       6.924   6.045  16.499  0.00  0.00    +0.000 A 
ATOM      9  C   UNL     1       6.511   4.879  15.874  0.00  0.00    +0.000 A 
ATOM     10  F   UNL     1       7.330   4.271  15.005  0.00  0.00    +0.000 F 
ATOM     11  C   UNL     1       5.260   4.336  16.137  0.00  0.00    +0.000 A 
ATOM     12  C   UNL     1       4.394   4.983  17.023  0.00  0.00    +0.000 A 
ENDBRANCH   4   6
BRANCH   1  13
ATOM     13  C   UNL     1       0.958   9.087  18.413  0.00  0.00    +0.000 C 
BRANCH  13  18
ATOM     14  C   UNL     1      -1.508  13.066  22.569  0.00  0.00    +0.000 A 
ATOM     15  C   UNL     1      -1.550  11.951  21.725  0.00  0.00    +0.000 A 
ATOM     16  C   UNL     1      -0.514  11.718  20.785  0.00  0.00    +0.000 A 
ATOM     17  C   UNL     1      -0.456  10.575  19.967  0.00  0.00    +0.000 A 
ATOM     18  C   UNL     1       0.572  10.419  19.020  0.00  0.00    +0.000 A 
ATOM     19  C   UNL     1       1.419  11.512  18.889  0.00  0.00    +0.000 A 
ATOM     20  N   UNL     1       1.451  12.575  19.705  0.00  0.00    +0.000 NA
ATOM     21  C   UNL     1       0.525  12.644  20.667  0.00  0.00    +0.000 A 
ATOM     22  C   UNL     1       0.618  13.679  21.597  0.00  0.00    +0.000 A 
ATOM     23  C   UNL     1      -0.384  13.908  22.540  0.00  0.00    +0.000 A 
BRANCH  14  25
ATOM     24  C   UNL     1      -3.447  12.458  23.826  0.00  0.00    +0.000 C 
ATOM     25  O   UNL     1      -2.504  13.441  23.434  0.00  0.00    +0.000 OA
ENDBRANCH  14  25
BRANCH  19  26
ATOM     26  O   UNL     1       2.303  11.588  17.857  0.00  0.00    +0.000 OA
ATOM     27  H   UNL     1       2.289  12.522  17.588  0.00  0.00    +0.000 HD
ENDBRANCH  19  26
BRANCH  23  28
ATOM     28  O   UNL     1      -0.349  14.917  23.472  0.00  0.00    +0.000 OA
ATOM     29  C   UNL     1      -0.240  16.250  22.989  0.00  0.00    +0.000 C 
ENDBRANCH  23  28
ENDBRANCH  13  18
ENDBRANCH   1  13
BRANCH   1  30
ATOM     30  C   UNL     1       1.880   7.667  20.314  0.00  0.00    +0.000 C 
BRANCH  30  31
ATOM     31  C   UNL     1       1.310   6.246  20.426  0.00  0.00    +0.000 C 
BRANCH  31  32
ATOM     32  C   UNL     1       2.274   5.141  20.879  0.00  0.00    +0.000 C 
BRANCH  32  33
ATOM     33  N   UNL     1       1.575   3.860  21.091  0.00  0.00    +0.000 NA
ATOM     34  C   UNL     1       2.497   2.754  21.437  0.00  0.00    +0.000 C 
ATOM     35  C   UNL     1       3.438   2.370  20.284  0.00  0.00    +0.000 C 
ATOM     36  O   UNL     1       2.706   2.006  19.107  0.00  0.00    +0.000 OA
ATOM     37  C   UNL     1       1.789   3.033  18.711  0.00  0.00    +0.000 C 
ATOM     38  C   UNL     1       0.851   3.438  19.863  0.00  0.00    +0.000 C 
ENDBRANCH  32  33
ENDBRANCH  31  32
ENDBRANCH  30  31
ENDBRANCH   1  30
TORSDOF 10
ENDMDL
MODEL 2
REMARK VINA RESULT:      -7.4      1.107      1.780
REMARK  Name = 
REMARK  12 active torsions:
REMARK  status: ('A' for Active; 'I' for Inactive)
REMARK    1  A    between atoms: C_1  and  O_2
REMARK    2  A    between atoms: O_2  and  C_3
REMARK    3  A    between atoms: C_7  and  C_8
REMARK    4  A    between atoms: C_8  and  N_9
REMARK    5  A    between atoms: N_9  and  C_10
REMARK    6  A    between atoms: C_10  and  C_11
REMARK    7  A    between atoms: C_11  and  C_12
REMARK    8  A    between atoms: C_12  and  N_13
REMARK    9  A    between atoms: N_21  and  C_22
REMARK   10  A    between atoms: C_29  and  O_30
REMARK   11  A    between atoms: C_34  and  O_35
REMARK   12  A    between atoms: O_35  and  C_36
REMARK                            x       y       z     vdW  Elec       q    Type
REMARK                         _______ _______ _______ _____ _____    ______ ____
ROOT
ATOM      1  N   UNL     1       2.118   8.429  19.079  0.00  0.00    +0.000 N 
ATOM      2  C   UNL     1       2.906   7.908  18.030  0.00  0.00    +0.000 C 
ATOM      3  O   UNL     1       2.754   8.310  16.877  0.00  0.00    +0.000 OA
ATOM      4  N   UNL     1       3.815   6.927  18.362  0.00  0.00    +0.000 N 
ATOM      5  H   UNL     1       3.713   6.454  19.244  0.00  0.00    +0.000 HD
ENDROOT
BRANCH   4   6
ATOM      6  C   UNL     1       4.709   6.307  17.457  0.00  0.00    +0.000 A 
ATOM      7  C   UNL     1       4.373   5.183  16.693  0.00  0.00    +0.000 A 
ATOM      8  C   UNL     1       5.318   4.564  15.877  0.00  0.00    +0.000 A 
ATOM      9  C   UNL     1       6.599   5.086  15.804  0.00  0.00    +0.000 A 
ATOM     10  F   UNL     1       7.515   4.480  15.037  0.00  0.00    +0.000 F 
ATOM     11  C   UNL     1       6.945   6.227  16.517  0.00  0.00    +0.000 A 
ATOM     12  C   UNL     1       5.999   6.845  17.338  0.00  0.00    +0.000 A 
ENDBRANCH   4   6
BRANCH   1  13
ATOM     13  C   UNL     1       1.017   9.262  18.580  0.00  0.00    +0.000 C 
BRANCH  13  18
ATOM     14  C   UNL     1       0.178  14.317  22.175  0.00  0.00    +0.000 A 
ATOM     15  C   UNL     1      -0.222  13.101  21.612  0.00  0.00    +0.000 A 
ATOM     16  C   UNL     1       0.531  12.508  20.567  0.00  0.00    +0.000 A 
ATOM     17  C   UNL     1       0.230  11.248  20.016  0.00  0.00    +0.000 A 
ATOM     18  C   UNL     1       0.984  10.730  18.948  0.00  0.00    +0.000 A 
ATOM     19  C   UNL     1       1.938  11.596  18.430  0.00  0.00    +0.000 A 
ATOM     20  N   UNL     1       2.313  12.760  18.979  0.00  0.00    +0.000 NA
ATOM     21  C   UNL     1       1.647  13.178  20.060  0.00  0.00    +0.000 A 
ATOM     22  C   UNL     1       2.102  14.323  20.712  0.00  0.00    +0.000 A 
ATOM     23  C   UNL     1       1.383  14.906  21.755  0.00  0.00    +0.000 A 
BRANCH  14  25
ATOM     24  C   UNL     1      -1.398  14.307  23.971  0.00  0.00    +0.000 C 
ATOM     25  O   UNL     1      -0.531  15.026  23.111  0.00  0.00    +0.000 OA
ENDBRANCH  14  25
BRANCH  19  26
ATOM     26  O   UNL     1       2.570  11.314  17.259  0.00  0.00    +0.000 OA
ATOM     27  H   UNL     1       1.976  11.656  16.569  0.00  0.00    +0.000 HD
ENDBRANCH  19  26
BRANCH  23  28
ATOM     28  O   UNL     1       1.779  16.038  22.426  0.00  0.00    +0.000 OA
ATOM     29  C   UNL     1       2.827  16.807  21.850  0.00  0.00    +0.000 C 
ENDBRANCH  23  28
ENDBRANCH  13  18
ENDBRANCH   1  13
BRANCH   1  30
ATOM     30  C   UNL     1       1.949   7.675  20.338  0.00  0.00    +0.000 C 
BRANCH  30  31
ATOM     31  C   UNL     1       0.977   6.491  20.450  0.00  0.00    +0.000 C 
BRANCH  31  32
ATOM     32  C   UNL     1       1.590   5.106  20.693  0.00  0.00    +0.000 C 
BRANCH  32  33
ATOM     33  N   UNL     1       2.326   4.619  19.512  0.00  0.00    +0.000 NA
ATOM     34  C   UNL     1       1.447   3.953  18.523  0.00  0.00    +0.000 C 
ATOM     35  C   UNL     1       0.848   2.635  19.039  0.00  0.00    +0.000 C 
ATOM     36  O   UNL     1       1.871   1.714  19.440  0.00  0.00    +0.000 OA
ATOM     37  C   UNL     1       2.764   2.292  20.400  0.00  0.00    +0.000 C 
ATOM     38  C   UNL     1       3.358   3.621  19.900  0.00  0.00    +0.000 C 
ENDBRANCH  32  33
ENDBRANCH  31  32
ENDBRANCH  30  31
ENDBRANCH   1  30
TORSDOF 10
ENDMDL
MODEL 3
REMARK VINA RESULT:      -7.4      2.281      3.357
REMARK  Name = 
REMARK  12 active torsions:
REMARK  status: ('A' for Active; 'I' for Inactive)
REMARK    1  A    between atoms: C_1  and  O_2
REMARK    2  A    between atoms: O_2  and  C_3
REMARK    3  A    between atoms: C_7  and  C_8
REMARK    4  A    between atoms: C_8  and  N_9
REMARK    5  A    between atoms: N_9  and  C_10
REMARK    6  A    between atoms: C_10  and  C_11
REMARK    7  A    between atoms: C_11  and  C_12
REMARK    8  A    between atoms: C_12  and  N_13
REMARK    9  A    between atoms: N_21  and  C_22
REMARK   10  A    between atoms: C_29  and  O_30
REMARK   11  A    between atoms: C_34  and  O_35
REMARK   12  A    between atoms: O_35  and  C_36
REMARK                            x       y       z     vdW  Elec       q    Type
REMARK                         _______ _______ _______ _____ _____    ______ ____
ROOT
ATOM      1  N   UNL     1       2.065   8.396  19.167  0.00  0.00    +0.000 N 
ATOM      2  C   UNL     1       2.831   7.842  18.118  0.00  0.00    +0.000 C 
ATOM      3  O   UNL     1       2.727   8.279  16.972  0.00  0.00    +0.000 OA
ATOM      4  N   UNL     1       3.662   6.792  18.441  0.00  0.00    +0.000 N 
ATOM      5  H   UNL     1       3.513   6.309  19.310  0.00  0.00    +0.000 HD
ENDROOT
BRANCH   4   6
ATOM      6  C   UNL     1       4.525   6.129  17.535  0.00  0.00    +0.000 A 
ATOM      7  C   UNL     1       4.183   4.940  16.880  0.00  0.00    +0.000 A 
ATOM      8  C   UNL     1       5.102   4.285  16.061  0.00  0.00    +0.000 A 
ATOM      9  C   UNL     1       6.358   4.837  15.873  0.00  0.00    +0.000 A 
ATOM     10  F   UNL     1       7.250   4.199  15.102  0.00  0.00    +0.000 F 
ATOM     11  C   UNL     1       6.705   6.039  16.475  0.00  0.00    +0.000 A 
ATOM     12  C   UNL     1       5.786   6.693  17.301  0.00  0.00    +0.000 A 
ENDBRANCH   4   6
BRANCH   1  13
ATOM     13  C   UNL     1       1.035   9.317  18.671  0.00  0.00    +0.000 C 
BRANCH  13  18
ATOM     14  C   UNL     1       2.292  15.435  18.259  0.00  0.00    +0.000 A 
ATOM     15  C   UNL     1       2.630  14.080  18.191  0.00  0.00    +0.000 A 
ATOM     16  C   UNL     1       1.739  13.088  18.672  0.00  0.00    +0.000 A 
ATOM     17  C   UNL     1       1.984  11.707  18.557  0.00  0.00    +0.000 A 
ATOM     18  C   UNL     1       1.084  10.768  19.095  0.00  0.00    +0.000 A 
ATOM     19  C   UNL     1       0.037  11.313  19.828  0.00  0.00    +0.000 A 
ATOM     20  N   UNL     1      -0.278  12.615  19.885  0.00  0.00    +0.000 NA
ATOM     21  C   UNL     1       0.539  13.478  19.272  0.00  0.00    +0.000 A 
ATOM     22  C   UNL     1       0.161  14.818  19.220  0.00  0.00    +0.000 A 
ATOM     23  C   UNL     1       1.020  15.803  18.730  0.00  0.00    +0.000 A 
BRANCH  14  25
ATOM     24  C   UNL     1       4.335  16.614  18.639  0.00  0.00    +0.000 C 
ATOM     25  O   UNL     1       3.120  16.475  17.923  0.00  0.00    +0.000 OA
ENDBRANCH  14  25
BRANCH  19  26
ATOM     26  O   UNL     1      -0.764  10.522  20.590  0.00  0.00    +0.000 OA
ATOM     27  H   UNL     1      -1.578  11.040  20.714  0.00  0.00    +0.000 HD
ENDBRANCH  19  26
BRANCH  23  28
ATOM     28  O   UNL     1       0.704  17.138  18.665  0.00  0.00    +0.000 OA
ATOM     29  C   UNL     1      -0.337  17.522  17.777  0.00  0.00    +0.000 C 
ENDBRANCH  23  28
ENDBRANCH  13  18
ENDBRANCH   1  13
BRANCH   1  30
ATOM     30  C   UNL     1       1.822   7.629  20.406  0.00  0.00    +0.000 C 
BRANCH  30  31
ATOM     31  C   UNL     1       1.333   6.174  20.376  0.00  0.00    +0.000 C 
BRANCH  31  32
ATOM     32  C   UNL     1       2.283   5.107  20.933  0.00  0.00    +0.000 C 
BRANCH  32  33
ATOM     33  N   UNL     1       1.599   3.816  21.133  0.00  0.00    +0.000 NA
ATOM     34  C   UNL     1       2.537   2.706  21.415  0.00  0.00    +0.000 C 
ATOM     35  C   UNL     1       3.439   2.360  20.220  0.00  0.00    +0.000 C 
ATOM     36  O   UNL     1       2.668   2.026  19.059  0.00  0.00    +0.000 OA
ATOM     37  C   UNL     1       1.733   3.058  18.724  0.00  0.00    +0.000 C 
ATOM     38  C   UNL     1       0.834   3.425  19.919  0.00  0.00    +0.000 C 
ENDBRANCH  32  33
ENDBRANCH  31  32
ENDBRANCH  30  31
ENDBRANCH   1  30
TORSDOF 10
ENDMDL
MODEL 4
REMARK VINA RESULT:      -7.3      2.783      5.076
REMARK  Name = 
REMARK  12 active torsions:
REMARK  status: ('A' for Active; 'I' for Inactive)
REMARK    1  A    between atoms: C_1  and  O_2
REMARK    2  A    between atoms: O_2  and  C_3
REMARK    3  A    between atoms: C_7  and  C_8
REMARK    4  A    between atoms: C_8  and  N_9
REMARK    5  A    between atoms: N_9  and  C_10
REMARK    6  A    between atoms: C_10  and  C_11
REMARK    7  A    between atoms: C_11  and  C_12
REMARK    8  A    between atoms: C_12  and  N_13
REMARK    9  A    between atoms: N_21  and  C_22
REMARK   10  A    between atoms: C_29  and  O_30
REMARK   11  A    between atoms: C_34  and  O_35
REMARK   12  A    between atoms: O_35  and  C_36
REMARK                            x       y       z     vdW  Elec       q    Type
REMARK                         _______ _______ _______ _____ _____    ______ ____
ROOT
ATOM      1  N   UNL     1       0.972   9.274  19.723  0.00  0.00    +0.000 N 
ATOM      2  C   UNL     1       1.786   8.129  19.587  0.00  0.00    +0.000 C 
ATOM      3  O   UNL     1       2.293   7.602  20.577  0.00  0.00    +0.000 OA
ATOM      4  N   UNL     1       1.997   7.663  18.307  0.00  0.00    +0.000 N 
ATOM      5  H   UNL     1       1.790   8.270  17.533  0.00  0.00    +0.000 HD
ENDROOT
BRANCH   4   6
ATOM      6  C   UNL     1       2.757   6.516  17.974  0.00  0.00    +0.000 A 
ATOM      7  C   UNL     1       4.096   6.573  17.570  0.00  0.00    +0.000 A 
ATOM      8  C   UNL     1       4.773   5.420  17.175  0.00  0.00    +0.000 A 
ATOM      9  C   UNL     1       4.117   4.201  17.210  0.00  0.00    +0.000 A 
ATOM     10  F   UNL     1       4.760   3.094  16.812  0.00  0.00    +0.000 F 
ATOM     11  C   UNL     1       2.804   4.111  17.651  0.00  0.00    +0.000 A 
ATOM     12  C   UNL     1       2.122   5.268  18.042  0.00  0.00    +0.000 A 
ENDBRANCH   4   6
BRANCH   1  13
ATOM     13  C   UNL     1       1.030   9.834  21.079  0.00  0.00    +0.000 C 
BRANCH  13  18
ATOM     14  C   UNL     1      -3.377  13.202  23.979  0.00  0.00    +0.000 A 
ATOM     15  C   UNL     1      -2.913  12.080  23.286  0.00  0.00    +0.000 A 
ATOM     16  C   UNL     1      -1.633  12.086  22.676  0.00  0.00    +0.000 A 
ATOM     17  C   UNL     1      -1.075  10.964  22.037  0.00  0.00    +0.000 A 
ATOM     18  C   UNL     1       0.181  11.042  21.409  0.00  0.00    +0.000 A 
ATOM     19  C   UNL     1       0.740  12.313  21.374  0.00  0.00    +0.000 A 
ATOM     20  N   UNL     1       0.286  13.383  22.044  0.00  0.00    +0.000 NA
ATOM     21  C   UNL     1      -0.858  13.248  22.723  0.00  0.00    +0.000 A 
ATOM     22  C   UNL     1      -1.280  14.311  23.520  0.00  0.00    +0.000 A 
ATOM     23  C   UNL     1      -2.527  14.309  24.142  0.00  0.00    +0.000 A 
BRANCH  14  25
ATOM     24  C   UNL     1      -5.713  13.555  23.617  0.00  0.00    +0.000 C 
ATOM     25  O   UNL     1      -4.634  13.339  24.511  0.00  0.00    +0.000 OA
ENDBRANCH  14  25
BRANCH  19  26
ATOM     26  O   UNL     1       1.829  12.573  20.602  0.00  0.00    +0.000 OA
ATOM     27  H   UNL     1       1.654  12.110  19.764  0.00  0.00    +0.000 HD
ENDBRANCH  19  26
BRANCH  23  28
ATOM     28  O   UNL     1      -2.998  15.333  24.929  0.00  0.00    +0.000 OA
ATOM     29  C   UNL     1      -2.045  16.067  25.686  0.00  0.00    +0.000 C 
ENDBRANCH  23  28
ENDBRANCH  13  18
ENDBRANCH   1  13
BRANCH   1  30
ATOM     30  C   UNL     1       0.740  10.172  18.573  0.00  0.00    +0.000 C 
BRANCH  30  31
ATOM     31  C   UNL     1      -0.491  10.026  17.667  0.00  0.00    +0.000 C 
BRANCH  31  32
ATOM     32  C   UNL     1      -1.837  10.487  18.240  0.00  0.00    +0.000 C 
BRANCH  32  33
ATOM     33  N   UNL     1      -2.962   9.713  17.683  0.00  0.00    +0.000 NA
ATOM     34  C   UNL     1      -2.926   9.630  16.205  0.00  0.00    +0.000 C 
ATOM     35  C   UNL     1      -3.156  10.986  15.519  0.00  0.00    +0.000 C 
ATOM     36  O   UNL     1      -4.403  11.571  15.917  0.00  0.00    +0.000 OA
ATOM     37  C   UNL     1      -4.510  11.683  17.341  0.00  0.00    +0.000 C 
ATOM     38  C   UNL     1      -4.265  10.334  18.041  0.00  0.00    +0.000 C 
ENDBRANCH  32  33
ENDBRANCH  31  32
ENDBRANCH  30  31
ENDBRANCH   1  30
TORSDOF 10
ENDMDL
MODEL 5
REMARK VINA RESULT:      -7.3      4.372     10.520
REMARK  Name = 
REMARK  12 active torsions:
REMARK  status: ('A' for Active; 'I' for Inactive)
REMARK    1  A    between atoms: C_1  and  O_2
REMARK    2  A    between atoms: O_2  and  C_3
REMARK    3  A    between atoms: C_7  and  C_8
REMARK    4  A    between atoms: C_8  and  N_9
REMARK    5  A    between atoms: N_9  and  C_10
REMARK    6  A    between atoms: C_10  and  C_11
REMARK    7  A    between atoms: C_11  and  C_12
REMARK    8  A    between atoms: C_12  and  N_13
REMARK    9  A    between atoms: N_21  and  C_22
REMARK   10  A    between atoms: C_29  and  O_30
REMARK   11  A    between atoms: C_34  and  O_35
REMARK   12  A    between atoms: O_35  and  C_36
REMARK                            x       y       z     vdW  Elec       q    Type
REMARK                         _______ _______ _______ _____ _____    ______ ____
ROOT
ATOM      1  N   UNL     1      -0.313  11.293  19.740  0.00  0.00    +0.000 N 
ATOM      2  C   UNL     1      -0.612  12.007  20.920  0.00  0.00    +0.000 C 
ATOM      3  O   UNL     1       0.279  12.290  21.721  0.00  0.00    +0.000 OA
ATOM      4  N   UNL     1      -1.933  12.336  21.132  0.00  0.00    +0.000 N 
ATOM      5  H   UNL     1      -2.640  11.859  20.598  0.00  0.00    +0.000 HD
ENDROOT
BRANCH   4   6
ATOM      6  C   UNL     1      -2.421  13.072  22.238  0.00  0.00    +0.000 A 
ATOM      7  C   UNL     1      -3.057  12.478  23.335  0.00  0.00    +0.000 A 
ATOM      8  C   UNL     1      -3.591  13.256  24.360  0.00  0.00    +0.000 A 
ATOM      9  C   UNL     1      -3.466  14.635  24.302  0.00  0.00    +0.000 A 
ATOM     10  F   UNL     1      -3.997  15.386  25.276  0.00  0.00    +0.000 F 
ATOM     11  C   UNL     1      -2.800  15.245  23.247  0.00  0.00    +0.000 A 
ATOM     12  C   UNL     1      -2.269  14.465  22.217  0.00  0.00    +0.000 A 
ENDBRANCH   4   6
BRANCH   1  13
ATOM     13  C   UNL     1       1.059  10.770  19.744  0.00  0.00    +0.000 C 
BRANCH  13  18
ATOM     14  C   UNL     1       3.730   5.491  17.699  0.00  0.00    +0.000 A 
ATOM     15  C   UNL     1       3.164   6.758  17.523  0.00  0.00    +0.000 A 
ATOM     16  C   UNL     1       2.492   7.403  18.591  0.00  0.00    +0.000 A 
ATOM     17  C   UNL     1       1.974   8.708  18.503  0.00  0.00    +0.000 A 
ATOM     18  C   UNL     1       1.275   9.281  19.581  0.00  0.00    +0.000 A 
ATOM     19  C   UNL     1       1.047   8.425  20.652  0.00  0.00    +0.000 A 
ATOM     20  N   UNL     1       1.596   7.212  20.810  0.00  0.00    +0.000 NA
ATOM     21  C   UNL     1       2.346   6.738  19.811  0.00  0.00    +0.000 A 
ATOM     22  C   UNL     1       3.021   5.534  20.009  0.00  0.00    +0.000 A 
ATOM     23  C   UNL     1       3.704   4.898  18.973  0.00  0.00    +0.000 A 
BRANCH  14  25
ATOM     24  C   UNL     1       5.342   5.328  15.943  0.00  0.00    +0.000 C 
ATOM     25  O   UNL     1       4.306   4.737  16.709  0.00  0.00    +0.000 OA
ENDBRANCH  14  25
BRANCH  19  26
ATOM     26  O   UNL     1       0.190   8.773  21.649  0.00  0.00    +0.000 OA
ATOM     27  H   UNL     1      -0.543   9.228  21.199  0.00  0.00    +0.000 HD
ENDBRANCH  19  26
BRANCH  23  28
ATOM     28  O   UNL     1       4.376   3.707  19.109  0.00  0.00    +0.000 OA
ATOM     29  C   UNL     1       3.817   2.737  19.984  0.00  0.00    +0.000 C 
ENDBRANCH  23  28
ENDBRANCH  13  18
ENDBRANCH   1  13
BRANCH   1  30
ATOM     30  C   UNL     1      -1.371  10.559  19.017  0.00  0.00    +0.000 C 
BRANCH  30  31
ATOM     31  C   UNL     1      -2.329  11.264  18.046  0.00  0.00    +0.000 C 
BRANCH  31  32
ATOM     32  C   UNL     1      -3.823  10.947  18.187  0.00  0.00    +0.000 C 
BRANCH  32  33
ATOM     33  N   UNL     1      -4.649  12.168  18.127  0.00  0.00    +0.000 NA
ATOM     34  C   UNL     1      -4.957  12.718  19.466  0.00  0.00    +0.000 C 
ATOM     35  C   UNL     1      -5.873  11.805  20.297  0.00  0.00    +0.000 C 
ATOM     36  O   UNL     1      -7.105  11.536  19.615  0.00  0.00    +0.000 OA
ATOM     37  C   UNL     1      -6.883  10.998  18.306  0.00  0.00    +0.000 C 
ATOM     38  C   UNL     1      -5.954  11.896  17.469  0.00  0.00    +0.000 C 
ENDBRANCH  32  33
ENDBRANCH  31  32
ENDBRANCH  30  31
ENDBRANCH   1  30
TORSDOF 10
ENDMDL
MODEL 6
REMARK VINA RESULT:      -7.2      2.224      3.332
REMARK  Name = 
REMARK  12 active torsions:
REMARK  status: ('A' for Active; 'I' for Inactive)
REMARK    1  A    between atoms: C_1  and  O_2
REMARK    2  A    between atoms: O_2  and  C_3
REMARK    3  A    between atoms: C_7  and  C_8
REMARK    4  A    between atoms: C_8  and  N_9
REMARK    5  A    between atoms: N_9  and  C_10
REMARK    6  A    between atoms: C_10  and  C_11
REMARK    7  A    between atoms: C_11  and  C_12
REMARK    8  A    between atoms: C_12  and  N_13
REMARK    9  A    between atoms: N_21  and  C_22
REMARK   10  A    between atoms: C_29  and  O_30
REMARK   11  A    between atoms: C_34  and  O_35
REMARK   12  A    between atoms: O_35  and  C_36
REMARK                            x       y       z     vdW  Elec       q    Type
REMARK                         _______ _______ _______ _____ _____    ______ ____
ROOT
ATOM      1  N   UNL     1       2.198   8.401  19.019  0.00  0.00    +0.000 N 
ATOM      2  C   UNL     1       2.988   7.868  17.978  0.00  0.00    +0.000 C 
ATOM      3  O   UNL     1       2.839   8.256  16.819  0.00  0.00    +0.000 OA
ATOM      4  N   UNL     1       3.896   6.890  18.323  0.00  0.00    +0.000 N 
ATOM      5  H   UNL     1       3.793   6.428  19.211  0.00  0.00    +0.000 HD
ENDROOT
BRANCH   4   6
ATOM      6  C   UNL     1       4.793   6.260  17.428  0.00  0.00    +0.000 A 
ATOM      7  C   UNL     1       4.430   5.185  16.607  0.00  0.00    +0.000 A 
ATOM      8  C   UNL     1       5.373   4.549  15.803  0.00  0.00    +0.000 A 
ATOM      9  C   UNL     1       6.681   5.006  15.798  0.00  0.00    +0.000 A 
ATOM     10  F   UNL     1       7.594   4.382  15.041  0.00  0.00    +0.000 F 
ATOM     11  C   UNL     1       7.056   6.099  16.568  0.00  0.00    +0.000 A 
ATOM     12  C   UNL     1       6.111   6.734  17.379  0.00  0.00    +0.000 A 
ENDBRANCH   4   6
BRANCH   1  13
ATOM     13  C   UNL     1       1.098   9.229  18.507  0.00  0.00    +0.000 C 
BRANCH  13  18
ATOM     14  C   UNL     1       1.754  15.453  18.571  0.00  0.00    +0.000 A 
ATOM     15  C   UNL     1       2.236  14.145  18.467  0.00  0.00    +0.000 A 
ATOM     16  C   UNL     1       1.406  13.042  18.792  0.00  0.00    +0.000 A 
ATOM     17  C   UNL     1       1.803  11.702  18.630  0.00  0.00    +0.000 A 
ATOM     18  C   UNL     1       0.953  10.648  19.013  0.00  0.00    +0.000 A 
ATOM     19  C   UNL     1      -0.215  11.040  19.653  0.00  0.00    +0.000 A 
ATOM     20  N   UNL     1      -0.667  12.299  19.747  0.00  0.00    +0.000 NA
ATOM     21  C   UNL     1       0.116  13.274  19.275  0.00  0.00    +0.000 A 
ATOM     22  C   UNL     1      -0.390  14.573  19.255  0.00  0.00    +0.000 A 
ATOM     23  C   UNL     1       0.409  15.665  18.917  0.00  0.00    +0.000 A 
BRANCH  14  25
ATOM     24  C   UNL     1       2.993  16.853  17.082  0.00  0.00    +0.000 C 
ATOM     25  O   UNL     1       2.501  16.589  18.385  0.00  0.00    +0.000 OA
ENDBRANCH  14  25
BRANCH  19  26
ATOM     26  O   UNL     1      -1.006  10.127  20.278  0.00  0.00    +0.000 OA
ATOM     27  H   UNL     1      -0.643  10.061  21.179  0.00  0.00    +0.000 HD
ENDBRANCH  19  26
BRANCH  23  28
ATOM     28  O   UNL     1      -0.034  16.966  18.891  0.00  0.00    +0.000 OA
ATOM     29  C   UNL     1      -1.312  17.233  19.452  0.00  0.00    +0.000 C 
ENDBRANCH  23  28
ENDBRANCH  13  18
ENDBRANCH   1  13
BRANCH   1  30
ATOM     30  C   UNL     1       2.026   7.662  20.286  0.00  0.00    +0.000 C 
BRANCH  30  31
ATOM     31  C   UNL     1       1.047   6.486  20.412  0.00  0.00    +0.000 C 
BRANCH  31  32
ATOM     32  C   UNL     1       1.652   5.097  20.648  0.00  0.00    +0.000 C 
BRANCH  32  33
ATOM     33  N   UNL     1       2.378   4.608  19.461  0.00  0.00    +0.000 NA
ATOM     34  C   UNL     1       1.484   3.984  18.459  0.00  0.00    +0.000 C 
ATOM     35  C   UNL     1       0.846   2.676  18.951  0.00  0.00    +0.000 C 
ATOM     36  O   UNL     1       1.841   1.719  19.339  0.00  0.00    +0.000 OA
ATOM     37  C   UNL     1       2.746   2.256  20.312  0.00  0.00    +0.000 C 
ATOM     38  C   UNL     1       3.380   3.575  19.836  0.00  0.00    +0.000 C 
ENDBRANCH  32  33
ENDBRANCH  31  32
ENDBRANCH  30  31
ENDBRANCH   1  30
TORSDOF 10
ENDMDL
MODEL 7
REMARK VINA RESULT:      -7.2      3.556      5.615
REMARK  Name = 
REMARK  12 active torsions:
REMARK  status: ('A' for Active; 'I' for Inactive)
REMARK    1  A    between atoms: C_1  and  O_2
REMARK    2  A    between atoms: O_2  and  C_3
REMARK    3  A    between atoms: C_7  and  C_8
REMARK    4  A    between atoms: C_8  and  N_9
REMARK    5  A    between atoms: N_9  and  C_10
REMARK    6  A    between atoms: C_10  and  C_11
REMARK    7  A    between atoms: C_11  and  C_12
REMARK    8  A    between atoms: C_12  and  N_13
REMARK    9  A    between atoms: N_21  and  C_22
REMARK   10  A    between atoms: C_29  and  O_30
REMARK   11  A    between atoms: C_34  and  O_35
REMARK   12  A    between atoms: O_35  and  C_36
REMARK                            x       y       z     vdW  Elec       q    Type
REMARK                         _______ _______ _______ _____ _____    ______ ____
ROOT
ATOM      1  N   UNL     1       2.102   8.292  18.980  0.00  0.00    +0.000 N 
ATOM      2  C   UNL     1       1.867   7.162  19.793  0.00  0.00    +0.000 C 
ATOM      3  O   UNL     1       1.208   7.265  20.828  0.00  0.00    +0.000 OA
ATOM      4  N   UNL     1       2.428   5.972  19.383  0.00  0.00    +0.000 N 
ATOM      5  H   UNL     1       3.162   5.997  18.696  0.00  0.00    +0.000 HD
ENDROOT
BRANCH   4   6
ATOM      6  C   UNL     1       2.280   4.732  20.048  0.00  0.00    +0.000 A 
ATOM      7  C   UNL     1       1.038   4.198  20.409  0.00  0.00    +0.000 A 
ATOM      8  C   UNL     1       0.953   3.011  21.135  0.00  0.00    +0.000 A 
ATOM      9  C   UNL     1       2.115   2.340  21.479  0.00  0.00    +0.000 A 
ATOM     10  F   UNL     1       2.037   1.210  22.194  0.00  0.00    +0.000 F 
ATOM     11  C   UNL     1       3.358   2.825  21.093  0.00  0.00    +0.000 A 
ATOM     12  C   UNL     1       3.443   4.018  20.370  0.00  0.00    +0.000 A 
ENDBRANCH   4   6
BRANCH   1  13
ATOM     13  C   UNL     1       1.690   9.539  19.636  0.00  0.00    +0.000 C 
BRANCH  13  18
ATOM     14  C   UNL     1      -3.542  10.578  16.361  0.00  0.00    +0.000 A 
ATOM     15  C   UNL     1      -2.239  10.097  16.519  0.00  0.00    +0.000 A 
ATOM     16  C   UNL     1      -1.479  10.434  17.668  0.00  0.00    +0.000 A 
ATOM     17  C   UNL     1      -0.196   9.916  17.925  0.00  0.00    +0.000 A 
ATOM     18  C   UNL     1       0.530  10.322  19.060  0.00  0.00    +0.000 A 
ATOM     19  C   UNL     1      -0.064  11.332  19.805  0.00  0.00    +0.000 A 
ATOM     20  N   UNL     1      -1.315  11.786  19.645  0.00  0.00    +0.000 NA
ATOM     21  C   UNL     1      -2.022  11.301  18.619  0.00  0.00    +0.000 A 
ATOM     22  C   UNL     1      -3.362  11.671  18.510  0.00  0.00    +0.000 A 
ATOM     23  C   UNL     1      -4.127  11.329  17.395  0.00  0.00    +0.000 A 
BRANCH  14  25
ATOM     24  C   UNL     1      -3.667  10.179  14.009  0.00  0.00    +0.000 C 
ATOM     25  O   UNL     1      -4.321  10.402  15.246  0.00  0.00    +0.000 OA
ENDBRANCH  14  25
BRANCH  19  26
ATOM     26  O   UNL     1       0.630  11.975  20.783  0.00  0.00    +0.000 OA
ATOM     27  H   UNL     1       0.779  11.299  21.466  0.00  0.00    +0.000 HD
ENDBRANCH  19  26
BRANCH  23  28
ATOM     28  O   UNL     1      -5.447  11.675  17.231  0.00  0.00    +0.000 OA
ATOM     29  C   UNL     1      -6.386  11.128  18.147  0.00  0.00    +0.000 C 
ENDBRANCH  23  28
ENDBRANCH  13  18
ENDBRANCH   1  13
BRANCH   1  30
ATOM     30  C   UNL     1       3.227   8.309  18.023  0.00  0.00    +0.000 C 
BRANCH  30  31
ATOM     31  C   UNL     1       3.404   7.215  16.960  0.00  0.00    +0.000 C 
BRANCH  31  32
ATOM     32  C   UNL     1       4.817   6.651  16.768  0.00  0.00    +0.000 C 
BRANCH  32  33
ATOM     33  N   UNL     1       5.037   5.440  17.580  0.00  0.00    +0.000 NA
ATOM     34  C   UNL     1       6.179   5.575  18.514  0.00  0.00    +0.000 C 
ATOM     35  C   UNL     1       7.535   5.678  17.797  0.00  0.00    +0.000 C 
ATOM     36  O   UNL     1       7.767   4.548  16.946  0.00  0.00    +0.000 OA
ATOM     37  C   UNL     1       6.698   4.354  16.012  0.00  0.00    +0.000 C 
ATOM     38  C   UNL     1       5.332   4.265  16.717  0.00  0.00    +0.000 C 
ENDBRANCH  32  33
ENDBRANCH  31  32
ENDBRANCH  30  31
ENDBRANCH   1  30
TORSDOF 10
ENDMDL
MODEL 8
REMARK VINA RESULT:      -7.2      2.320      2.940
REMARK  Name = 
REMARK  12 active torsions:
REMARK  status: ('A' for Active; 'I' for Inactive)
REMARK    1  A    between atoms: C_1  and  O_2
REMARK    2  A    between atoms: O_2  and  C_3
REMARK    3  A    between atoms: C_7  and  C_8
REMARK    4  A    between atoms: C_8  and  N_9
REMARK    5  A    between atoms: N_9  and  C_10
REMARK    6  A    between atoms: C_10  and  C_11
REMARK    7  A    between atoms: C_11  and  C_12
REMARK    8  A    between atoms: C_12  and  N_13
REMARK    9  A    between atoms: N_21  and  C_22
REMARK   10  A    between atoms: C_29  and  O_30
REMARK   11  A    between atoms: C_34  and  O_35
REMARK   12  A    between atoms: O_35  and  C_36
REMARK                            x       y       z     vdW  Elec       q    Type
REMARK                         _______ _______ _______ _____ _____    ______ ____
ROOT
ATOM      1  N   UNL     1       2.089   8.368  18.940  0.00  0.00    +0.000 N 
ATOM      2  C   UNL     1       2.933   7.786  17.969  0.00  0.00    +0.000 C 
ATOM      3  O   UNL     1       2.827   8.096  16.783  0.00  0.00    +0.000 OA
ATOM      4  N   UNL     1       3.844   6.852  18.415  0.00  0.00    +0.000 N 
ATOM      5  H   UNL     1       3.711   6.446  19.325  0.00  0.00    +0.000 HD
ENDROOT
BRANCH   4   6
ATOM      6  C   UNL     1       4.789   6.185  17.600  0.00  0.00    +0.000 A 
ATOM      7  C   UNL     1       6.091   6.656  17.391  0.00  0.00    +0.000 A 
ATOM      8  C   UNL     1       6.956   6.004  16.514  0.00  0.00    +0.000 A 
ATOM      9  C   UNL     1       6.527   4.859  15.863  0.00  0.00    +0.000 A 
ATOM     10  F   UNL     1       7.350   4.241  15.004  0.00  0.00    +0.000 F 
ATOM     11  C   UNL     1       5.257   4.345  16.089  0.00  0.00    +0.000 A 
ATOM     12  C   UNL     1       4.387   5.002  16.964  0.00  0.00    +0.000 A 
ENDBRANCH   4   6
BRANCH   1  13
ATOM     13  C   UNL     1       0.997   9.137  18.330  0.00  0.00    +0.000 C 
BRANCH  13  18
ATOM     14  C   UNL     1       2.081  15.257  19.078  0.00  0.00    +0.000 A 
ATOM     15  C   UNL     1       2.439  13.906  19.131  0.00  0.00    +0.000 A 
ATOM     16  C   UNL     1       1.463  12.893  18.960  0.00  0.00    +0.000 A 
ATOM     17  C   UNL     1       1.771  11.521  18.921  0.00  0.00    +0.000 A 
ATOM     18  C   UNL     1       0.754  10.557  18.795  0.00  0.00    +0.000 A 
ATOM     19  C   UNL     1      -0.540  11.061  18.835  0.00  0.00    +0.000 A 
ATOM     20  N   UNL     1      -0.871  12.360  18.782  0.00  0.00    +0.000 NA
ATOM     21  C   UNL     1       0.123  13.253  18.794  0.00  0.00    +0.000 A 
ATOM     22  C   UNL     1      -0.199  14.598  18.619  0.00  0.00    +0.000 A 
ATOM     23  C   UNL     1       0.756  15.604  18.764  0.00  0.00    +0.000 A 
BRANCH  14  25
ATOM     24  C   UNL     1       3.645  16.297  20.553  0.00  0.00    +0.000 C 
ATOM     25  O   UNL     1       2.922  16.309  19.334  0.00  0.00    +0.000 OA
ENDBRANCH  14  25
BRANCH  19  26
ATOM     26  O   UNL     1      -1.608  10.228  18.958  0.00  0.00    +0.000 OA
ATOM     27  H   UNL     1      -1.718   9.836  18.074  0.00  0.00    +0.000 HD
ENDBRANCH  19  26
BRANCH  23  28
ATOM     28  O   UNL     1       0.492  16.944  18.612  0.00  0.00    +0.000 OA
ATOM     29  C   UNL     1      -0.843  17.378  18.832  0.00  0.00    +0.000 C 
ENDBRANCH  23  28
ENDBRANCH  13  18
ENDBRANCH   1  13
BRANCH   1  30
ATOM     30  C   UNL     1       1.877   7.708  20.244  0.00  0.00    +0.000 C 
BRANCH  30  31
ATOM     31  C   UNL     1       1.313   6.284  20.350  0.00  0.00    +0.000 C 
BRANCH  31  32
ATOM     32  C   UNL     1       2.272   5.188  20.832  0.00  0.00    +0.000 C 
BRANCH  32  33
ATOM     33  N   UNL     1       1.570   3.913  21.069  0.00  0.00    +0.000 NA
ATOM     34  C   UNL     1       2.488   2.812  21.437  0.00  0.00    +0.000 C 
ATOM     35  C   UNL     1       3.428   2.402  20.292  0.00  0.00    +0.000 C 
ATOM     36  O   UNL     1       2.695   2.018  19.122  0.00  0.00    +0.000 OA
ATOM     37  C   UNL     1       1.782   3.039  18.705  0.00  0.00    +0.000 C 
ATOM     38  C   UNL     1       0.845   3.470  19.848  0.00  0.00    +0.000 C 
ENDBRANCH  32  33
ENDBRANCH  31  32
ENDBRANCH  30  31
ENDBRANCH   1  30
TORSDOF 10
ENDMDL
MODEL 9
REMARK VINA RESULT:      -7.1      2.115      3.053
REMARK  Name = 
REMARK  12 active torsions:
REMARK  status: ('A' for Active; 'I' for Inactive)
REMARK    1  A    between atoms: C_1  and  O_2
REMARK    2  A    between atoms: O_2  and  C_3
REMARK    3  A    between atoms: C_7  and  C_8
REMARK    4  A    between atoms: C_8  and  N_9
REMARK    5  A    between atoms: N_9  and  C_10
REMARK    6  A    between atoms: C_10  and  C_11
REMARK    7  A    between atoms: C_11  and  C_12
REMARK    8  A    between atoms: C_12  and  N_13
REMARK    9  A    between atoms: N_21  and  C_22
REMARK   10  A    between atoms: C_29  and  O_30
REMARK   11  A    between atoms: C_34  and  O_35
REMARK   12  A    between atoms: O_35  and  C_36
REMARK                            x       y       z     vdW  Elec       q    Type
REMARK                         _______ _______ _______ _____ _____    ______ ____
ROOT
ATOM      1  N   UNL     1       1.979   8.444  19.245  0.00  0.00    +0.000 N 
ATOM      2  C   UNL     1       2.612   7.865  18.125  0.00  0.00    +0.000 C 
ATOM      3  O   UNL     1       2.404   8.305  16.994  0.00  0.00    +0.000 OA
ATOM      4  N   UNL     1       3.436   6.786  18.362  0.00  0.00    +0.000 N 
ATOM      5  H   UNL     1       3.362   6.308  19.244  0.00  0.00    +0.000 HD
ENDROOT
BRANCH   4   6
ATOM      6  C   UNL     1       4.177   6.095  17.374  0.00  0.00    +0.000 A 
ATOM      7  C   UNL     1       4.970   6.740  16.418  0.00  0.00    +0.000 A 
ATOM      8  C   UNL     1       5.615   6.016  15.417  0.00  0.00    +0.000 A 
ATOM      9  C   UNL     1       5.487   4.637  15.386  0.00  0.00    +0.000 A 
ATOM     10  F   UNL     1       6.089   3.940  14.412  0.00  0.00    +0.000 F 
ATOM     11  C   UNL     1       4.743   3.969  16.350  0.00  0.00    +0.000 A 
ATOM     12  C   UNL     1       4.092   4.696  17.351  0.00  0.00    +0.000 A 
ENDBRANCH   4   6
BRANCH   1  13
ATOM     13  C   UNL     1       0.934   9.399  18.856  0.00  0.00    +0.000 C 
BRANCH  13  18
ATOM     14  C   UNL     1       1.904  15.582  18.760  0.00  0.00    +0.000 A 
ATOM     15  C   UNL     1       2.272  14.254  18.528  0.00  0.00    +0.000 A 
ATOM     16  C   UNL     1       1.503  13.188  19.059  0.00  0.00    +0.000 A 
ATOM     17  C   UNL     1       1.772  11.832  18.794  0.00  0.00    +0.000 A 
ATOM     18  C   UNL     1       1.002  10.815  19.386  0.00  0.00    +0.000 A 
ATOM     19  C   UNL     1       0.068  11.253  20.316  0.00  0.00    +0.000 A 
ATOM     20  N   UNL     1      -0.278  12.531  20.529  0.00  0.00    +0.000 NA
ATOM     21  C   UNL     1       0.401  13.475  19.869  0.00  0.00    +0.000 A 
ATOM     22  C   UNL     1      -0.024  14.797  19.988  0.00  0.00    +0.000 A 
ATOM     23  C   UNL     1       0.711  15.854  19.453  0.00  0.00    +0.000 A 
BRANCH  14  25
ATOM     24  C   UNL     1       2.886  16.870  17.004  0.00  0.00    +0.000 C 
ATOM     25  O   UNL     1       2.632  16.682  18.386  0.00  0.00    +0.000 OA
ENDBRANCH  14  25
BRANCH  19  26
ATOM     26  O   UNL     1      -0.574  10.370  21.126  0.00  0.00    +0.000 OA
ATOM     27  H   UNL     1      -0.611   9.545  20.612  0.00  0.00    +0.000 HD
ENDBRANCH  19  26
BRANCH  23  28
ATOM     28  O   UNL     1       0.345  17.175  19.549  0.00  0.00    +0.000 OA
ATOM     29  C   UNL     1      -0.398  17.566  20.696  0.00  0.00    +0.000 C 
ENDBRANCH  23  28
ENDBRANCH  13  18
ENDBRANCH   1  13
BRANCH   1  30
ATOM     30  C   UNL     1       1.841   7.685  20.506  0.00  0.00    +0.000 C 
BRANCH  30  31
ATOM     31  C   UNL     1       1.297   6.250  20.532  0.00  0.00    +0.000 C 
BRANCH  31  32
ATOM     32  C   UNL     1       2.297   5.131  20.846  0.00  0.00    +0.000 C 
BRANCH  32  33
ATOM     33  N   UNL     1       1.615   3.870  21.195  0.00  0.00    +0.000 NA
ATOM     34  C   UNL     1       2.559   2.753  21.427  0.00  0.00    +0.000 C 
ATOM     35  C   UNL     1       3.305   2.320  20.154  0.00  0.00    +0.000 C 
ATOM     36  O   UNL     1       2.395   1.946  19.113  0.00  0.00    +0.000 OA
ATOM     37  C   UNL     1       1.447   2.984  18.833  0.00  0.00    +0.000 C 
ATOM     38  C   UNL     1       0.704   3.437  20.103  0.00  0.00    +0.000 C 
ENDBRANCH  32  33
ENDBRANCH  31  32
ENDBRANCH  30  31
ENDBRANCH   1  30
TORSDOF 10
ENDMDL
