MODEL 1
REMARK VINA RESULT:      -7.9      0.000      0.000
REMARK  Name = 
REMARK  5 active torsions:
REMARK  status: ('A' for Active; 'I' for Inactive)
REMARK    1  A    between atoms: C_2  and  C_3
REMARK    2  A    between atoms: C_3  and  C_4
REMARK    3  A    between atoms: N_11  and  C_12
REMARK    4  A    between atoms: N_15  and  C_16
REMARK    5  A    between atoms: C_16  and  C_17
REMARK                            x       y       z     vdW  Elec       q    Type
REMARK                         _______ _______ _______ _____ _____    ______ ____
ROOT
ATOM      1  C   UNL     1       3.658   3.537  18.209  0.00  0.00    +0.000 C 
ATOM      2  C   UNL     1       2.385   4.086  17.568  0.00  0.00    +0.000 C 
ATOM      3  C   UNL     1       2.134   5.576  17.792  0.00  0.00    +0.000 C 
ATOM      4  N   UNL     1       2.445   6.115  19.127  0.00  0.00    +0.000 NA
ATOM      5  C   UNL     1       3.673   5.562  19.724  0.00  0.00    +0.000 C 
ATOM      6  C   UNL     1       3.791   4.049  19.634  0.00  0.00    +0.000 C 
ENDROOT
BRANCH   1   9
ATOM      7  O   UNL     1       5.143   5.828  16.929  0.00  0.00    +0.000 OA
ATOM      8  C   UNL     1       5.545   4.678  16.865  0.00  0.00    +0.000 C 
ATOM      9  N   UNL     1       4.903   3.588  17.420  0.00  0.00    +0.000 N 
ATOM     10  H   UNL     1       5.412   2.717  17.380  0.00  0.00    +0.000 HD
BRANCH   8  11
ATOM     11  C   UNL     1       6.801   4.315  16.070  0.00  0.00    +0.000 C 
BRANCH  11  12
ATOM     12  C   UNL     1       6.733   4.365  14.554  0.00  0.00    +0.000 A 
ATOM     13  C   UNL     1       7.632   5.204  13.862  0.00  0.00    +0.000 A 
ATOM     14  C   UNL     1       7.732   5.174  12.466  0.00  0.00    +0.000 A 
ATOM     15  C   UNL     1       6.938   4.297  11.734  0.00  0.00    +0.000 A 
ATOM     16  C   UNL     1       6.047   3.470  12.405  0.00  0.00    +0.000 A 
ATOM     17  F   UNL     1       5.300   2.610  11.698  0.00  0.00    +0.000 F 
ATOM     18  C   UNL     1       5.937   3.493  13.800  0.00  0.00    +0.000 A 
ENDBRANCH  11  12
ENDBRANCH   8  11
ENDBRANCH   1   9
BRANCH   4  19
ATOM     19  C   UNL     1       2.626   7.585  19.023  0.00  0.00    +0.000 C 
BRANCH  19  20
ATOM     20  C   UNL     1       1.608   8.417  19.773  0.00  0.00    +0.000 A 
ATOM     21  C   UNL     1       1.229   8.071  21.080  0.00  0.00    +0.000 A 
ATOM     22  C   UNL     1       0.191   8.750  21.721  0.00  0.00    +0.000 A 
ATOM     23  C   UNL     1      -0.467   9.793  21.071  0.00  0.00    +0.000 A 
ATOM     24  C   UNL     1      -0.062  10.175  19.792  0.00  0.00    +0.000 A 
ATOM     25  I   UNL     1      -1.009  11.761  18.841  0.00  0.00    +0.000 I 
ATOM     26  C   UNL     1       0.969   9.493  19.142  0.00  0.00    +0.000 A 
ENDBRANCH  19  20
ENDBRANCH   4  19
TORSDOF 5
ENDMDL
MODEL 2
REMARK VINA RESULT:      -7.6      5.605     10.188
REMARK  Name = 
REMARK  5 active torsions:
REMARK  status: ('A' for Active; 'I' for Inactive)
REMARK    1  A    between atoms: C_2  and  C_3
REMARK    2  A    between atoms: C_3  and  C_4
REMARK    3  A    between atoms: N_11  and  C_12
REMARK    4  A    between atoms: N_15  and  C_16
REMARK    5  A    between atoms: C_16  and  C_17
REMARK                            x       y       z     vdW  Elec       q    Type
REMARK                         _______ _______ _______ _____ _____    ______ ____
ROOT
ATOM      1  C   UNL     1       0.485  10.162  18.594  0.00  0.00    +0.000 C 
ATOM      2  C   UNL     1       1.676   9.570  17.843  0.00  0.00    +0.000 C 
ATOM      3  C   UNL     1       2.110   8.179  18.301  0.00  0.00    +0.000 C 
ATOM      4  N   UNL     1       2.090   7.914  19.750  0.00  0.00    +0.000 NA
ATOM      5  C   UNL     1       0.935   8.502  20.450  0.00  0.00    +0.000 C 
ATOM      6  C   UNL     1       0.652   9.953  20.091  0.00  0.00    +0.000 C 
ENDROOT
BRANCH   1   9
ATOM      7  O   UNL     1      -2.068  11.767  18.599  0.00  0.00    +0.000 OA
ATOM      8  C   UNL     1      -2.001  10.654  18.102  0.00  0.00    +0.000 C 
ATOM      9  N   UNL     1      -0.866   9.869  18.081  0.00  0.00    +0.000 N 
ATOM     10  H   UNL     1      -0.934   9.020  17.537  0.00  0.00    +0.000 HD
BRANCH   8  11
ATOM     11  C   UNL     1      -3.235   9.972  17.505  0.00  0.00    +0.000 C 
BRANCH  11  12
ATOM     12  C   UNL     1      -4.569  10.692  17.593  0.00  0.00    +0.000 A 
ATOM     13  C   UNL     1      -5.524  10.239  18.528  0.00  0.00    +0.000 A 
ATOM     14  C   UNL     1      -6.703  10.954  18.773  0.00  0.00    +0.000 A 
ATOM     15  C   UNL     1      -6.946  12.141  18.090  0.00  0.00    +0.000 A 
ATOM     16  C   UNL     1      -6.014  12.593  17.165  0.00  0.00    +0.000 A 
ATOM     17  F   UNL     1      -6.242  13.750  16.526  0.00  0.00    +0.000 F 
ATOM     18  C   UNL     1      -4.834  11.886  16.910  0.00  0.00    +0.000 A 
ENDBRANCH  11  12
ENDBRANCH   8  11
ENDBRANCH   1   9
BRANCH   4  19
ATOM     19  C   UNL     1       2.041   6.447  19.971  0.00  0.00    +0.000 C 
BRANCH  19  20
ATOM     20  C   UNL     1       2.761   5.611  18.934  0.00  0.00    +0.000 A 
ATOM     21  C   UNL     1       2.063   4.654  18.180  0.00  0.00    +0.000 A 
ATOM     22  C   UNL     1       2.747   3.787  17.327  0.00  0.00    +0.000 A 
ATOM     23  C   UNL     1       4.133   3.878  17.203  0.00  0.00    +0.000 A 
ATOM     24  C   UNL     1       4.826   4.859  17.911  0.00  0.00    +0.000 A 
ATOM     25  I   UNL     1       6.886   5.027  17.691  0.00  0.00    +0.000 I 
ATOM     26  C   UNL     1       4.149   5.723  18.774  0.00  0.00    +0.000 A 
ENDBRANCH  19  20
ENDBRANCH   4  19
TORSDOF 5
ENDMDL
MODEL 3
REMARK VINA RESULT:      -7.5      1.442      1.990
REMARK  Name = 
REMARK  5 active torsions:
REMARK  status: ('A' for Active; 'I' for Inactive)
REMARK    1  A    between atoms: C_2  and  C_3
REMARK    2  A    between atoms: C_3  and  C_4
REMARK    3  A    between atoms: N_11  and  C_12
REMARK    4  A    between atoms: N_15  and  C_16
REMARK    5  A    between atoms: C_16  and  C_17
REMARK                            x       y       z     vdW  Elec       q    Type
REMARK                         _______ _______ _______ _____ _____    ______ ____
ROOT
ATOM      1  C   UNL     1       4.884   3.987  17.123  0.00  0.00    +0.000 C 
ATOM      2  C   UNL     1       3.366   3.945  17.292  0.00  0.00    +0.000 C 
ATOM      3  C   UNL     1       2.696   5.301  17.505  0.00  0.00    +0.000 C 
ATOM      4  N   UNL     1       3.396   6.265  18.372  0.00  0.00    +0.000 NA
ATOM      5  C   UNL     1       4.858   6.279  18.193  0.00  0.00    +0.000 C 
ATOM      6  C   UNL     1       5.503   4.902  18.167  0.00  0.00    +0.000 C 
ENDROOT
BRANCH   1   9
ATOM      7  O   UNL     1       7.694   4.341  16.088  0.00  0.00    +0.000 OA
ATOM      8  C   UNL     1       6.727   4.308  15.344  0.00  0.00    +0.000 C 
ATOM      9  N   UNL     1       5.419   4.162  15.760  0.00  0.00    +0.000 N 
ATOM     10  H   UNL     1       4.739   4.041  15.022  0.00  0.00    +0.000 HD
BRANCH   8  11
ATOM     11  C   UNL     1       6.876   4.513  13.834  0.00  0.00    +0.000 C 
BRANCH  11  12
ATOM     12  C   UNL     1       6.068   3.626  12.904  0.00  0.00    +0.000 A 
ATOM     13  C   UNL     1       4.809   4.081  12.457  0.00  0.00    +0.000 A 
ATOM     14  C   UNL     1       4.089   3.390  11.475  0.00  0.00    +0.000 A 
ATOM     15  C   UNL     1       4.619   2.232  10.915  0.00  0.00    +0.000 A 
ATOM     16  C   UNL     1       5.855   1.773  11.351  0.00  0.00    +0.000 A 
ATOM     17  F   UNL     1       6.373   0.669  10.793  0.00  0.00    +0.000 F 
ATOM     18  C   UNL     1       6.583   2.454  12.334  0.00  0.00    +0.000 A 
ENDBRANCH  11  12
ENDBRANCH   8  11
ENDBRANCH   1   9
BRANCH   4  19
ATOM     19  C   UNL     1       2.900   7.632  18.071  0.00  0.00    +0.000 C 
BRANCH  19  20
ATOM     20  C   UNL     1       2.010   8.245  19.130  0.00  0.00    +0.000 A 
ATOM     21  C   UNL     1       1.846   7.617  20.375  0.00  0.00    +0.000 A 
ATOM     22  C   UNL     1       0.920   8.102  21.300  0.00  0.00    +0.000 A 
ATOM     23  C   UNL     1       0.160   9.232  20.998  0.00  0.00    +0.000 A 
ATOM     24  C   UNL     1       0.353   9.890  19.785  0.00  0.00    +0.000 A 
ATOM     25  I   UNL     1      -0.744  11.602  19.354  0.00  0.00    +0.000 I 
ATOM     26  C   UNL     1       1.271   9.403  18.852  0.00  0.00    +0.000 A 
ENDBRANCH  19  20
ENDBRANCH   4  19
TORSDOF 5
ENDMDL
MODEL 4
REMARK VINA RESULT:      -7.4      2.937      3.976
REMARK  Name = 
REMARK  5 active torsions:
REMARK  status: ('A' for Active; 'I' for Inactive)
REMARK    1  A    between atoms: C_2  and  C_3
REMARK    2  A    between atoms: C_3  and  C_4
REMARK    3  A    between atoms: N_11  and  C_12
REMARK    4  A    between atoms: N_15  and  C_16
REMARK    5  A    between atoms: C_16  and  C_17
REMARK                            x       y       z     vdW  Elec       q    Type
REMARK                         _______ _______ _______ _____ _____    ______ ____
ROOT
ATOM      1  C   UNL     1       3.502   1.967  18.080  0.00  0.00    +0.000 C 
ATOM      2  C   UNL     1       2.103   2.558  17.912  0.00  0.00    +0.000 C 
ATOM      3  C   UNL     1       1.706   3.600  18.956  0.00  0.00    +0.000 C 
ATOM      4  N   UNL     1       2.114   3.343  20.347  0.00  0.00    +0.000 NA
ATOM      5  C   UNL     1       3.463   2.767  20.479  0.00  0.00    +0.000 C 
ATOM      6  C   UNL     1       3.749   1.609  19.536  0.00  0.00    +0.000 C 
ENDROOT
BRANCH   1   9
ATOM      7  O   UNL     1       3.592   4.299  16.169  0.00  0.00    +0.000 OA
ATOM      8  C   UNL     1       4.603   3.738  16.557  0.00  0.00    +0.000 C 
ATOM      9  N   UNL     1       4.624   2.660  17.420  0.00  0.00    +0.000 N 
ATOM     10  H   UNL     1       5.540   2.374  17.737  0.00  0.00    +0.000 HD
BRANCH   8  11
ATOM     11  C   UNL     1       5.987   4.143  16.042  0.00  0.00    +0.000 C 
BRANCH  11  12
ATOM     12  C   UNL     1       6.816   5.098  16.881  0.00  0.00    +0.000 A 
ATOM     13  C   UNL     1       6.835   6.466  16.533  0.00  0.00    +0.000 A 
ATOM     14  C   UNL     1       7.444   7.421  17.357  0.00  0.00    +0.000 A 
ATOM     15  C   UNL     1       8.041   7.026  18.549  0.00  0.00    +0.000 A 
ATOM     16  C   UNL     1       8.032   5.682  18.899  0.00  0.00    +0.000 A 
ATOM     17  F   UNL     1       8.589   5.309  20.060  0.00  0.00    +0.000 F 
ATOM     18  C   UNL     1       7.428   4.718  18.083  0.00  0.00    +0.000 A 
ENDBRANCH  11  12
ENDBRANCH   8  11
ENDBRANCH   1   9
BRANCH   4  19
ATOM     19  C   UNL     1       2.105   4.625  21.097  0.00  0.00    +0.000 C 
BRANCH  19  20
ATOM     20  C   UNL     1       2.102   5.874  20.243  0.00  0.00    +0.000 A 
ATOM     21  C   UNL     1       2.897   5.950  19.088  0.00  0.00    +0.000 A 
ATOM     22  C   UNL     1       3.005   7.147  18.378  0.00  0.00    +0.000 A 
ATOM     23  C   UNL     1       2.305   8.276  18.802  0.00  0.00    +0.000 A 
ATOM     24  C   UNL     1       1.474   8.194  19.919  0.00  0.00    +0.000 A 
ATOM     25  I   UNL     1       0.392   9.862  20.525  0.00  0.00    +0.000 I 
ATOM     26  C   UNL     1       1.370   7.002  20.640  0.00  0.00    +0.000 A 
ENDBRANCH  19  20
ENDBRANCH   4  19
TORSDOF 5
ENDMDL
MODEL 5
REMARK VINA RESULT:      -7.4      3.540      4.833
REMARK  Name = 
REMARK  5 active torsions:
REMARK  status: ('A' for Active; 'I' for Inactive)
REMARK    1  A    between atoms: C_2  and  C_3
REMARK    2  A    between atoms: C_3  and  C_4
REMARK    3  A    between atoms: N_11  and  C_12
REMARK    4  A    between atoms: N_15  and  C_16
REMARK    5  A    between atoms: C_16  and  C_17
REMARK                            x       y       z     vdW  Elec       q    Type
REMARK                         _______ _______ _______ _____ _____    ______ ____
ROOT
ATOM      1  C   UNL     1       7.541   5.934  16.792  0.00  0.00    +0.000 C 
ATOM      2  C   UNL     1       7.100   4.832  17.754  0.00  0.00    +0.000 C 
ATOM      3  C   UNL     1       5.593   4.739  17.990  0.00  0.00    +0.000 C 
ATOM      4  N   UNL     1       4.854   6.006  18.109  0.00  0.00    +0.000 NA
ATOM      5  C   UNL     1       5.305   7.053  17.176  0.00  0.00    +0.000 C 
ATOM      6  C   UNL     1       6.814   7.230  17.110  0.00  0.00    +0.000 C 
ENDROOT
BRANCH   1   9
ATOM      7  O   UNL     1       5.874   4.118  15.054  0.00  0.00    +0.000 OA
ATOM      8  C   UNL     1       6.806   4.769  14.608  0.00  0.00    +0.000 C 
ATOM      9  N   UNL     1       7.610   5.605  15.356  0.00  0.00    +0.000 N 
ATOM     10  H   UNL     1       8.269   6.161  14.829  0.00  0.00    +0.000 HD
BRANCH   8  11
ATOM     11  C   UNL     1       7.230   4.652  13.142  0.00  0.00    +0.000 C 
BRANCH  11  12
ATOM     12  C   UNL     1       6.488   3.669  12.254  0.00  0.00    +0.000 A 
ATOM     13  C   UNL     1       7.162   2.509  11.816  0.00  0.00    +0.000 A 
ATOM     14  C   UNL     1       6.490   1.487  11.134  0.00  0.00    +0.000 A 
ATOM     15  C   UNL     1       5.127   1.603  10.883  0.00  0.00    +0.000 A 
ATOM     16  C   UNL     1       4.456   2.743  11.306  0.00  0.00    +0.000 A 
ATOM     17  F   UNL     1       3.137   2.841  11.082  0.00  0.00    +0.000 F 
ATOM     18  C   UNL     1       5.117   3.771  11.986  0.00  0.00    +0.000 A 
ENDBRANCH  11  12
ENDBRANCH   8  11
ENDBRANCH   1   9
BRANCH   4  19
ATOM     19  C   UNL     1       3.417   5.755  17.831  0.00  0.00    +0.000 C 
BRANCH  19  20
ATOM     20  C   UNL     1       2.902   4.399  18.264  0.00  0.00    +0.000 A 
ATOM     21  C   UNL     1       2.628   3.404  17.312  0.00  0.00    +0.000 A 
ATOM     22  C   UNL     1       2.021   2.206  17.692  0.00  0.00    +0.000 A 
ATOM     23  C   UNL     1       1.698   1.981  19.030  0.00  0.00    +0.000 A 
ATOM     24  C   UNL     1       2.013   2.944  19.987  0.00  0.00    +0.000 A 
ATOM     25  I   UNL     1       1.576   2.591  21.988  0.00  0.00    +0.000 I 
ATOM     26  C   UNL     1       2.611   4.149  19.612  0.00  0.00    +0.000 A 
ENDBRANCH  19  20
ENDBRANCH   4  19
TORSDOF 5
ENDMDL
MODEL 6
REMARK VINA RESULT:      -7.4      4.802      6.813
REMARK  Name = 
REMARK  5 active torsions:
REMARK  status: ('A' for Active; 'I' for Inactive)
REMARK    1  A    between atoms: C_2  and  C_3
REMARK    2  A    between atoms: C_3  and  C_4
REMARK    3  A    between atoms: N_11  and  C_12
REMARK    4  A    between atoms: N_15  and  C_16
REMARK    5  A    between atoms: C_16  and  C_17
REMARK                            x       y       z     vdW  Elec       q    Type
REMARK                         _______ _______ _______ _____ _____    ______ ____
ROOT
ATOM      1  C   UNL     1       0.964   9.873  18.272  0.00  0.00    +0.000 C 
ATOM      2  C   UNL     1       1.636  11.237  18.416  0.00  0.00    +0.000 C 
ATOM      3  C   UNL     1       1.305  11.995  19.701  0.00  0.00    +0.000 C 
ATOM      4  N   UNL     1      -0.087  11.929  20.177  0.00  0.00    +0.000 NA
ATOM      5  C   UNL     1      -0.712  10.605  20.019  0.00  0.00    +0.000 C 
ATOM      6  C   UNL     1      -0.504   9.968  18.654  0.00  0.00    +0.000 C 
ENDROOT
BRANCH   1   9
ATOM      7  O   UNL     1       3.029   8.018  17.092  0.00  0.00    +0.000 OA
ATOM      8  C   UNL     1       2.618   7.891  18.234  0.00  0.00    +0.000 C 
ATOM      9  N   UNL     1       1.666   8.700  18.823  0.00  0.00    +0.000 N 
ATOM     10  H   UNL     1       1.510   8.540  19.808  0.00  0.00    +0.000 HD
BRANCH   8  11
ATOM     11  C   UNL     1       3.080   6.732  19.122  0.00  0.00    +0.000 C 
BRANCH  11  12
ATOM     12  C   UNL     1       2.231   5.475  19.165  0.00  0.00    +0.000 A 
ATOM     13  C   UNL     1       1.953   4.802  17.956  0.00  0.00    +0.000 A 
ATOM     14  C   UNL     1       1.318   3.554  17.944  0.00  0.00    +0.000 A 
ATOM     15  C   UNL     1       0.953   2.952  19.143  0.00  0.00    +0.000 A 
ATOM     16  C   UNL     1       1.218   3.608  20.338  0.00  0.00    +0.000 A 
ATOM     17  F   UNL     1       0.885   3.013  21.494  0.00  0.00    +0.000 F 
ATOM     18  C   UNL     1       1.850   4.856  20.363  0.00  0.00    +0.000 A 
ENDBRANCH  11  12
ENDBRANCH   8  11
ENDBRANCH   1   9
BRANCH   4  19
ATOM     19  C   UNL     1      -0.118  12.264  21.623  0.00  0.00    +0.000 C 
BRANCH  19  20
ATOM     20  C   UNL     1      -1.468  12.690  22.160  0.00  0.00    +0.000 A 
ATOM     21  C   UNL     1      -2.076  11.978  23.206  0.00  0.00    +0.000 A 
ATOM     22  C   UNL     1      -3.378  12.280  23.608  0.00  0.00    +0.000 A 
ATOM     23  C   UNL     1      -4.080  13.309  22.982  0.00  0.00    +0.000 A 
ATOM     24  C   UNL     1      -3.464  14.054  21.977  0.00  0.00    +0.000 A 
ATOM     25  I   UNL     1      -4.492  15.619  21.076  0.00  0.00    +0.000 I 
ATOM     26  C   UNL     1      -2.165  13.749  21.564  0.00  0.00    +0.000 A 
ENDBRANCH  19  20
ENDBRANCH   4  19
TORSDOF 5
ENDMDL
MODEL 7
REMARK VINA RESULT:      -7.4      0.963      1.619
REMARK  Name = 
REMARK  5 active torsions:
REMARK  status: ('A' for Active; 'I' for Inactive)
REMARK    1  A    between atoms: C_2  and  C_3
REMARK    2  A    between atoms: C_3  and  C_4
REMARK    3  A    between atoms: N_11  and  C_12
REMARK    4  A    between atoms: N_15  and  C_16
REMARK    5  A    between atoms: C_16  and  C_17
REMARK                            x       y       z     vdW  Elec       q    Type
REMARK                         _______ _______ _______ _____ _____    ______ ____
ROOT
ATOM      1  C   UNL     1       3.595   2.926  17.580  0.00  0.00    +0.000 C 
ATOM      2  C   UNL     1       2.408   3.841  17.284  0.00  0.00    +0.000 C 
ATOM      3  C   UNL     1       2.241   5.020  18.242  0.00  0.00    +0.000 C 
ATOM      4  N   UNL     1       2.493   4.764  19.670  0.00  0.00    +0.000 NA
ATOM      5  C   UNL     1       3.637   3.872  19.925  0.00  0.00    +0.000 C 
ATOM      6  C   UNL     1       3.662   2.617  19.066  0.00  0.00    +0.000 C 
ENDROOT
BRANCH   1   9
ATOM      7  O   UNL     1       5.160   5.500  17.443  0.00  0.00    +0.000 OA
ATOM      8  C   UNL     1       5.568   4.464  16.944  0.00  0.00    +0.000 C 
ATOM      9  N   UNL     1       4.891   3.260  16.963  0.00  0.00    +0.000 N 
ATOM     10  H   UNL     1       5.405   2.467  16.606  0.00  0.00    +0.000 HD
BRANCH   8  11
ATOM     11  C   UNL     1       6.879   4.423  16.154  0.00  0.00    +0.000 C 
BRANCH  11  12
ATOM     12  C   UNL     1       6.807   4.438  14.638  0.00  0.00    +0.000 A 
ATOM     13  C   UNL     1       7.686   5.282  13.925  0.00  0.00    +0.000 A 
ATOM     14  C   UNL     1       7.784   5.224  12.530  0.00  0.00    +0.000 A 
ATOM     15  C   UNL     1       7.008   4.315  11.819  0.00  0.00    +0.000 A 
ATOM     16  C   UNL     1       6.137   3.483  12.510  0.00  0.00    +0.000 A 
ATOM     17  F   UNL     1       5.407   2.592  11.823  0.00  0.00    +0.000 F 
ATOM     18  C   UNL     1       6.028   3.533  13.904  0.00  0.00    +0.000 A 
ENDBRANCH  11  12
ENDBRANCH   8  11
ENDBRANCH   1   9
BRANCH   4  19
ATOM     19  C   UNL     1       2.778   6.054  20.348  0.00  0.00    +0.000 C 
BRANCH  19  20
ATOM     20  C   UNL     1       2.203   7.281  19.673  0.00  0.00    +0.000 A 
ATOM     21  C   UNL     1       2.526   7.578  18.340  0.00  0.00    +0.000 A 
ATOM     22  C   UNL     1       2.114   8.778  17.759  0.00  0.00    +0.000 A 
ATOM     23  C   UNL     1       1.358   9.688  18.499  0.00  0.00    +0.000 A 
ATOM     24  C   UNL     1       0.991   9.376  19.808  0.00  0.00    +0.000 A 
ATOM     25  I   UNL     1      -0.175  10.709  20.896  0.00  0.00    +0.000 I 
ATOM     26  C   UNL     1       1.410   8.182  20.397  0.00  0.00    +0.000 A 
ENDBRANCH  19  20
ENDBRANCH   4  19
TORSDOF 5
ENDMDL
MODEL 8
REMARK VINA RESULT:      -7.4      5.811      7.961
REMARK  Name = 
REMARK  5 active torsions:
REMARK  status: ('A' for Active; 'I' for Inactive)
REMARK    1  A    between atoms: C_2  and  C_3
REMARK    2  A    between atoms: C_3  and  C_4
REMARK    3  A    between atoms: N_11  and  C_12
REMARK    4  A    between atoms: N_15  and  C_16
REMARK    5  A    between atoms: C_16  and  C_17
REMARK                            x       y       z     vdW  Elec       q    Type
REMARK                         _______ _______ _______ _____ _____    ______ ____
ROOT
ATOM      1  C   UNL     1       7.010   5.344  18.171  0.00  0.00    +0.000 C 
ATOM      2  C   UNL     1       8.066   5.890  19.130  0.00  0.00    +0.000 C 
ATOM      3  C   UNL     1       8.255   7.406  19.097  0.00  0.00    +0.000 C 
ATOM      4  N   UNL     1       8.211   8.057  17.777  0.00  0.00    +0.000 NA
ATOM      5  C   UNL     1       7.190   7.506  16.870  0.00  0.00    +0.000 C 
ATOM      6  C   UNL     1       7.162   5.987  16.802  0.00  0.00    +0.000 C 
ENDROOT
BRANCH   1   9
ATOM      7  O   UNL     1       4.576   3.936  17.079  0.00  0.00    +0.000 OA
ATOM      8  C   UNL     1       4.544   4.581  18.115  0.00  0.00    +0.000 C 
ATOM      9  N   UNL     1       5.620   5.255  18.656  0.00  0.00    +0.000 N 
ATOM     10  H   UNL     1       5.469   5.651  19.574  0.00  0.00    +0.000 HD
BRANCH   8  11
ATOM     11  C   UNL     1       3.240   4.770  18.895  0.00  0.00    +0.000 C 
BRANCH  11  12
ATOM     12  C   UNL     1       2.744   6.184  19.135  0.00  0.00    +0.000 A 
ATOM     13  C   UNL     1       2.691   7.079  18.045  0.00  0.00    +0.000 A 
ATOM     14  C   UNL     1       2.093   8.340  18.162  0.00  0.00    +0.000 A 
ATOM     15  C   UNL     1       1.530   8.727  19.373  0.00  0.00    +0.000 A 
ATOM     16  C   UNL     1       1.580   7.857  20.453  0.00  0.00    +0.000 A 
ATOM     17  F   UNL     1       1.015   8.226  21.613  0.00  0.00    +0.000 F 
ATOM     18  C   UNL     1       2.177   6.595  20.348  0.00  0.00    +0.000 A 
ENDBRANCH  11  12
ENDBRANCH   8  11
ENDBRANCH   1   9
BRANCH   4  19
ATOM     19  C   UNL     1       7.908   9.499  17.960  0.00  0.00    +0.000 C 
BRANCH  19  20
ATOM     20  C   UNL     1       9.028  10.326  18.553  0.00  0.00    +0.000 A 
ATOM     21  C   UNL     1       9.249  10.337  19.940  0.00  0.00    +0.000 A 
ATOM     22  C   UNL     1      10.187  11.204  20.503  0.00  0.00    +0.000 A 
ATOM     23  C   UNL     1      10.928  12.057  19.686  0.00  0.00    +0.000 A 
ATOM     24  C   UNL     1      10.749  12.016  18.303  0.00  0.00    +0.000 A 
ATOM     25  I   UNL     1      11.887  13.252  17.080  0.00  0.00    +0.000 I 
ATOM     26  C   UNL     1       9.806  11.158  17.735  0.00  0.00    +0.000 A 
ENDBRANCH  19  20
ENDBRANCH   4  19
TORSDOF 5
ENDMDL
MODEL 9
REMARK VINA RESULT:      -7.4      1.718      2.685
REMARK  Name = 
REMARK  5 active torsions:
REMARK  status: ('A' for Active; 'I' for Inactive)
REMARK    1  A    between atoms: C_2  and  C_3
REMARK    2  A    between atoms: C_3  and  C_4
REMARK    3  A    between atoms: N_11  and  C_12
REMARK    4  A    between atoms: N_15  and  C_16
REMARK    5  A    between atoms: C_16  and  C_17
REMARK                            x       y       z     vdW  Elec       q    Type
REMARK                         _______ _______ _______ _____ _____    ______ ____
ROOT
ATOM      1  C   UNL     1       7.154   4.935  17.299  0.00  0.00    +0.000 C 
ATOM      2  C   UNL     1       6.021   4.185  17.997  0.00  0.00    +0.000 C 
ATOM      3  C   UNL     1       4.669   4.898  17.994  0.00  0.00    +0.000 C 
ATOM      4  N   UNL     1       4.681   6.355  18.208  0.00  0.00    +0.000 NA
ATOM      5  C   UNL     1       5.789   7.051  17.532  0.00  0.00    +0.000 C 
ATOM      6  C   UNL     1       7.149   6.397  17.714  0.00  0.00    +0.000 C 
ENDROOT
BRANCH   1   9
ATOM      7  O   UNL     1       5.535   5.772  14.897  0.00  0.00    +0.000 OA
ATOM      8  C   UNL     1       6.567   5.129  14.793  0.00  0.00    +0.000 C 
ATOM      9  N   UNL     1       7.343   4.707  15.855  0.00  0.00    +0.000 N 
ATOM     10  H   UNL     1       8.225   4.282  15.607  0.00  0.00    +0.000 HD
BRANCH   8  11
ATOM     11  C   UNL     1       7.072   4.648  13.430  0.00  0.00    +0.000 C 
BRANCH  11  12
ATOM     12  C   UNL     1       6.222   3.657  12.656  0.00  0.00    +0.000 A 
ATOM     13  C   UNL     1       4.904   4.022  12.305  0.00  0.00    +0.000 A 
ATOM     14  C   UNL     1       4.127   3.225  11.455  0.00  0.00    +0.000 A 
ATOM     15  C   UNL     1       4.656   2.049  10.935  0.00  0.00    +0.000 A 
ATOM     16  C   UNL     1       5.950   1.678  11.278  0.00  0.00    +0.000 A 
ATOM     17  F   UNL     1       6.464   0.555  10.755  0.00  0.00    +0.000 F 
ATOM     18  C   UNL     1       6.735   2.465  12.128  0.00  0.00    +0.000 A 
ENDBRANCH  11  12
ENDBRANCH   8  11
ENDBRANCH   1   9
BRANCH   4  19
ATOM     19  C   UNL     1       3.414   6.929  17.688  0.00  0.00    +0.000 C 
BRANCH  19  20
ATOM     20  C   UNL     1       2.562   7.650  18.710  0.00  0.00    +0.000 A 
ATOM     21  C   UNL     1       2.299   7.065  19.959  0.00  0.00    +0.000 A 
ATOM     22  C   UNL     1       1.401   7.660  20.847  0.00  0.00    +0.000 A 
ATOM     23  C   UNL     1       0.772   8.857  20.506  0.00  0.00    +0.000 A 
ATOM     24  C   UNL     1       1.068   9.470  19.289  0.00  0.00    +0.000 A 
ATOM     25  I   UNL     1       0.167  11.277  18.799  0.00  0.00    +0.000 I 
ATOM     26  C   UNL     1       1.956   8.873  18.392  0.00  0.00    +0.000 A 
ENDBRANCH  19  20
ENDBRANCH   4  19
TORSDOF 5
ENDMDL
