MODEL 1
REMARK VINA RESULT:      -7.3      0.000      0.000
REMARK  Name = 
REMARK  6 active torsions:
REMARK  status: ('A' for Active; 'I' for Inactive)
REMARK    1  A    between atoms: S_2  and  N_4
REMARK    2  A    between atoms: S_2  and  C_11
REMARK    3  A    between atoms: N_4  and  C_5
REMARK    4  A    between atoms: C_5  and  C_6
REMARK    5  A    between atoms: C_15  and  S_16
REMARK    6  A    between atoms: S_16  and  N_19
REMARK                            x       y       z     vdW  Elec       q    Type
REMARK                         _______ _______ _______ _____ _____    ______ ____
ROOT
ATOM      1  C   UNL     1       1.355   8.674  20.097  0.00  0.00    +0.000 A 
ATOM      2  C   UNL     1       1.454   9.487  18.964  0.00  0.00    +0.000 A 
ATOM      3  C   UNL     1       2.105   9.003  17.825  0.00  0.00    +0.000 A 
ATOM      4  C   UNL     1       2.624   7.703  17.806  0.00  0.00    +0.000 A 
ATOM      5  C   UNL     1       2.484   6.885  18.933  0.00  0.00    +0.000 A 
ATOM      6  C   UNL     1       1.879   7.380  20.094  0.00  0.00    +0.000 A 
ENDROOT
BRANCH   1   8
ATOM      7  O   UNL     1       1.335   9.590  22.527  0.00  0.00    +0.000 OA
ATOM      8  S   UNL     1       0.390   9.207  21.503  0.00  0.00    +0.000 S 
ATOM      9  O   UNL     1      -0.619   8.199  21.742  0.00  0.00    +0.000 OA
BRANCH   8  10
ATOM     10  N   UNL     1      -0.360  10.616  20.953  0.00  0.00    +0.000 NA
ATOM     11  H   UNL     1      -1.378  10.526  20.905  0.00  0.00    +0.000 HD
BRANCH  10  12
ATOM     12  C   UNL     1       0.075  11.846  21.623  0.00  0.00    +0.000 C 
BRANCH  12  13
ATOM     13  C   UNL     1      -1.036  12.358  22.485  0.00  0.00    +0.000 A 
ATOM     14  C   UNL     1      -2.101  11.653  23.022  0.00  0.00    +0.000 A 
ATOM     15  C   UNL     1      -3.021  12.498  23.707  0.00  0.00    +0.000 A 
ATOM     16  C   UNL     1      -2.619  13.815  23.695  0.00  0.00    +0.000 A 
ATOM     17  S   UNL     1      -1.133  14.024  22.875  0.00  0.00    +0.000 S 
ENDBRANCH  12  13
ENDBRANCH  10  12
ENDBRANCH   8  10
ENDBRANCH   1   8
BRANCH   5  18
ATOM     18  S   UNL     1       3.120   5.214  18.925  0.00  0.00    +0.000 S 
ATOM     19  O   UNL     1       3.256   4.805  20.308  0.00  0.00    +0.000 OA
ATOM     20  O   UNL     1       2.300   4.461  18.001  0.00  0.00    +0.000 OA
BRANCH  18  21
ATOM     21  N   UNL     1       4.691   5.378  18.252  0.00  0.00    +0.000 NA
ATOM     22  C   UNL     1       5.815   5.248  19.219  0.00  0.00    +0.000 C 
ATOM     23  C   UNL     1       7.156   5.583  18.573  0.00  0.00    +0.000 C 
ATOM     24  C   UNL     1       7.376   4.767  17.308  0.00  0.00    +0.000 C 
ATOM     25  C   UNL     1       6.240   5.036  16.333  0.00  0.00    +0.000 C 
ATOM     26  C   UNL     1       4.891   4.689  16.952  0.00  0.00    +0.000 C 
ENDBRANCH  18  21
ENDBRANCH   5  18
TORSDOF 6
ENDMDL
MODEL 2
REMARK VINA RESULT:      -7.2      2.348      3.185
REMARK  Name = 
REMARK  6 active torsions:
REMARK  status: ('A' for Active; 'I' for Inactive)
REMARK    1  A    between atoms: S_2  and  N_4
REMARK    2  A    between atoms: S_2  and  C_11
REMARK    3  A    between atoms: N_4  and  C_5
REMARK    4  A    between atoms: C_5  and  C_6
REMARK    5  A    between atoms: C_15  and  S_16
REMARK    6  A    between atoms: S_16  and  N_19
REMARK                            x       y       z     vdW  Elec       q    Type
REMARK                         _______ _______ _______ _____ _____    ______ ____
ROOT
ATOM      1  C   UNL     1       1.208   8.897  20.194  0.00  0.00    +0.000 A 
ATOM      2  C   UNL     1       1.076   9.771  19.112  0.00  0.00    +0.000 A 
ATOM      3  C   UNL     1       1.697   9.462  17.898  0.00  0.00    +0.000 A 
ATOM      4  C   UNL     1       2.417   8.270  17.756  0.00  0.00    +0.000 A 
ATOM      5  C   UNL     1       2.509   7.383  18.835  0.00  0.00    +0.000 A 
ATOM      6  C   UNL     1       1.933   7.710  20.069  0.00  0.00    +0.000 A 
ENDROOT
BRANCH   1   8
ATOM      7  O   UNL     1       1.272   9.461  22.729  0.00  0.00    +0.000 OA
ATOM      8  S   UNL     1       0.292   9.189  21.701  0.00  0.00    +0.000 S 
ATOM      9  O   UNL     1      -0.670   8.118  21.837  0.00  0.00    +0.000 OA
BRANCH   8  10
ATOM     10  N   UNL     1      -0.529  10.630  21.388  0.00  0.00    +0.000 NA
ATOM     11  H   UNL     1      -1.172  10.552  20.596  0.00  0.00    +0.000 HD
BRANCH  10  12
ATOM     12  C   UNL     1      -1.142  11.256  22.564  0.00  0.00    +0.000 C 
BRANCH  12  13
ATOM     13  C   UNL     1      -0.807  12.715  22.578  0.00  0.00    +0.000 A 
ATOM     14  C   UNL     1      -1.296  13.700  23.420  0.00  0.00    +0.000 A 
ATOM     15  C   UNL     1      -0.827  14.999  23.066  0.00  0.00    +0.000 A 
ATOM     16  C   UNL     1       0.025  14.962  21.984  0.00  0.00    +0.000 A 
ATOM     17  S   UNL     1       0.266  13.368  21.412  0.00  0.00    +0.000 S 
ENDBRANCH  12  13
ENDBRANCH  10  12
ENDBRANCH   8  10
ENDBRANCH   1   8
BRANCH   5  18
ATOM     18  S   UNL     1       3.405   5.844  18.672  0.00  0.00    +0.000 S 
ATOM     19  O   UNL     1       3.648   5.643  17.258  0.00  0.00    +0.000 OA
ATOM     20  O   UNL     1       4.498   5.897  19.618  0.00  0.00    +0.000 OA
BRANCH  18  21
ATOM     21  N   UNL     1       2.281   4.659  19.202  0.00  0.00    +0.000 NA
ATOM     22  C   UNL     1       1.902   3.641  18.186  0.00  0.00    +0.000 C 
ATOM     23  C   UNL     1       0.774   2.741  18.681  0.00  0.00    +0.000 C 
ATOM     24  C   UNL     1       1.115   2.123  20.028  0.00  0.00    +0.000 C 
ATOM     25  C   UNL     1       1.386   3.231  21.035  0.00  0.00    +0.000 C 
ATOM     26  C   UNL     1       2.526   4.131  20.568  0.00  0.00    +0.000 C 
ENDBRANCH  18  21
ENDBRANCH   5  18
TORSDOF 6
ENDMDL
MODEL 3
REMARK VINA RESULT:      -7.2      0.973      1.013
REMARK  Name = 
REMARK  6 active torsions:
REMARK  status: ('A' for Active; 'I' for Inactive)
REMARK    1  A    between atoms: S_2  and  N_4
REMARK    2  A    between atoms: S_2  and  C_11
REMARK    3  A    between atoms: N_4  and  C_5
REMARK    4  A    between atoms: C_5  and  C_6
REMARK    5  A    between atoms: C_15  and  S_16
REMARK    6  A    between atoms: S_16  and  N_19
REMARK                            x       y       z     vdW  Elec       q    Type
REMARK                         _______ _______ _______ _____ _____    ______ ____
ROOT
ATOM      1  C   UNL     1       1.390   8.729  20.142  0.00  0.00    +0.000 A 
ATOM      2  C   UNL     1       1.429   9.531  18.998  0.00  0.00    +0.000 A 
ATOM      3  C   UNL     1       2.030   9.041  17.835  0.00  0.00    +0.000 A 
ATOM      4  C   UNL     1       2.559   7.746  17.804  0.00  0.00    +0.000 A 
ATOM      5  C   UNL     1       2.479   6.938  18.944  0.00  0.00    +0.000 A 
ATOM      6  C   UNL     1       1.924   7.439  20.128  0.00  0.00    +0.000 A 
ENDROOT
BRANCH   1   8
ATOM      7  O   UNL     1       1.464   9.456  22.634  0.00  0.00    +0.000 OA
ATOM      8  S   UNL     1       0.486   9.268  21.586  0.00  0.00    +0.000 S 
ATOM      9  O   UNL     1      -0.639   8.375  21.752  0.00  0.00    +0.000 OA
BRANCH   8  10
ATOM     10  N   UNL     1      -0.084  10.794  21.145  0.00  0.00    +0.000 NA
ATOM     11  H   UNL     1      -0.792  10.751  20.408  0.00  0.00    +0.000 HD
BRANCH  10  12
ATOM     12  C   UNL     1      -0.479  11.652  22.268  0.00  0.00    +0.000 C 
BRANCH  12  13
ATOM     13  C   UNL     1      -1.870  12.155  22.039  0.00  0.00    +0.000 A 
ATOM     14  C   UNL     1      -2.893  12.300  22.962  0.00  0.00    +0.000 A 
ATOM     15  C   UNL     1      -4.116  12.712  22.357  0.00  0.00    +0.000 A 
ATOM     16  C   UNL     1      -3.982  12.894  20.998  0.00  0.00    +0.000 A 
ATOM     17  S   UNL     1      -2.388  12.585  20.464  0.00  0.00    +0.000 S 
ENDBRANCH  12  13
ENDBRANCH  10  12
ENDBRANCH   8  10
ENDBRANCH   1   8
BRANCH   5  18
ATOM     18  S   UNL     1       3.128   5.272  18.923  0.00  0.00    +0.000 S 
ATOM     19  O   UNL     1       3.246   4.844  20.302  0.00  0.00    +0.000 OA
ATOM     20  O   UNL     1       2.329   4.526  17.975  0.00  0.00    +0.000 OA
BRANCH  18  21
ATOM     21  N   UNL     1       4.709   5.457  18.277  0.00  0.00    +0.000 NA
ATOM     22  C   UNL     1       5.821   5.192  19.230  0.00  0.00    +0.000 C 
ATOM     23  C   UNL     1       7.176   5.552  18.629  0.00  0.00    +0.000 C 
ATOM     24  C   UNL     1       7.381   4.868  17.286  0.00  0.00    +0.000 C 
ATOM     25  C   UNL     1       6.261   5.273  16.340  0.00  0.00    +0.000 C 
ATOM     26  C   UNL     1       4.897   4.903  16.913  0.00  0.00    +0.000 C 
ENDBRANCH  18  21
ENDBRANCH   5  18
TORSDOF 6
ENDMDL
MODEL 4
REMARK VINA RESULT:      -7.0      2.362      3.139
REMARK  Name = 
REMARK  6 active torsions:
REMARK  status: ('A' for Active; 'I' for Inactive)
REMARK    1  A    between atoms: S_2  and  N_4
REMARK    2  A    between atoms: S_2  and  C_11
REMARK    3  A    between atoms: N_4  and  C_5
REMARK    4  A    between atoms: C_5  and  C_6
REMARK    5  A    between atoms: C_15  and  S_16
REMARK    6  A    between atoms: S_16  and  N_19
REMARK                            x       y       z     vdW  Elec       q    Type
REMARK                         _______ _______ _______ _____ _____    ______ ____
ROOT
ATOM      1  C   UNL     1       1.172   8.909  20.313  0.00  0.00    +0.000 A 
ATOM      2  C   UNL     1       0.942   9.769  19.235  0.00  0.00    +0.000 A 
ATOM      3  C   UNL     1       1.488   9.466  17.984  0.00  0.00    +0.000 A 
ATOM      4  C   UNL     1       2.231   8.294  17.803  0.00  0.00    +0.000 A 
ATOM      5  C   UNL     1       2.422   7.421  18.880  0.00  0.00    +0.000 A 
ATOM      6  C   UNL     1       1.922   7.743  20.147  0.00  0.00    +0.000 A 
ENDROOT
BRANCH   1   8
ATOM      7  O   UNL     1       1.397   9.328  22.866  0.00  0.00    +0.000 OA
ATOM      8  S   UNL     1       0.353   9.189  21.876  0.00  0.00    +0.000 S 
ATOM      9  O   UNL     1      -0.685   8.191  22.006  0.00  0.00    +0.000 OA
BRANCH   8  10
ATOM     10  N   UNL     1      -0.363  10.704  21.678  0.00  0.00    +0.000 NA
ATOM     11  H   UNL     1      -0.823  10.806  20.770  0.00  0.00    +0.000 HD
BRANCH  10  12
ATOM     12  C   UNL     1      -1.206  11.138  22.798  0.00  0.00    +0.000 C 
BRANCH  12  13
ATOM     13  C   UNL     1      -2.053  12.291  22.361  0.00  0.00    +0.000 A 
ATOM     14  C   UNL     1      -2.722  13.213  23.150  0.00  0.00    +0.000 A 
ATOM     15  C   UNL     1      -3.517  14.110  22.380  0.00  0.00    +0.000 A 
ATOM     16  C   UNL     1      -3.410  13.865  21.029  0.00  0.00    +0.000 A 
ATOM     17  S   UNL     1      -2.345  12.569  20.696  0.00  0.00    +0.000 S 
ENDBRANCH  12  13
ENDBRANCH  10  12
ENDBRANCH   8  10
ENDBRANCH   1   8
BRANCH   5  18
ATOM     18  S   UNL     1       3.350   5.907  18.668  0.00  0.00    +0.000 S 
ATOM     19  O   UNL     1       3.570   5.740  17.246  0.00  0.00    +0.000 OA
ATOM     20  O   UNL     1       4.460   5.965  19.594  0.00  0.00    +0.000 OA
BRANCH  18  21
ATOM     21  N   UNL     1       2.264   4.685  19.195  0.00  0.00    +0.000 NA
ATOM     22  C   UNL     1       1.964   3.625  18.194  0.00  0.00    +0.000 C 
ATOM     23  C   UNL     1       0.862   2.688  18.678  0.00  0.00    +0.000 C 
ATOM     24  C   UNL     1       1.187   2.120  20.051  0.00  0.00    +0.000 C 
ATOM     25  C   UNL     1       1.376   3.264  21.036  0.00  0.00    +0.000 C 
ATOM     26  C   UNL     1       2.488   4.203  20.581  0.00  0.00    +0.000 C 
ENDBRANCH  18  21
ENDBRANCH   5  18
TORSDOF 6
ENDMDL
MODEL 5
REMARK VINA RESULT:      -7.0      2.258      2.990
REMARK  Name = 
REMARK  6 active torsions:
REMARK  status: ('A' for Active; 'I' for Inactive)
REMARK    1  A    between atoms: S_2  and  N_4
REMARK    2  A    between atoms: S_2  and  C_11
REMARK    3  A    between atoms: N_4  and  C_5
REMARK    4  A    between atoms: C_5  and  C_6
REMARK    5  A    between atoms: C_15  and  S_16
REMARK    6  A    between atoms: S_16  and  N_19
REMARK                            x       y       z     vdW  Elec       q    Type
REMARK                         _______ _______ _______ _____ _____    ______ ____
ROOT
ATOM      1  C   UNL     1       1.327   8.997  20.233  0.00  0.00    +0.000 A 
ATOM      2  C   UNL     1       1.022   9.776  19.114  0.00  0.00    +0.000 A 
ATOM      3  C   UNL     1       1.483   9.381  17.854  0.00  0.00    +0.000 A 
ATOM      4  C   UNL     1       2.215   8.198  17.709  0.00  0.00    +0.000 A 
ATOM      5  C   UNL     1       2.480   7.405  18.831  0.00  0.00    +0.000 A 
ATOM      6  C   UNL     1       2.067   7.819  20.103  0.00  0.00    +0.000 A 
ENDROOT
BRANCH   1   8
ATOM      7  O   UNL     1       1.667   9.212  22.799  0.00  0.00    +0.000 OA
ATOM      8  S   UNL     1       0.615   9.392  21.824  0.00  0.00    +0.000 S 
ATOM      9  O   UNL     1      -0.640   8.681  21.925  0.00  0.00    +0.000 OA
BRANCH   8  10
ATOM     10  N   UNL     1       0.303  11.046  21.714  0.00  0.00    +0.000 NA
ATOM     11  H   UNL     1       0.990  11.539  21.138  0.00  0.00    +0.000 HD
BRANCH  10  12
ATOM     12  C   UNL     1      -1.082  11.389  21.371  0.00  0.00    +0.000 C 
BRANCH  12  13
ATOM     13  C   UNL     1      -1.631  12.320  22.407  0.00  0.00    +0.000 A 
ATOM     14  C   UNL     1      -2.767  12.165  23.184  0.00  0.00    +0.000 A 
ATOM     15  C   UNL     1      -3.034  13.310  23.989  0.00  0.00    +0.000 A 
ATOM     16  C   UNL     1      -2.081  14.290  23.823  0.00  0.00    +0.000 A 
ATOM     17  S   UNL     1      -0.867  13.822  22.713  0.00  0.00    +0.000 S 
ENDBRANCH  12  13
ENDBRANCH  10  12
ENDBRANCH   8  10
ENDBRANCH   1   8
BRANCH   5  18
ATOM     18  S   UNL     1       3.395   5.877  18.667  0.00  0.00    +0.000 S 
ATOM     19  O   UNL     1       3.643   5.680  17.254  0.00  0.00    +0.000 OA
ATOM     20  O   UNL     1       4.487   5.942  19.615  0.00  0.00    +0.000 OA
BRANCH  18  21
ATOM     21  N   UNL     1       2.285   4.678  19.194  0.00  0.00    +0.000 NA
ATOM     22  C   UNL     1       2.028   3.578  18.225  0.00  0.00    +0.000 C 
ATOM     23  C   UNL     1       0.903   2.661  18.697  0.00  0.00    +0.000 C 
ATOM     24  C   UNL     1       1.167   2.149  20.105  0.00  0.00    +0.000 C 
ATOM     25  C   UNL     1       1.315   3.331  21.050  0.00  0.00    +0.000 C 
ATOM     26  C   UNL     1       2.448   4.251  20.607  0.00  0.00    +0.000 C 
ENDBRANCH  18  21
ENDBRANCH   5  18
TORSDOF 6
ENDMDL
MODEL 6
REMARK VINA RESULT:      -7.0      1.285      1.847
REMARK  Name = 
REMARK  6 active torsions:
REMARK  status: ('A' for Active; 'I' for Inactive)
REMARK    1  A    between atoms: S_2  and  N_4
REMARK    2  A    between atoms: S_2  and  C_11
REMARK    3  A    between atoms: N_4  and  C_5
REMARK    4  A    between atoms: C_5  and  C_6
REMARK    5  A    between atoms: C_15  and  S_16
REMARK    6  A    between atoms: S_16  and  N_19
REMARK                            x       y       z     vdW  Elec       q    Type
REMARK                         _______ _______ _______ _____ _____    ______ ____
ROOT
ATOM      1  C   UNL     1       1.314   8.673  20.145  0.00  0.00    +0.000 A 
ATOM      2  C   UNL     1       1.426   9.507  19.028  0.00  0.00    +0.000 A 
ATOM      3  C   UNL     1       2.096   9.047  17.890  0.00  0.00    +0.000 A 
ATOM      4  C   UNL     1       2.622   7.750  17.856  0.00  0.00    +0.000 A 
ATOM      5  C   UNL     1       2.470   6.911  18.966  0.00  0.00    +0.000 A 
ATOM      6  C   UNL     1       1.845   7.382  20.127  0.00  0.00    +0.000 A 
ENDROOT
BRANCH   1   8
ATOM      7  O   UNL     1       1.252   9.613  22.565  0.00  0.00    +0.000 OA
ATOM      8  S   UNL     1       0.325   9.176  21.546  0.00  0.00    +0.000 S 
ATOM      9  O   UNL     1      -0.635   8.125  21.797  0.00  0.00    +0.000 OA
BRANCH   8  10
ATOM     10  N   UNL     1      -0.490  10.541  20.981  0.00  0.00    +0.000 NA
ATOM     11  H   UNL     1      -1.502  10.403  20.933  0.00  0.00    +0.000 HD
BRANCH  10  12
ATOM     12  C   UNL     1      -0.113  11.798  21.638  0.00  0.00    +0.000 C 
BRANCH  12  13
ATOM     13  C   UNL     1      -0.274  12.929  20.669  0.00  0.00    +0.000 A 
ATOM     14  C   UNL     1       0.036  12.953  19.320  0.00  0.00    +0.000 A 
ATOM     15  C   UNL     1      -0.155  14.242  18.742  0.00  0.00    +0.000 A 
ATOM     16  C   UNL     1      -0.629  15.152  19.660  0.00  0.00    +0.000 A 
ATOM     17  S   UNL     1      -0.855  14.449  21.202  0.00  0.00    +0.000 S 
ENDBRANCH  12  13
ENDBRANCH  10  12
ENDBRANCH   8  10
ENDBRANCH   1   8
BRANCH   5  18
ATOM     18  S   UNL     1       3.114   5.243  18.938  0.00  0.00    +0.000 S 
ATOM     19  O   UNL     1       3.246   4.816  20.315  0.00  0.00    +0.000 OA
ATOM     20  O   UNL     1       2.303   4.499  17.999  0.00  0.00    +0.000 OA
BRANCH  18  21
ATOM     21  N   UNL     1       4.688   5.425  18.274  0.00  0.00    +0.000 NA
ATOM     22  C   UNL     1       5.809   5.256  19.238  0.00  0.00    +0.000 C 
ATOM     23  C   UNL     1       7.153   5.609  18.609  0.00  0.00    +0.000 C 
ATOM     24  C   UNL     1       7.373   4.838  17.316  0.00  0.00    +0.000 C 
ATOM     25  C   UNL     1       6.241   5.146  16.348  0.00  0.00    +0.000 C 
ATOM     26  C   UNL     1       4.888   4.782  16.951  0.00  0.00    +0.000 C 
ENDBRANCH  18  21
ENDBRANCH   5  18
TORSDOF 6
ENDMDL
MODEL 7
REMARK VINA RESULT:      -6.9      1.898      8.824
REMARK  Name = 
REMARK  6 active torsions:
REMARK  status: ('A' for Active; 'I' for Inactive)
REMARK    1  A    between atoms: S_2  and  N_4
REMARK    2  A    between atoms: S_2  and  C_11
REMARK    3  A    between atoms: N_4  and  C_5
REMARK    4  A    between atoms: C_5  and  C_6
REMARK    5  A    between atoms: C_15  and  S_16
REMARK    6  A    between atoms: S_16  and  N_19
REMARK                            x       y       z     vdW  Elec       q    Type
REMARK                         _______ _______ _______ _____ _____    ______ ____
ROOT
ATOM      1  C   UNL     1       2.335   6.594  19.346  0.00  0.00    +0.000 A 
ATOM      2  C   UNL     1       2.689   7.166  18.121  0.00  0.00    +0.000 A 
ATOM      3  C   UNL     1       2.367   8.502  17.867  0.00  0.00    +0.000 A 
ATOM      4  C   UNL     1       1.726   9.272  18.844  0.00  0.00    +0.000 A 
ATOM      5  C   UNL     1       1.413   8.700  20.082  0.00  0.00    +0.000 A 
ATOM      6  C   UNL     1       1.686   7.349  20.325  0.00  0.00    +0.000 A 
ENDROOT
BRANCH   1   8
ATOM      7  O   UNL     1       2.325   4.067  18.747  0.00  0.00    +0.000 OA
ATOM      8  S   UNL     1       2.878   4.942  19.756  0.00  0.00    +0.000 S 
ATOM      9  O   UNL     1       2.614   4.736  21.163  0.00  0.00    +0.000 OA
BRANCH   8  10
ATOM     10  N   UNL     1       4.547   5.005  19.514  0.00  0.00    +0.000 NA
ATOM     11  H   UNL     1       5.061   5.223  20.372  0.00  0.00    +0.000 HD
BRANCH  10  12
ATOM     12  C   UNL     1       5.107   3.861  18.786  0.00  0.00    +0.000 C 
BRANCH  12  13
ATOM     13  C   UNL     1       5.570   4.314  17.436  0.00  0.00    +0.000 A 
ATOM     14  C   UNL     1       4.839   4.400  16.263  0.00  0.00    +0.000 A 
ATOM     15  C   UNL     1       5.644   4.775  15.148  0.00  0.00    +0.000 A 
ATOM     16  C   UNL     1       6.955   4.989  15.509  0.00  0.00    +0.000 A 
ATOM     17  S   UNL     1       7.206   4.753  17.184  0.00  0.00    +0.000 S 
ENDBRANCH  12  13
ENDBRANCH  10  12
ENDBRANCH   8  10
ENDBRANCH   1   8
BRANCH   5  18
ATOM     18  S   UNL     1       0.613   9.671  21.354  0.00  0.00    +0.000 S 
ATOM     19  O   UNL     1      -0.584   8.955  21.744  0.00  0.00    +0.000 OA
ATOM     20  O   UNL     1       1.633  10.006  22.324  0.00  0.00    +0.000 OA
BRANCH  18  21
ATOM     21  N   UNL     1       0.144  11.107  20.537  0.00  0.00    +0.000 NA
ATOM     22  C   UNL     1      -1.099  11.000  19.726  0.00  0.00    +0.000 C 
ATOM     23  C   UNL     1      -1.342  12.259  18.898  0.00  0.00    +0.000 C 
ATOM     24  C   UNL     1      -1.319  13.504  19.772  0.00  0.00    +0.000 C 
ATOM     25  C   UNL     1       0.021  13.593  20.485  0.00  0.00    +0.000 C 
ATOM     26  C   UNL     1       0.275  12.352  21.335  0.00  0.00    +0.000 C 
ENDBRANCH  18  21
ENDBRANCH   5  18
TORSDOF 6
ENDMDL
MODEL 8
REMARK VINA RESULT:      -6.9      3.190      8.273
REMARK  Name = 
REMARK  6 active torsions:
REMARK  status: ('A' for Active; 'I' for Inactive)
REMARK    1  A    between atoms: S_2  and  N_4
REMARK    2  A    between atoms: S_2  and  C_11
REMARK    3  A    between atoms: N_4  and  C_5
REMARK    4  A    between atoms: C_5  and  C_6
REMARK    5  A    between atoms: C_15  and  S_16
REMARK    6  A    between atoms: S_16  and  N_19
REMARK                            x       y       z     vdW  Elec       q    Type
REMARK                         _______ _______ _______ _____ _____    ______ ____
ROOT
ATOM      1  C   UNL     1       2.272   7.405  19.427  0.00  0.00    +0.000 A 
ATOM      2  C   UNL     1       1.800   6.784  20.587  0.00  0.00    +0.000 A 
ATOM      3  C   UNL     1       0.963   7.492  21.455  0.00  0.00    +0.000 A 
ATOM      4  C   UNL     1       0.572   8.801  21.148  0.00  0.00    +0.000 A 
ATOM      5  C   UNL     1       1.019   9.398  19.963  0.00  0.00    +0.000 A 
ATOM      6  C   UNL     1       1.897   8.714  19.115  0.00  0.00    +0.000 A 
ENDROOT
BRANCH   1   8
ATOM      7  O   UNL     1       4.314   5.876  18.940  0.00  0.00    +0.000 OA
ATOM      8  S   UNL     1       3.207   6.470  18.225  0.00  0.00    +0.000 S 
ATOM      9  O   UNL     1       3.419   7.327  17.079  0.00  0.00    +0.000 OA
BRANCH   8  10
ATOM     10  N   UNL     1       2.155   5.224  17.792  0.00  0.00    +0.000 NA
ATOM     11  H   UNL     1       1.719   5.377  16.879  0.00  0.00    +0.000 HD
BRANCH  10  12
ATOM     12  C   UNL     1       2.706   3.873  17.944  0.00  0.00    +0.000 C 
BRANCH  12  13
ATOM     13  C   UNL     1       2.346   3.342  19.297  0.00  0.00    +0.000 A 
ATOM     14  C   UNL     1       1.106   3.340  19.916  0.00  0.00    +0.000 A 
ATOM     15  C   UNL     1       1.167   2.844  21.250  0.00  0.00    +0.000 A 
ATOM     16  C   UNL     1       2.442   2.458  21.599  0.00  0.00    +0.000 A 
ATOM     17  S   UNL     1       3.552   2.680  20.317  0.00  0.00    +0.000 S 
ENDBRANCH  12  13
ENDBRANCH  10  12
ENDBRANCH   8  10
ENDBRANCH   1   8
BRANCH   5  18
ATOM     18  S   UNL     1       0.515  11.060  19.539  0.00  0.00    +0.000 S 
ATOM     19  O   UNL     1       0.466  11.817  20.773  0.00  0.00    +0.000 OA
ATOM     20  O   UNL     1       1.353  11.481  18.438  0.00  0.00    +0.000 OA
BRANCH  18  21
ATOM     21  N   UNL     1      -1.090  10.866  18.960  0.00  0.00    +0.000 NA
ATOM     22  C   UNL     1      -1.948  12.079  19.043  0.00  0.00    +0.000 C 
ATOM     23  C   UNL     1      -3.397  11.771  18.678  0.00  0.00    +0.000 C 
ATOM     24  C   UNL     1      -3.489  11.082  17.325  0.00  0.00    +0.000 C 
ATOM     25  C   UNL     1      -2.670   9.801  17.357  0.00  0.00    +0.000 C 
ATOM     26  C   UNL     1      -1.212  10.088  17.701  0.00  0.00    +0.000 C 
ENDBRANCH  18  21
ENDBRANCH   5  18
TORSDOF 6
ENDMDL
MODEL 9
REMARK VINA RESULT:      -6.9      1.929      8.879
REMARK  Name = 
REMARK  6 active torsions:
REMARK  status: ('A' for Active; 'I' for Inactive)
REMARK    1  A    between atoms: S_2  and  N_4
REMARK    2  A    between atoms: S_2  and  C_11
REMARK    3  A    between atoms: N_4  and  C_5
REMARK    4  A    between atoms: C_5  and  C_6
REMARK    5  A    between atoms: C_15  and  S_16
REMARK    6  A    between atoms: S_16  and  N_19
REMARK                            x       y       z     vdW  Elec       q    Type
REMARK                         _______ _______ _______ _____ _____    ______ ____
ROOT
ATOM      1  C   UNL     1       2.211   7.011  19.296  0.00  0.00    +0.000 A 
ATOM      2  C   UNL     1       2.648   7.550  18.083  0.00  0.00    +0.000 A 
ATOM      3  C   UNL     1       2.341   8.878  17.770  0.00  0.00    +0.000 A 
ATOM      4  C   UNL     1       1.631   9.672  18.678  0.00  0.00    +0.000 A 
ATOM      5  C   UNL     1       1.233   9.132  19.906  0.00  0.00    +0.000 A 
ATOM      6  C   UNL     1       1.492   7.790  20.206  0.00  0.00    +0.000 A 
ENDROOT
BRANCH   1   8
ATOM      7  O   UNL     1       2.212   4.463  18.792  0.00  0.00    +0.000 OA
ATOM      8  S   UNL     1       2.728   5.373  19.790  0.00  0.00    +0.000 S 
ATOM      9  O   UNL     1       2.405   5.221  21.191  0.00  0.00    +0.000 OA
BRANCH   8  10
ATOM     10  N   UNL     1       4.406   5.422  19.614  0.00  0.00    +0.000 NA
ATOM     11  H   UNL     1       4.877   5.797  20.441  0.00  0.00    +0.000 HD
BRANCH  10  12
ATOM     12  C   UNL     1       5.010   4.177  19.127  0.00  0.00    +0.000 C 
BRANCH  12  13
ATOM     13  C   UNL     1       5.490   4.377  17.723  0.00  0.00    +0.000 A 
ATOM     14  C   UNL     1       4.775   4.247  16.544  0.00  0.00    +0.000 A 
ATOM     15  C   UNL     1       5.595   4.414  15.391  0.00  0.00    +0.000 A 
ATOM     16  C   UNL     1       6.902   4.694  15.724  0.00  0.00    +0.000 A 
ATOM     17  S   UNL     1       7.130   4.767  17.417  0.00  0.00    +0.000 S 
ENDBRANCH  12  13
ENDBRANCH  10  12
ENDBRANCH   8  10
ENDBRANCH   1   8
BRANCH   5  18
ATOM     18  S   UNL     1       0.343  10.134  21.091  0.00  0.00    +0.000 S 
ATOM     19  O   UNL     1      -0.387   9.226  21.952  0.00  0.00    +0.000 OA
ATOM     20  O   UNL     1       1.295  11.077  21.637  0.00  0.00    +0.000 OA
BRANCH  18  21
ATOM     21  N   UNL     1      -0.789  10.996  20.130  0.00  0.00    +0.000 NA
ATOM     22  C   UNL     1      -1.471  10.194  19.078  0.00  0.00    +0.000 C 
ATOM     23  C   UNL     1      -2.319  11.071  18.161  0.00  0.00    +0.000 C 
ATOM     24  C   UNL     1      -3.287  11.929  18.963  0.00  0.00    +0.000 C 
ATOM     25  C   UNL     1      -2.503  12.791  19.940  0.00  0.00    +0.000 C 
ATOM     26  C   UNL     1      -1.663  11.933  20.880  0.00  0.00    +0.000 C 
ENDBRANCH  18  21
ENDBRANCH   5  18
TORSDOF 6
ENDMDL
