MODEL 1
REMARK VINA RESULT:      -7.8      0.000      0.000
REMARK  Name = 
REMARK  4 active torsions:
REMARK  status: ('A' for Active; 'I' for Inactive)
REMARK    1  A    between atoms: C_1  and  O_2
REMARK    2  A    between atoms: O_2  and  C_3
REMARK    3  A    between atoms: C_3  and  C_5
REMARK    4  A    between atoms: N_12  and  O_13
REMARK                            x       y       z     vdW  Elec       q    Type
REMARK                         _______ _______ _______ _____ _____    ______ ____
ROOT
ATOM      1  C   UNL     1       2.460   6.848  19.464  0.00  0.00    +0.000 A 
ATOM      2  C   UNL     1       2.619   7.241  18.117  0.00  0.00    +0.000 A 
ATOM      3  C   UNL     1       2.107   8.483  17.652  0.00  0.00    +0.000 A 
ATOM      4  C   UNL     1       1.448   9.312  18.544  0.00  0.00    +0.000 A 
ATOM      5  C   UNL     1       1.379   8.923  19.884  0.00  0.00    +0.000 A 
ATOM      6  C   UNL     1       1.823   7.707  20.350  0.00  0.00    +0.000 A 
ATOM      7  C   UNL     1       0.831  10.051  20.635  0.00  0.00    +0.000 C 
ATOM      8  N   UNL     1       0.849  10.265  21.906  0.00  0.00    +0.000 NA
ATOM      9  C   UNL     1       0.334  11.014  19.568  0.00  0.00    +0.000 C 
ATOM     10  C   UNL     1      -0.521  12.006  19.877  0.00  0.00    +0.000 C 
ATOM     11  C   UNL     1      -0.837  13.125  18.924  0.00  0.00    +0.000 C 
ATOM     12  O   UNL     1      -0.589  13.176  17.733  0.00  0.00    +0.000 OA
ATOM     13  N   UNL     1      -1.459  14.099  19.701  0.00  0.00    +0.000 N 
ATOM     14  C   UNL     1      -1.642  13.666  21.019  0.00  0.00    +0.000 A 
ATOM     15  C   UNL     1      -2.227  14.342  22.081  0.00  0.00    +0.000 A 
ATOM     16 BR   UNL     1      -2.885  16.103  21.916  0.00  0.00    +0.000 Br
ATOM     17  C   UNL     1      -2.335  13.686  23.312  0.00  0.00    +0.000 A 
ATOM     18  C   UNL     1      -1.975  12.346  23.424  0.00  0.00    +0.000 A 
ATOM     19  C   UNL     1      -1.459  11.662  22.321  0.00  0.00    +0.000 A 
ATOM     20  C   UNL     1      -1.179  12.359  21.154  0.00  0.00    +0.000 A 
ATOM     21  N   UNL     1       0.922  10.601  18.376  0.00  0.00    +0.000 N 
ATOM     22  H   UNL     1      -1.775  14.987  19.343  0.00  0.00    +0.000 HD
ATOM     23  H   UNL     1       0.543  10.937  17.493  0.00  0.00    +0.000 HD
ENDROOT
BRANCH   1  24
ATOM     24  C   UNL     1       2.942   5.588  20.084  0.00  0.00    +0.000 C 
ATOM     25  O   UNL     1       3.977   5.041  19.725  0.00  0.00    +0.000 OA
BRANCH  24  27
ATOM     26  C   UNL     1       1.267   4.061  20.470  0.00  0.00    +0.000 C 
ATOM     27  O   UNL     1       2.091   5.100  21.015  0.00  0.00    +0.000 OA
ENDBRANCH  24  27
ENDBRANCH   1  24
BRANCH   8  28
ATOM     28  O   UNL     1       1.315   9.205  22.672  0.00  0.00    +0.000 OA
ATOM     29  H   UNL     1       2.019   9.623  23.202  0.00  0.00    +0.000 HD
ENDBRANCH   8  28
TORSDOF 3
ENDMDL
MODEL 2
REMARK VINA RESULT:      -7.7      2.138      3.730
REMARK  Name = 
REMARK  4 active torsions:
REMARK  status: ('A' for Active; 'I' for Inactive)
REMARK    1  A    between atoms: C_1  and  O_2
REMARK    2  A    between atoms: O_2  and  C_3
REMARK    3  A    between atoms: C_3  and  C_5
REMARK    4  A    between atoms: N_12  and  O_13
REMARK                            x       y       z     vdW  Elec       q    Type
REMARK                         _______ _______ _______ _____ _____    ______ ____
ROOT
ATOM      1  C   UNL     1       3.501   6.030  18.166  0.00  0.00    +0.000 A 
ATOM      2  C   UNL     1       3.141   5.179  19.234  0.00  0.00    +0.000 A 
ATOM      3  C   UNL     1       2.355   5.656  20.317  0.00  0.00    +0.000 A 
ATOM      4  C   UNL     1       1.938   6.976  20.312  0.00  0.00    +0.000 A 
ATOM      5  C   UNL     1       2.249   7.766  19.202  0.00  0.00    +0.000 A 
ATOM      6  C   UNL     1       3.047   7.343  18.165  0.00  0.00    +0.000 A 
ATOM      7  C   UNL     1       1.526   9.026  19.351  0.00  0.00    +0.000 C 
ATOM      8  N   UNL     1       1.276   9.929  18.464  0.00  0.00    +0.000 NA
ATOM      9  C   UNL     1       0.997   8.998  20.776  0.00  0.00    +0.000 C 
ATOM     10  C   UNL     1       0.566  10.123  21.377  0.00  0.00    +0.000 C 
ATOM     11  C   UNL     1      -0.193  10.104  22.674  0.00  0.00    +0.000 C 
ATOM     12  O   UNL     1      -0.310   9.174  23.450  0.00  0.00    +0.000 OA
ATOM     13  N   UNL     1      -0.748  11.376  22.788  0.00  0.00    +0.000 N 
ATOM     14  C   UNL     1      -0.341  12.211  21.741  0.00  0.00    +0.000 A 
ATOM     15  C   UNL     1      -0.671  13.540  21.511  0.00  0.00    +0.000 A 
ATOM     16 BR   UNL     1      -1.842  14.497  22.639  0.00  0.00    +0.000 Br
ATOM     17  C   UNL     1      -0.106  14.187  20.407  0.00  0.00    +0.000 A 
ATOM     18  C   UNL     1       0.858  13.542  19.636  0.00  0.00    +0.000 A 
ATOM     19  C   UNL     1       1.232  12.229  19.932  0.00  0.00    +0.000 A 
ATOM     20  C   UNL     1       0.541  11.525  20.908  0.00  0.00    +0.000 A 
ATOM     21  N   UNL     1       1.105   7.675  21.198  0.00  0.00    +0.000 N 
ATOM     22  H   UNL     1      -1.335  11.667  23.554  0.00  0.00    +0.000 HD
ATOM     23  H   UNL     1       1.048   7.465  22.192  0.00  0.00    +0.000 HD
ENDROOT
BRANCH   1  24
ATOM     24  C   UNL     1       4.311   5.669  16.976  0.00  0.00    +0.000 C 
ATOM     25  O   UNL     1       4.830   6.516  16.260  0.00  0.00    +0.000 OA
BRANCH  24  27
ATOM     26  C   UNL     1       5.487   3.974  15.960  0.00  0.00    +0.000 C 
ATOM     27  O   UNL     1       4.345   4.336  16.747  0.00  0.00    +0.000 OA
ENDBRANCH  24  27
ENDBRANCH   1  24
BRANCH   8  28
ATOM     28  O   UNL     1       1.917   9.745  17.245  0.00  0.00    +0.000 OA
ATOM     29  H   UNL     1       1.178   9.506  16.655  0.00  0.00    +0.000 HD
ENDBRANCH   8  28
TORSDOF 3
ENDMDL
MODEL 3
REMARK VINA RESULT:      -7.3      2.353      3.998
REMARK  Name = 
REMARK  4 active torsions:
REMARK  status: ('A' for Active; 'I' for Inactive)
REMARK    1  A    between atoms: C_1  and  O_2
REMARK    2  A    between atoms: O_2  and  C_3
REMARK    3  A    between atoms: C_3  and  C_5
REMARK    4  A    between atoms: N_12  and  O_13
REMARK                            x       y       z     vdW  Elec       q    Type
REMARK                         _______ _______ _______ _____ _____    ______ ____
ROOT
ATOM      1  C   UNL     1       3.785   5.067  18.863  0.00  0.00    +0.000 A 
ATOM      2  C   UNL     1       3.210   4.429  19.984  0.00  0.00    +0.000 A 
ATOM      3  C   UNL     1       2.292   5.116  20.825  0.00  0.00    +0.000 A 
ATOM      4  C   UNL     1       1.961   6.427  20.526  0.00  0.00    +0.000 A 
ATOM      5  C   UNL     1       2.491   6.997  19.366  0.00  0.00    +0.000 A 
ATOM      6  C   UNL     1       3.417   6.372  18.563  0.00  0.00    +0.000 A 
ATOM      7  C   UNL     1       1.831   8.286  19.176  0.00  0.00    +0.000 C 
ATOM      8  N   UNL     1       1.781   9.025  18.120  0.00  0.00    +0.000 NA
ATOM      9  C   UNL     1       1.083   8.527  20.477  0.00  0.00    +0.000 C 
ATOM     10  C   UNL     1       0.630   9.754  20.798  0.00  0.00    +0.000 C 
ATOM     11  C   UNL     1      -0.325   9.990  21.934  0.00  0.00    +0.000 C 
ATOM     12  O   UNL     1      -0.620   9.216  22.827  0.00  0.00    +0.000 OA
ATOM     13  N   UNL     1      -0.813  11.279  21.737  0.00  0.00    +0.000 N 
ATOM     14  C   UNL     1      -0.195  11.901  20.646  0.00  0.00    +0.000 A 
ATOM     15  C   UNL     1      -0.404  13.178  20.143  0.00  0.00    +0.000 A 
ATOM     16 BR   UNL     1      -1.680  14.356  20.880  0.00  0.00    +0.000 Br
ATOM     17  C   UNL     1       0.367  13.601  19.055  0.00  0.00    +0.000 A 
ATOM     18  C   UNL     1       1.400  12.800  18.576  0.00  0.00    +0.000 A 
ATOM     19  C   UNL     1       1.642  11.549  19.148  0.00  0.00    +0.000 A 
ATOM     20  C   UNL     1       0.764  11.052  20.101  0.00  0.00    +0.000 A 
ATOM     21  N   UNL     1       1.043   7.297  21.129  0.00  0.00    +0.000 N 
ATOM     22  H   UNL     1      -1.495  11.719  22.334  0.00  0.00    +0.000 HD
ATOM     23  H   UNL     1       0.816   7.269  22.121  0.00  0.00    +0.000 HD
ENDROOT
BRANCH   1  24
ATOM     24  C   UNL     1       4.751   4.474  17.903  0.00  0.00    +0.000 C 
ATOM     25  O   UNL     1       4.436   4.197  16.753  0.00  0.00    +0.000 OA
BRANCH  24  27
ATOM     26  C   UNL     1       7.019   4.756  17.654  0.00  0.00    +0.000 C 
ATOM     27  O   UNL     1       5.959   4.223  18.458  0.00  0.00    +0.000 OA
ENDBRANCH  24  27
ENDBRANCH   1  24
BRANCH   8  28
ATOM     28  O   UNL     1       2.594   8.608  17.074  0.00  0.00    +0.000 OA
ATOM     29  H   UNL     1       2.421   9.283  16.392  0.00  0.00    +0.000 HD
ENDBRANCH   8  28
TORSDOF 3
ENDMDL
MODEL 4
REMARK VINA RESULT:      -7.1      3.560      8.174
REMARK  Name = 
REMARK  4 active torsions:
REMARK  status: ('A' for Active; 'I' for Inactive)
REMARK    1  A    between atoms: C_1  and  O_2
REMARK    2  A    between atoms: O_2  and  C_3
REMARK    3  A    between atoms: C_3  and  C_5
REMARK    4  A    between atoms: N_12  and  O_13
REMARK                            x       y       z     vdW  Elec       q    Type
REMARK                         _______ _______ _______ _____ _____    ______ ____
ROOT
ATOM      1  C   UNL     1       0.521  16.265  19.131  0.00  0.00    +0.000 A 
ATOM      2  C   UNL     1       0.088  16.418  20.467  0.00  0.00    +0.000 A 
ATOM      3  C   UNL     1       0.042  15.308  21.353  0.00  0.00    +0.000 A 
ATOM      4  C   UNL     1       0.436  14.064  20.889  0.00  0.00    +0.000 A 
ATOM      5  C   UNL     1       0.930  13.968  19.586  0.00  0.00    +0.000 A 
ATOM      6  C   UNL     1       0.940  15.015  18.694  0.00  0.00    +0.000 A 
ATOM      7  C   UNL     1       1.462  12.617  19.423  0.00  0.00    +0.000 C 
ATOM      8  N   UNL     1       2.258  12.161  18.516  0.00  0.00    +0.000 NA
ATOM      9  C   UNL     1       0.976  11.865  20.652  0.00  0.00    +0.000 C 
ATOM     10  C   UNL     1       0.991  10.519  20.690  0.00  0.00    +0.000 C 
ATOM     11  C   UNL     1       0.765   9.745  21.958  0.00  0.00    +0.000 C 
ATOM     12  O   UNL     1       0.322  10.164  23.012  0.00  0.00    +0.000 OA
ATOM     13  N   UNL     1       1.188   8.450  21.673  0.00  0.00    +0.000 N 
ATOM     14  C   UNL     1       1.571   8.316  20.334  0.00  0.00    +0.000 A 
ATOM     15  C   UNL     1       2.038   7.188  19.673  0.00  0.00    +0.000 A 
ATOM     16 BR   UNL     1       2.288   5.537  20.550  0.00  0.00    +0.000 Br
ATOM     17  C   UNL     1       2.324   7.286  18.307  0.00  0.00    +0.000 A 
ATOM     18  C   UNL     1       2.027   8.455  17.612  0.00  0.00    +0.000 A 
ATOM     19  C   UNL     1       1.486   9.554  18.283  0.00  0.00    +0.000 A 
ATOM     20  C   UNL     1       1.374   9.523  19.666  0.00  0.00    +0.000 A 
ATOM     21  N   UNL     1       0.561  12.838  21.557  0.00  0.00    +0.000 N 
ATOM     22  H   UNL     1       1.177   7.695  22.341  0.00  0.00    +0.000 HD
ATOM     23  H   UNL     1      -0.029  12.567  22.341  0.00  0.00    +0.000 HD
ENDROOT
BRANCH   1  24
ATOM     24  C   UNL     1       0.621  17.331  18.102  0.00  0.00    +0.000 C 
ATOM     25  O   UNL     1       1.619  18.030  17.985  0.00  0.00    +0.000 OA
BRANCH  24  27
ATOM     26  C   UNL     1      -1.251  18.631  17.799  0.00  0.00    +0.000 C 
ATOM     27  O   UNL     1      -0.514  17.475  17.381  0.00  0.00    +0.000 OA
ENDBRANCH  24  27
ENDBRANCH   1  24
BRANCH   8  28
ATOM     28  O   UNL     1       2.516  13.037  17.470  0.00  0.00    +0.000 OA
ATOM     29  H   UNL     1       2.165  12.552  16.699  0.00  0.00    +0.000 HD
ENDBRANCH   8  28
TORSDOF 3
ENDMDL
MODEL 5
REMARK VINA RESULT:      -7.1      2.503      3.660
REMARK  Name = 
REMARK  4 active torsions:
REMARK  status: ('A' for Active; 'I' for Inactive)
REMARK    1  A    between atoms: C_1  and  O_2
REMARK    2  A    between atoms: O_2  and  C_3
REMARK    3  A    between atoms: C_3  and  C_5
REMARK    4  A    between atoms: N_12  and  O_13
REMARK                            x       y       z     vdW  Elec       q    Type
REMARK                         _______ _______ _______ _____ _____    ______ ____
ROOT
ATOM      1  C   UNL     1       3.565   3.691  18.189  0.00  0.00    +0.000 A 
ATOM      2  C   UNL     1       4.121   4.299  17.042  0.00  0.00    +0.000 A 
ATOM      3  C   UNL     1       3.973   5.693  16.808  0.00  0.00    +0.000 A 
ATOM      4  C   UNL     1       3.276   6.456  17.729  0.00  0.00    +0.000 A 
ATOM      5  C   UNL     1       2.808   5.833  18.888  0.00  0.00    +0.000 A 
ATOM      6  C   UNL     1       2.896   4.479  19.116  0.00  0.00    +0.000 A 
ATOM      7  C   UNL     1       2.305   6.883  19.771  0.00  0.00    +0.000 C 
ATOM      8  N   UNL     1       2.047   6.827  21.034  0.00  0.00    +0.000 NA
ATOM      9  C   UNL     1       2.271   8.129  18.902  0.00  0.00    +0.000 C 
ATOM     10  C   UNL     1       1.560   9.211  19.271  0.00  0.00    +0.000 C 
ATOM     11  C   UNL     1       1.697  10.540  18.583  0.00  0.00    +0.000 C 
ATOM     12  O   UNL     1       2.236  10.770  17.516  0.00  0.00    +0.000 OA
ATOM     13  N   UNL     1       1.090  11.456  19.438  0.00  0.00    +0.000 N 
ATOM     14  C   UNL     1       0.511  10.823  20.544  0.00  0.00    +0.000 A 
ATOM     15  C   UNL     1      -0.186  11.389  21.603  0.00  0.00    +0.000 A 
ATOM     16 BR   UNL     1      -0.452  13.250  21.753  0.00  0.00    +0.000 Br
ATOM     17  C   UNL     1      -0.711  10.542  22.585  0.00  0.00    +0.000 A 
ATOM     18  C   UNL     1      -0.639   9.160  22.429  0.00  0.00    +0.000 A 
ATOM     19  C   UNL     1       0.001   8.611  21.316  0.00  0.00    +0.000 A 
ATOM     20  C   UNL     1       0.682   9.444  20.439  0.00  0.00    +0.000 A 
ATOM     21  N   UNL     1       3.050   7.839  17.785  0.00  0.00    +0.000 N 
ATOM     22  H   UNL     1       1.038  12.446  19.257  0.00  0.00    +0.000 HD
ATOM     23  H   UNL     1       2.968   8.425  16.957  0.00  0.00    +0.000 HD
ENDROOT
BRANCH   1  24
ATOM     24  C   UNL     1       3.643   2.255  18.560  0.00  0.00    +0.000 C 
ATOM     25  O   UNL     1       3.717   1.369  17.718  0.00  0.00    +0.000 OA
BRANCH  24  27
ATOM     26  C   UNL     1       4.838   1.758  20.460  0.00  0.00    +0.000 C 
ATOM     27  O   UNL     1       3.554   2.050  19.894  0.00  0.00    +0.000 OA
ENDBRANCH  24  27
ENDBRANCH   1  24
BRANCH   8  28
ATOM     28  O   UNL     1       2.110   5.556  21.589  0.00  0.00    +0.000 OA
ATOM     29  H   UNL     1       1.914   4.983  20.824  0.00  0.00    +0.000 HD
ENDBRANCH   8  28
TORSDOF 3
ENDMDL
MODEL 6
REMARK VINA RESULT:      -7.0      0.931      1.243
REMARK  Name = 
REMARK  4 active torsions:
REMARK  status: ('A' for Active; 'I' for Inactive)
REMARK    1  A    between atoms: C_1  and  O_2
REMARK    2  A    between atoms: O_2  and  C_3
REMARK    3  A    between atoms: C_3  and  C_5
REMARK    4  A    between atoms: N_12  and  O_13
REMARK                            x       y       z     vdW  Elec       q    Type
REMARK                         _______ _______ _______ _____ _____    ______ ____
ROOT
ATOM      1  C   UNL     1       2.163   7.527  19.176  0.00  0.00    +0.000 A 
ATOM      2  C   UNL     1       2.518   8.146  17.957  0.00  0.00    +0.000 A 
ATOM      3  C   UNL     1       2.121   9.481  17.671  0.00  0.00    +0.000 A 
ATOM      4  C   UNL     1       1.379  10.175  18.612  0.00  0.00    +0.000 A 
ATOM      5  C   UNL     1       1.115   9.556  19.836  0.00  0.00    +0.000 A 
ATOM      6  C   UNL     1       1.445   8.251  20.119  0.00  0.00    +0.000 A 
ATOM      7  C   UNL     1       0.513  10.562  20.709  0.00  0.00    +0.000 C 
ATOM      8  N   UNL     1       0.367  10.542  21.990  0.00  0.00    +0.000 NA
ATOM      9  C   UNL     1       0.202  11.730  19.787  0.00  0.00    +0.000 C 
ATOM     10  C   UNL     1      -0.649  12.702  20.166  0.00  0.00    +0.000 C 
ATOM     11  C   UNL     1      -0.790  13.991  19.406  0.00  0.00    +0.000 C 
ATOM     12  O   UNL     1      -0.382  14.240  18.287  0.00  0.00    +0.000 OA
ATOM     13  N   UNL     1      -1.475  14.846  20.267  0.00  0.00    +0.000 N 
ATOM     14  C   UNL     1      -1.851  14.195  21.447  0.00  0.00    +0.000 A 
ATOM     15  C   UNL     1      -2.549  14.704  22.534  0.00  0.00    +0.000 A 
ATOM     16 BR   UNL     1      -3.111  16.503  22.619  0.00  0.00    +0.000 Br
ATOM     17  C   UNL     1      -2.846  13.844  23.597  0.00  0.00    +0.000 A 
ATOM     18  C   UNL     1      -2.556  12.486  23.501  0.00  0.00    +0.000 A 
ATOM     19  C   UNL     1      -1.922  11.982  22.364  0.00  0.00    +0.000 A 
ATOM     20  C   UNL     1      -1.460  12.859  21.393  0.00  0.00    +0.000 A 
ATOM     21  N   UNL     1       0.930  11.503  18.622  0.00  0.00    +0.000 N 
ATOM     22  H   UNL     1      -1.706  15.802  20.044  0.00  0.00    +0.000 HD
ATOM     23  H   UNL     1       0.687  12.016  17.778  0.00  0.00    +0.000 HD
ENDROOT
BRANCH   1  24
ATOM     24  C   UNL     1       2.509   6.149  19.606  0.00  0.00    +0.000 C 
ATOM     25  O   UNL     1       2.146   5.693  20.682  0.00  0.00    +0.000 OA
BRANCH  24  27
ATOM     26  C   UNL     1       4.611   5.278  19.273  0.00  0.00    +0.000 C 
ATOM     27  O   UNL     1       3.308   5.506  18.723  0.00  0.00    +0.000 OA
ENDBRANCH  24  27
ENDBRANCH   1  24
BRANCH   8  28
ATOM     28  O   UNL     1       0.684   9.334  22.597  0.00  0.00    +0.000 OA
ATOM     29  H   UNL     1       1.321   8.945  21.970  0.00  0.00    +0.000 HD
ENDBRANCH   8  28
TORSDOF 3
ENDMDL
MODEL 7
REMARK VINA RESULT:      -7.0      3.390      8.085
REMARK  Name = 
REMARK  4 active torsions:
REMARK  status: ('A' for Active; 'I' for Inactive)
REMARK    1  A    between atoms: C_1  and  O_2
REMARK    2  A    between atoms: O_2  and  C_3
REMARK    3  A    between atoms: C_3  and  C_5
REMARK    4  A    between atoms: N_12  and  O_13
REMARK                            x       y       z     vdW  Elec       q    Type
REMARK                         _______ _______ _______ _____ _____    ______ ____
ROOT
ATOM      1  C   UNL     1      -0.155  15.590  19.316  0.00  0.00    +0.000 A 
ATOM      2  C   UNL     1      -0.739  15.579  20.602  0.00  0.00    +0.000 A 
ATOM      3  C   UNL     1      -0.733  14.402  21.398  0.00  0.00    +0.000 A 
ATOM      4  C   UNL     1      -0.137  13.257  20.898  0.00  0.00    +0.000 A 
ATOM      5  C   UNL     1       0.499  13.330  19.655  0.00  0.00    +0.000 A 
ATOM      6  C   UNL     1       0.466  14.440  18.845  0.00  0.00    +0.000 A 
ATOM      7  C   UNL     1       1.214  12.070  19.461  0.00  0.00    +0.000 C 
ATOM      8  N   UNL     1       2.152  11.791  18.620  0.00  0.00    +0.000 NA
ATOM      9  C   UNL     1       0.705  11.166  20.572  0.00  0.00    +0.000 C 
ATOM     10  C   UNL     1       0.889   9.834  20.519  0.00  0.00    +0.000 C 
ATOM     11  C   UNL     1       0.635   8.937  21.697  0.00  0.00    +0.000 C 
ATOM     12  O   UNL     1       0.035   9.210  22.721  0.00  0.00    +0.000 OA
ATOM     13  N   UNL     1       1.249   7.730  21.374  0.00  0.00    +0.000 N 
ATOM     14  C   UNL     1       1.782   7.754  20.080  0.00  0.00    +0.000 A 
ATOM     15  C   UNL     1       2.457   6.749  19.400  0.00  0.00    +0.000 A 
ATOM     16 BR   UNL     1       2.826   5.074  20.184  0.00  0.00    +0.000 Br
ATOM     17  C   UNL     1       2.869   6.993  18.085  0.00  0.00    +0.000 A 
ATOM     18  C   UNL     1       2.497   8.171  17.443  0.00  0.00    +0.000 A 
ATOM     19  C   UNL     1       1.751   9.137  18.123  0.00  0.00    +0.000 A 
ATOM     20  C   UNL     1       1.502   8.979  19.479  0.00  0.00    +0.000 A 
ATOM     21  N   UNL     1       0.077  12.005  21.490  0.00  0.00    +0.000 N 
ATOM     22  H   UNL     1       1.267   6.926  21.983  0.00  0.00    +0.000 HD
ATOM     23  H   UNL     1      -0.552  11.600  22.181  0.00  0.00    +0.000 HD
ENDROOT
BRANCH   1  24
ATOM     24  C   UNL     1      -0.087  16.741  18.381  0.00  0.00    +0.000 C 
ATOM     25  O   UNL     1      -1.092  17.258  17.912  0.00  0.00    +0.000 OA
BRANCH  24  27
ATOM     26  C   UNL     1       1.788  17.845  19.125  0.00  0.00    +0.000 C 
ATOM     27  O   UNL     1       1.182  17.091  18.068  0.00  0.00    +0.000 OA
ENDBRANCH  24  27
ENDBRANCH   1  24
BRANCH   8  28
ATOM     28  O   UNL     1       2.402  12.775  17.673  0.00  0.00    +0.000 OA
ATOM     29  H   UNL     1       1.503  13.059  17.424  0.00  0.00    +0.000 HD
ENDBRANCH   8  28
TORSDOF 3
ENDMDL
MODEL 8
REMARK VINA RESULT:      -7.0      3.756      7.561
REMARK  Name = 
REMARK  4 active torsions:
REMARK  status: ('A' for Active; 'I' for Inactive)
REMARK    1  A    between atoms: C_1  and  O_2
REMARK    2  A    between atoms: O_2  and  C_3
REMARK    3  A    between atoms: C_3  and  C_5
REMARK    4  A    between atoms: N_12  and  O_13
REMARK                            x       y       z     vdW  Elec       q    Type
REMARK                         _______ _______ _______ _____ _____    ______ ____
ROOT
ATOM      1  C   UNL     1      -0.560  12.315  21.939  0.00  0.00    +0.000 A 
ATOM      2  C   UNL     1      -0.129  13.063  20.821  0.00  0.00    +0.000 A 
ATOM      3  C   UNL     1       0.571  12.443  19.752  0.00  0.00    +0.000 A 
ATOM      4  C   UNL     1       0.825  11.083  19.815  0.00  0.00    +0.000 A 
ATOM      5  C   UNL     1       0.315  10.364  20.899  0.00  0.00    +0.000 A 
ATOM      6  C   UNL     1      -0.323  10.946  21.970  0.00  0.00    +0.000 A 
ATOM      7  C   UNL     1       0.537   8.946  20.621  0.00  0.00    +0.000 C 
ATOM      8  N   UNL     1      -0.004   7.916  21.178  0.00  0.00    +0.000 NA
ATOM      9  C   UNL     1       1.465   8.934  19.417  0.00  0.00    +0.000 C 
ATOM     10  C   UNL     1       2.146   7.823  19.080  0.00  0.00    +0.000 C 
ATOM     11  C   UNL     1       2.867   7.686  17.769  0.00  0.00    +0.000 C 
ATOM     12  O   UNL     1       3.142   8.570  16.978  0.00  0.00    +0.000 OA
ATOM     13  N   UNL     1       3.140   6.326  17.645  0.00  0.00    +0.000 N 
ATOM     14  C   UNL     1       2.742   5.615  18.783  0.00  0.00    +0.000 A 
ATOM     15  C   UNL     1       2.852   4.255  19.040  0.00  0.00    +0.000 A 
ATOM     16 BR   UNL     1       3.576   3.048  17.786  0.00  0.00    +0.000 Br
ATOM     17  C   UNL     1       2.414   3.773  20.278  0.00  0.00    +0.000 A 
ATOM     18  C   UNL     1       1.996   4.660  21.267  0.00  0.00    +0.000 A 
ATOM     19  C   UNL     1       1.965   6.033  21.012  0.00  0.00    +0.000 A 
ATOM     20  C   UNL     1       2.221   6.496  19.729  0.00  0.00    +0.000 A 
ATOM     21  N   UNL     1       1.415  10.219  18.883  0.00  0.00    +0.000 N 
ATOM     22  H   UNL     1       3.606   5.916  16.851  0.00  0.00    +0.000 HD
ATOM     23  H   UNL     1       2.139  10.513  18.231  0.00  0.00    +0.000 HD
ENDROOT
BRANCH   1  24
ATOM     24  C   UNL     1      -1.299  12.827  23.120  0.00  0.00    +0.000 C 
ATOM     25  O   UNL     1      -0.899  13.783  23.773  0.00  0.00    +0.000 OA
BRANCH  24  27
ATOM     26  C   UNL     1      -3.574  12.655  22.833  0.00  0.00    +0.000 C 
ATOM     27  O   UNL     1      -2.394  12.090  23.417  0.00  0.00    +0.000 OA
ENDBRANCH  24  27
ENDBRANCH   1  24
BRANCH   8  28
ATOM     28  O   UNL     1      -0.782   8.193  22.293  0.00  0.00    +0.000 OA
ATOM     29  H   UNL     1      -1.535   8.678  21.908  0.00  0.00    +0.000 HD
ENDBRANCH   8  28
TORSDOF 3
ENDMDL
MODEL 9
REMARK VINA RESULT:      -6.6      3.915      7.834
REMARK  Name = 
REMARK  4 active torsions:
REMARK  status: ('A' for Active; 'I' for Inactive)
REMARK    1  A    between atoms: C_1  and  O_2
REMARK    2  A    between atoms: O_2  and  C_3
REMARK    3  A    between atoms: C_3  and  C_5
REMARK    4  A    between atoms: N_12  and  O_13
REMARK                            x       y       z     vdW  Elec       q    Type
REMARK                         _______ _______ _______ _____ _____    ______ ____
ROOT
ATOM      1  C   UNL     1       0.502  11.918  20.688  0.00  0.00    +0.000 A 
ATOM      2  C   UNL     1       1.096  12.416  19.507  0.00  0.00    +0.000 A 
ATOM      3  C   UNL     1       1.775  11.549  18.608  0.00  0.00    +0.000 A 
ATOM      4  C   UNL     1       1.843  10.198  18.902  0.00  0.00    +0.000 A 
ATOM      5  C   UNL     1       1.177   9.733  20.039  0.00  0.00    +0.000 A 
ATOM      6  C   UNL     1       0.555  10.555  20.949  0.00  0.00    +0.000 A 
ATOM      7  C   UNL     1       1.228   8.273  20.003  0.00  0.00    +0.000 C 
ATOM      8  N   UNL     1       0.523   7.419  20.666  0.00  0.00    +0.000 NA
ATOM      9  C   UNL     1       2.219   7.952  18.896  0.00  0.00    +0.000 C 
ATOM     10  C   UNL     1       2.768   6.727  18.793  0.00  0.00    +0.000 C 
ATOM     11  C   UNL     1       3.546   6.292  17.583  0.00  0.00    +0.000 C 
ATOM     12  O   UNL     1       3.982   6.995  16.690  0.00  0.00    +0.000 OA
ATOM     13  N   UNL     1       3.645   4.907  17.694  0.00  0.00    +0.000 N 
ATOM     14  C   UNL     1       3.087   4.446  18.892  0.00  0.00    +0.000 A 
ATOM     15  C   UNL     1       3.002   3.143  19.365  0.00  0.00    +0.000 A 
ATOM     16 BR   UNL     1       3.638   1.668  18.376  0.00  0.00    +0.000 Br
ATOM     17  C   UNL     1       2.428   2.927  20.622  0.00  0.00    +0.000 A 
ATOM     18  C   UNL     1       2.069   4.007  21.423  0.00  0.00    +0.000 A 
ATOM     19  C   UNL     1       2.235   5.313  20.957  0.00  0.00    +0.000 A 
ATOM     20  C   UNL     1       2.629   5.525  19.644  0.00  0.00    +0.000 A 
ATOM     21  N   UNL     1       2.372   9.129  18.167  0.00  0.00    +0.000 N 
ATOM     22  H   UNL     1       4.102   4.320  17.014  0.00  0.00    +0.000 HD
ATOM     23  H   UNL     1       3.168   9.223  17.539  0.00  0.00    +0.000 HD
ENDROOT
BRANCH   1  24
ATOM     24  C   UNL     1      -0.235  12.702  21.710  0.00  0.00    +0.000 C 
ATOM     25  O   UNL     1      -0.543  13.874  21.533  0.00  0.00    +0.000 OA
BRANCH  24  27
ATOM     26  C   UNL     1      -1.850  11.980  23.179  0.00  0.00    +0.000 C 
ATOM     27  O   UNL     1      -0.455  12.007  22.850  0.00  0.00    +0.000 OA
ENDBRANCH  24  27
ENDBRANCH   1  24
BRANCH   8  28
ATOM     28  O   UNL     1      -0.280   7.967  21.657  0.00  0.00    +0.000 OA
ATOM     29  H   UNL     1      -1.178   7.800  21.315  0.00  0.00    +0.000 HD
ENDBRANCH   8  28
TORSDOF 3
ENDMDL
