MODEL 1
REMARK VINA RESULT:      -7.9      0.000      0.000
REMARK  Name = 
REMARK  8 active torsions:
REMARK  status: ('A' for Active; 'I' for Inactive)
REMARK    1  A    between atoms: C_1  and  O_2
REMARK    2  A    between atoms: O_2  and  C_3
REMARK    3  A    between atoms: C_3  and  C_4
REMARK    4  A    between atoms: C_4  and  N_5
REMARK    5  A    between atoms: C_6  and  C_8
REMARK    6  A    between atoms: N_13  and  C_14
REMARK    7  A    between atoms: C_14  and  C_15
REMARK    8  A    between atoms: C_15  and  C_16
REMARK                            x       y       z     vdW  Elec       q    Type
REMARK                         _______ _______ _______ _____ _____    ______ ____
ROOT
ATOM      1  C   UNL     1       6.363   4.311  16.009  0.00  0.00    +0.000 C 
ATOM      2  C   UNL     1       7.348   4.936  17.006  0.00  0.00    +0.000 C 
ATOM      3  C   UNL     1       6.492   5.881  17.833  0.00  0.00    +0.000 C 
ATOM      4  C   UNL     1       5.895   5.160  19.046  0.00  0.00    +0.000 C 
ATOM      5  C   UNL     1       4.633   5.827  19.599  0.00  0.00    +0.000 C 
ATOM      6  N   UNL     1       3.630   6.128  18.567  0.00  0.00    +0.000 NA
ATOM      7  C   UNL     1       4.198   6.876  17.435  0.00  0.00    +0.000 C 
ATOM      8  C   UNL     1       5.432   6.248  16.824  0.00  0.00    +0.000 C 
ATOM      9  O   UNL     1       5.115   5.015  16.160  0.00  0.00    +0.000 OA
ENDROOT
BRANCH   1  11
ATOM     10  N   UNL     1       6.238   3.591  13.675  0.00  0.00    +0.000 N 
ATOM     11  C   UNL     1       6.866   4.442  14.562  0.00  0.00    +0.000 C 
ATOM     12  O   UNL     1       7.695   5.274  14.224  0.00  0.00    +0.000 OA
ATOM     13  H   UNL     1       5.767   2.784  14.075  0.00  0.00    +0.000 HD
BRANCH  10  14
ATOM     14  C   UNL     1       6.528   3.596  12.253  0.00  0.00    +0.000 C 
BRANCH  14  15
ATOM     15  C   UNL     1       6.416   2.206  11.633  0.00  0.00    +0.000 C 
BRANCH  15  17
ATOM     16  C   UNL     1       4.298   3.172  11.277  0.00  0.00    +0.000 C 
ATOM     17  O   UNL     1       5.063   1.974  11.226  0.00  0.00    +0.000 OA
ENDBRANCH  15  17
ENDBRANCH  14  15
ENDBRANCH  10  14
ENDBRANCH   1  11
BRANCH   6  18
ATOM     18  C   UNL     1       2.514   6.895  19.152  0.00  0.00    +0.000 C 
BRANCH  18  19
ATOM     19  C   UNL     1       1.858   6.192  20.360  0.00  0.00    +0.000 C 
BRANCH  19  20
ATOM     20  C   UNL     1       1.728   4.720  20.100  0.00  0.00    +0.000 A 
ATOM     21  C   UNL     1       1.403   4.268  18.813  0.00  0.00    +0.000 A 
ATOM     22  C   UNL     1       1.130   2.923  18.594  0.00  0.00    +0.000 A 
ATOM     23  C   UNL     1       1.203   2.020  19.655  0.00  0.00    +0.000 A 
ATOM     24  C   UNL     1       1.575   2.457  20.926  0.00  0.00    +0.000 A 
ATOM     25  C   UNL     1       1.837   3.805  21.151  0.00  0.00    +0.000 A 
ENDBRANCH  19  20
ENDBRANCH  18  19
ENDBRANCH   6  18
TORSDOF 7
ENDMDL
MODEL 2
REMARK VINA RESULT:      -7.8      0.448      1.085
REMARK  Name = 
REMARK  8 active torsions:
REMARK  status: ('A' for Active; 'I' for Inactive)
REMARK    1  A    between atoms: C_1  and  O_2
REMARK    2  A    between atoms: O_2  and  C_3
REMARK    3  A    between atoms: C_3  and  C_4
REMARK    4  A    between atoms: C_4  and  N_5
REMARK    5  A    between atoms: C_6  and  C_8
REMARK    6  A    between atoms: N_13  and  C_14
REMARK    7  A    between atoms: C_14  and  C_15
REMARK    8  A    between atoms: C_15  and  C_16
REMARK                            x       y       z     vdW  Elec       q    Type
REMARK                         _______ _______ _______ _____ _____    ______ ____
ROOT
ATOM      1  C   UNL     1       6.352   4.285  16.020  0.00  0.00    +0.000 C 
ATOM      2  C   UNL     1       7.340   4.950  16.990  0.00  0.00    +0.000 C 
ATOM      3  C   UNL     1       6.476   5.888  17.817  0.00  0.00    +0.000 C 
ATOM      4  C   UNL     1       5.917   5.172  19.051  0.00  0.00    +0.000 C 
ATOM      5  C   UNL     1       4.649   5.818  19.615  0.00  0.00    +0.000 C 
ATOM      6  N   UNL     1       3.621   6.078  18.596  0.00  0.00    +0.000 NA
ATOM      7  C   UNL     1       4.152   6.821  17.444  0.00  0.00    +0.000 C 
ATOM      8  C   UNL     1       5.389   6.212  16.821  0.00  0.00    +0.000 C 
ATOM      9  O   UNL     1       5.091   4.962  16.182  0.00  0.00    +0.000 OA
ENDROOT
BRANCH   1  11
ATOM     10  N   UNL     1       6.230   3.503  13.706  0.00  0.00    +0.000 N 
ATOM     11  C   UNL     1       6.827   4.405  14.562  0.00  0.00    +0.000 C 
ATOM     12  O   UNL     1       7.608   5.268  14.191  0.00  0.00    +0.000 OA
ATOM     13  H   UNL     1       5.805   2.683  14.134  0.00  0.00    +0.000 HD
BRANCH  10  14
ATOM     14  C   UNL     1       6.498   3.485  12.281  0.00  0.00    +0.000 C 
BRANCH  14  15
ATOM     15  C   UNL     1       5.518   2.602  11.515  0.00  0.00    +0.000 C 
BRANCH  15  17
ATOM     16  C   UNL     1       3.296   3.100  10.917  0.00  0.00    +0.000 C 
ATOM     17  O   UNL     1       4.666   3.423  10.710  0.00  0.00    +0.000 OA
ENDBRANCH  15  17
ENDBRANCH  14  15
ENDBRANCH  10  14
ENDBRANCH   1  11
BRANCH   6  18
ATOM     18  C   UNL     1       2.497   6.828  19.189  0.00  0.00    +0.000 C 
BRANCH  18  19
ATOM     19  C   UNL     1       1.899   6.145  20.438  0.00  0.00    +0.000 C 
BRANCH  19  20
ATOM     20  C   UNL     1       1.625   4.695  20.158  0.00  0.00    +0.000 A 
ATOM     21  C   UNL     1       1.794   3.747  21.178  0.00  0.00    +0.000 A 
ATOM     22  C   UNL     1       1.694   2.390  20.893  0.00  0.00    +0.000 A 
ATOM     23  C   UNL     1       1.401   1.976  19.593  0.00  0.00    +0.000 A 
ATOM     24  C   UNL     1       1.183   2.917  18.587  0.00  0.00    +0.000 A 
ATOM     25  C   UNL     1       1.296   4.276  18.867  0.00  0.00    +0.000 A 
ENDBRANCH  19  20
ENDBRANCH  18  19
ENDBRANCH   6  18
TORSDOF 7
ENDMDL
MODEL 3
REMARK VINA RESULT:      -7.8      1.585      2.208
REMARK  Name = 
REMARK  8 active torsions:
REMARK  status: ('A' for Active; 'I' for Inactive)
REMARK    1  A    between atoms: C_1  and  O_2
REMARK    2  A    between atoms: O_2  and  C_3
REMARK    3  A    between atoms: C_3  and  C_4
REMARK    4  A    between atoms: C_4  and  N_5
REMARK    5  A    between atoms: C_6  and  C_8
REMARK    6  A    between atoms: N_13  and  C_14
REMARK    7  A    between atoms: C_14  and  C_15
REMARK    8  A    between atoms: C_15  and  C_16
REMARK                            x       y       z     vdW  Elec       q    Type
REMARK                         _______ _______ _______ _____ _____    ______ ____
ROOT
ATOM      1  C   UNL     1       6.231   3.699  14.200  0.00  0.00    +0.000 C 
ATOM      2  C   UNL     1       7.473   4.544  14.518  0.00  0.00    +0.000 C 
ATOM      3  C   UNL     1       6.981   5.561  15.535  0.00  0.00    +0.000 C 
ATOM      4  C   UNL     1       7.120   5.021  16.962  0.00  0.00    +0.000 C 
ATOM      5  C   UNL     1       6.182   5.693  17.968  0.00  0.00    +0.000 C 
ATOM      6  N   UNL     1       4.784   5.753  17.517  0.00  0.00    +0.000 NA
ATOM      7  C   UNL     1       4.655   6.331  16.171  0.00  0.00    +0.000 C 
ATOM      8  C   UNL     1       5.535   5.686  15.123  0.00  0.00    +0.000 C 
ATOM      9  O   UNL     1       5.115   4.341  14.846  0.00  0.00    +0.000 OA
ENDROOT
BRANCH   1  11
ATOM     10  N   UNL     1       4.724   3.153  12.353  0.00  0.00    +0.000 N 
ATOM     11  C   UNL     1       5.981   3.614  12.685  0.00  0.00    +0.000 C 
ATOM     12  O   UNL     1       6.799   3.989  11.858  0.00  0.00    +0.000 OA
ATOM     13  H   UNL     1       4.224   2.638  13.074  0.00  0.00    +0.000 HD
BRANCH  10  14
ATOM     14  C   UNL     1       4.269   3.050  10.979  0.00  0.00    +0.000 C 
BRANCH  14  15
ATOM     15  C   UNL     1       3.484   4.279  10.533  0.00  0.00    +0.000 C 
BRANCH  15  17
ATOM     16  C   UNL     1       2.033   5.069   8.855  0.00  0.00    +0.000 C 
ATOM     17  O   UNL     1       2.980   4.069   9.209  0.00  0.00    +0.000 OA
ENDBRANCH  15  17
ENDBRANCH  14  15
ENDBRANCH  10  14
ENDBRANCH   1  11
BRANCH   6  18
ATOM     18  C   UNL     1       3.976   6.538  18.470  0.00  0.00    +0.000 C 
BRANCH  18  19
ATOM     19  C   UNL     1       2.456   6.358  18.274  0.00  0.00    +0.000 C 
BRANCH  19  20
ATOM     20  C   UNL     1       2.007   5.046  18.851  0.00  0.00    +0.000 A 
ATOM     21  C   UNL     1       1.714   3.975  17.995  0.00  0.00    +0.000 A 
ATOM     22  C   UNL     1       1.153   2.809  18.503  0.00  0.00    +0.000 A 
ATOM     23  C   UNL     1       0.904   2.700  19.871  0.00  0.00    +0.000 A 
ATOM     24  C   UNL     1       1.240   3.744  20.733  0.00  0.00    +0.000 A 
ATOM     25  C   UNL     1       1.791   4.917  20.225  0.00  0.00    +0.000 A 
ENDBRANCH  19  20
ENDBRANCH  18  19
ENDBRANCH   6  18
TORSDOF 7
ENDMDL
MODEL 4
REMARK VINA RESULT:      -7.8      1.174      1.741
REMARK  Name = 
REMARK  8 active torsions:
REMARK  status: ('A' for Active; 'I' for Inactive)
REMARK    1  A    between atoms: C_1  and  O_2
REMARK    2  A    between atoms: O_2  and  C_3
REMARK    3  A    between atoms: C_3  and  C_4
REMARK    4  A    between atoms: C_4  and  N_5
REMARK    5  A    between atoms: C_6  and  C_8
REMARK    6  A    between atoms: N_13  and  C_14
REMARK    7  A    between atoms: C_14  and  C_15
REMARK    8  A    between atoms: C_15  and  C_16
REMARK                            x       y       z     vdW  Elec       q    Type
REMARK                         _______ _______ _______ _____ _____    ______ ____
ROOT
ATOM      1  C   UNL     1       6.423   3.944  15.045  0.00  0.00    +0.000 C 
ATOM      2  C   UNL     1       7.589   4.793  15.569  0.00  0.00    +0.000 C 
ATOM      3  C   UNL     1       6.951   5.704  16.605  0.00  0.00    +0.000 C 
ATOM      4  C   UNL     1       6.954   5.046  17.989  0.00  0.00    +0.000 C 
ATOM      5  C   UNL     1       5.888   5.601  18.936  0.00  0.00    +0.000 C 
ATOM      6  N   UNL     1       4.546   5.659  18.338  0.00  0.00    +0.000 NA
ATOM      7  C   UNL     1       4.542   6.349  17.040  0.00  0.00    +0.000 C 
ATOM      8  C   UNL     1       5.554   5.822  16.046  0.00  0.00    +0.000 C 
ATOM      9  O   UNL     1       5.219   4.495  15.613  0.00  0.00    +0.000 OA
ENDROOT
BRANCH   1  11
ATOM     10  N   UNL     1       5.314   3.227  12.986  0.00  0.00    +0.000 N 
ATOM     11  C   UNL     1       6.342   3.984  13.509  0.00  0.00    +0.000 C 
ATOM     12  O   UNL     1       7.079   4.680  12.827  0.00  0.00    +0.000 OA
ATOM     13  H   UNL     1       4.930   2.503  13.589  0.00  0.00    +0.000 HD
BRANCH  10  14
ATOM     14  C   UNL     1       5.032   3.172  11.564  0.00  0.00    +0.000 C 
BRANCH  14  15
ATOM     15  C   UNL     1       3.545   3.329  11.260  0.00  0.00    +0.000 C 
BRANCH  15  17
ATOM     16  C   UNL     1       2.739   4.505   9.386  0.00  0.00    +0.000 C 
ATOM     17  O   UNL     1       3.343   3.301   9.843  0.00  0.00    +0.000 OA
ENDBRANCH  15  17
ENDBRANCH  14  15
ENDBRANCH  10  14
ENDBRANCH   1  11
BRANCH   6  18
ATOM     18  C   UNL     1       3.610   6.335  19.257  0.00  0.00    +0.000 C 
BRANCH  18  19
ATOM     19  C   UNL     1       2.128   6.136  18.875  0.00  0.00    +0.000 C 
BRANCH  19  20
ATOM     20  C   UNL     1       1.686   4.740  19.207  0.00  0.00    +0.000 A 
ATOM     21  C   UNL     1       1.574   4.349  20.549  0.00  0.00    +0.000 A 
ATOM     22  C   UNL     1       1.316   3.021  20.869  0.00  0.00    +0.000 A 
ATOM     23  C   UNL     1       1.147   2.084  19.849  0.00  0.00    +0.000 A 
ATOM     24  C   UNL     1       1.208   2.478  18.513  0.00  0.00    +0.000 A 
ATOM     25  C   UNL     1       1.479   3.805  18.190  0.00  0.00    +0.000 A 
ENDBRANCH  19  20
ENDBRANCH  18  19
ENDBRANCH   6  18
TORSDOF 7
ENDMDL
MODEL 5
REMARK VINA RESULT:      -7.7      2.095      3.727
REMARK  Name = 
REMARK  8 active torsions:
REMARK  status: ('A' for Active; 'I' for Inactive)
REMARK    1  A    between atoms: C_1  and  O_2
REMARK    2  A    between atoms: O_2  and  C_3
REMARK    3  A    between atoms: C_3  and  C_4
REMARK    4  A    between atoms: C_4  and  N_5
REMARK    5  A    between atoms: C_6  and  C_8
REMARK    6  A    between atoms: N_13  and  C_14
REMARK    7  A    between atoms: C_14  and  C_15
REMARK    8  A    between atoms: C_15  and  C_16
REMARK                            x       y       z     vdW  Elec       q    Type
REMARK                         _______ _______ _______ _____ _____    ______ ____
ROOT
ATOM      1  C   UNL     1       6.200   4.221  15.962  0.00  0.00    +0.000 C 
ATOM      2  C   UNL     1       7.163   4.588  17.100  0.00  0.00    +0.000 C 
ATOM      3  C   UNL     1       6.376   5.569  17.953  0.00  0.00    +0.000 C 
ATOM      4  C   UNL     1       5.565   4.834  19.026  0.00  0.00    +0.000 C 
ATOM      5  C   UNL     1       4.365   5.631  19.543  0.00  0.00    +0.000 C 
ATOM      6  N   UNL     1       3.522   6.181  18.472  0.00  0.00    +0.000 NA
ATOM      7  C   UNL     1       4.300   6.939  17.481  0.00  0.00    +0.000 C 
ATOM      8  C   UNL     1       5.483   6.190  16.907  0.00  0.00    +0.000 C 
ATOM      9  O   UNL     1       5.058   5.091  16.088  0.00  0.00    +0.000 OA
ENDROOT
BRANCH   1  11
ATOM     10  N   UNL     1       6.362   3.570  13.610  0.00  0.00    +0.000 N 
ATOM     11  C   UNL     1       6.855   4.413  14.584  0.00  0.00    +0.000 C 
ATOM     12  O   UNL     1       7.686   5.282  14.364  0.00  0.00    +0.000 OA
ATOM     13  H   UNL     1       5.878   2.736  13.934  0.00  0.00    +0.000 HD
BRANCH  10  14
ATOM     14  C   UNL     1       6.807   3.627  12.231  0.00  0.00    +0.000 C 
BRANCH  14  15
ATOM     15  C   UNL     1       5.995   2.713  11.319  0.00  0.00    +0.000 C 
BRANCH  15  17
ATOM     16  C   UNL     1       3.802   3.363  10.761  0.00  0.00    +0.000 C 
ATOM     17  O   UNL     1       4.623   2.726  11.731  0.00  0.00    +0.000 OA
ENDBRANCH  15  17
ENDBRANCH  14  15
ENDBRANCH  10  14
ENDBRANCH   1  11
BRANCH   6  18
ATOM     18  C   UNL     1       2.476   7.050  19.045  0.00  0.00    +0.000 C 
BRANCH  18  19
ATOM     19  C   UNL     1       2.236   8.338  18.227  0.00  0.00    +0.000 C 
BRANCH  19  20
ATOM     20  C   UNL     1       1.405   9.309  19.015  0.00  0.00    +0.000 A 
ATOM     21  C   UNL     1       0.998   8.979  20.316  0.00  0.00    +0.000 A 
ATOM     22  C   UNL     1       0.105   9.798  20.996  0.00  0.00    +0.000 A 
ATOM     23  C   UNL     1      -0.367  10.962  20.389  0.00  0.00    +0.000 A 
ATOM     24  C   UNL     1       0.075  11.320  19.116  0.00  0.00    +0.000 A 
ATOM     25  C   UNL     1       0.959  10.495  18.427  0.00  0.00    +0.000 A 
ENDBRANCH  19  20
ENDBRANCH  18  19
ENDBRANCH   6  18
TORSDOF 7
ENDMDL
MODEL 6
REMARK VINA RESULT:      -7.7      1.804      3.423
REMARK  Name = 
REMARK  8 active torsions:
REMARK  status: ('A' for Active; 'I' for Inactive)
REMARK    1  A    between atoms: C_1  and  O_2
REMARK    2  A    between atoms: O_2  and  C_3
REMARK    3  A    between atoms: C_3  and  C_4
REMARK    4  A    between atoms: C_4  and  N_5
REMARK    5  A    between atoms: C_6  and  C_8
REMARK    6  A    between atoms: N_13  and  C_14
REMARK    7  A    between atoms: C_14  and  C_15
REMARK    8  A    between atoms: C_15  and  C_16
REMARK                            x       y       z     vdW  Elec       q    Type
REMARK                         _______ _______ _______ _____ _____    ______ ____
ROOT
ATOM      1  C   UNL     1       6.293   4.177  16.082  0.00  0.00    +0.000 C 
ATOM      2  C   UNL     1       7.144   4.935  17.110  0.00  0.00    +0.000 C 
ATOM      3  C   UNL     1       6.130   5.707  17.937  0.00  0.00    +0.000 C 
ATOM      4  C   UNL     1       5.640   4.872  19.124  0.00  0.00    +0.000 C 
ATOM      5  C   UNL     1       4.276   5.309  19.663  0.00  0.00    +0.000 C 
ATOM      6  N   UNL     1       3.254   5.461  18.616  0.00  0.00    +0.000 NA
ATOM      7  C   UNL     1       3.709   6.317  17.511  0.00  0.00    +0.000 C 
ATOM      8  C   UNL     1       5.040   5.915  16.913  0.00  0.00    +0.000 C 
ATOM      9  O   UNL     1       4.944   4.661  16.221  0.00  0.00    +0.000 OA
ENDROOT
BRANCH   1  11
ATOM     10  N   UNL     1       6.307   3.514  13.727  0.00  0.00    +0.000 N 
ATOM     11  C   UNL     1       6.792   4.420  14.647  0.00  0.00    +0.000 C 
ATOM     12  O   UNL     1       7.496   5.373  14.346  0.00  0.00    +0.000 OA
ATOM     13  H   UNL     1       5.952   2.636  14.098  0.00  0.00    +0.000 HD
BRANCH  10  14
ATOM     14  C   UNL     1       6.613   3.601  12.312  0.00  0.00    +0.000 C 
BRANCH  14  15
ATOM     15  C   UNL     1       5.478   3.073  11.439  0.00  0.00    +0.000 C 
BRANCH  15  17
ATOM     16  C   UNL     1       6.597   1.070  10.908  0.00  0.00    +0.000 C 
ATOM     17  O   UNL     1       5.445   1.643  11.514  0.00  0.00    +0.000 OA
ENDBRANCH  15  17
ENDBRANCH  14  15
ENDBRANCH  10  14
ENDBRANCH   1  11
BRANCH   6  18
ATOM     18  C   UNL     1       2.016   6.020  19.193  0.00  0.00    +0.000 C 
BRANCH  18  19
ATOM     19  C   UNL     1       2.275   7.106  20.258  0.00  0.00    +0.000 C 
BRANCH  19  20
ATOM     20  C   UNL     1       1.499   8.350  19.934  0.00  0.00    +0.000 A 
ATOM     21  C   UNL     1       0.648   8.909  20.898  0.00  0.00    +0.000 A 
ATOM     22  C   UNL     1      -0.189   9.966  20.561  0.00  0.00    +0.000 A 
ATOM     23  C   UNL     1      -0.163  10.485  19.266  0.00  0.00    +0.000 A 
ATOM     24  C   UNL     1       0.718   9.964  18.318  0.00  0.00    +0.000 A 
ATOM     25  C   UNL     1       1.548   8.897  18.649  0.00  0.00    +0.000 A 
ENDBRANCH  19  20
ENDBRANCH  18  19
ENDBRANCH   6  18
TORSDOF 7
ENDMDL
MODEL 7
REMARK VINA RESULT:      -7.6      0.726      1.273
REMARK  Name = 
REMARK  8 active torsions:
REMARK  status: ('A' for Active; 'I' for Inactive)
REMARK    1  A    between atoms: C_1  and  O_2
REMARK    2  A    between atoms: O_2  and  C_3
REMARK    3  A    between atoms: C_3  and  C_4
REMARK    4  A    between atoms: C_4  and  N_5
REMARK    5  A    between atoms: C_6  and  C_8
REMARK    6  A    between atoms: N_13  and  C_14
REMARK    7  A    between atoms: C_14  and  C_15
REMARK    8  A    between atoms: C_15  and  C_16
REMARK                            x       y       z     vdW  Elec       q    Type
REMARK                         _______ _______ _______ _____ _____    ______ ____
ROOT
ATOM      1  C   UNL     1       6.203   4.171  15.764  0.00  0.00    +0.000 C 
ATOM      2  C   UNL     1       7.260   4.808  16.677  0.00  0.00    +0.000 C 
ATOM      3  C   UNL     1       6.467   5.760  17.558  0.00  0.00    +0.000 C 
ATOM      4  C   UNL     1       5.965   5.051  18.820  0.00  0.00    +0.000 C 
ATOM      5  C   UNL     1       4.747   5.722  19.459  0.00  0.00    +0.000 C 
ATOM      6  N   UNL     1       3.668   6.011  18.503  0.00  0.00    +0.000 NA
ATOM      7  C   UNL     1       4.147   6.748  17.325  0.00  0.00    +0.000 C 
ATOM      8  C   UNL     1       5.332   6.115  16.628  0.00  0.00    +0.000 C 
ATOM      9  O   UNL     1       4.968   4.875  16.003  0.00  0.00    +0.000 OA
ENDROOT
BRANCH   1  11
ATOM     10  N   UNL     1       5.975   3.362  13.467  0.00  0.00    +0.000 N 
ATOM     11  C   UNL     1       6.594   4.288  14.282  0.00  0.00    +0.000 C 
ATOM     12  O   UNL     1       7.332   5.167  13.861  0.00  0.00    +0.000 OA
ATOM     13  H   UNL     1       5.595   2.537  13.924  0.00  0.00    +0.000 HD
BRANCH  10  14
ATOM     14  C   UNL     1       6.165   3.338  12.030  0.00  0.00    +0.000 C 
BRANCH  14  15
ATOM     15  C   UNL     1       7.508   2.732  11.632  0.00  0.00    +0.000 C 
BRANCH  15  17
ATOM     16  C   UNL     1       5.921   1.087  11.064  0.00  0.00    +0.000 C 
ATOM     17  O   UNL     1       7.290   1.467  10.996  0.00  0.00    +0.000 OA
ENDBRANCH  15  17
ENDBRANCH  14  15
ENDBRANCH  10  14
ENDBRANCH   1  11
BRANCH   6  18
ATOM     18  C   UNL     1       2.597   6.782  19.164  0.00  0.00    +0.000 C 
BRANCH  18  19
ATOM     19  C   UNL     1       2.013   6.075  20.406  0.00  0.00    +0.000 C 
BRANCH  19  20
ATOM     20  C   UNL     1       1.718   4.636  20.096  0.00  0.00    +0.000 A 
ATOM     21  C   UNL     1       1.949   3.655  21.070  0.00  0.00    +0.000 A 
ATOM     22  C   UNL     1       1.826   2.308  20.747  0.00  0.00    +0.000 A 
ATOM     23  C   UNL     1       1.449   1.938  19.456  0.00  0.00    +0.000 A 
ATOM     24  C   UNL     1       1.170   2.912  18.498  0.00  0.00    +0.000 A 
ATOM     25  C   UNL     1       1.304   4.261  18.815  0.00  0.00    +0.000 A 
ENDBRANCH  19  20
ENDBRANCH  18  19
ENDBRANCH   6  18
TORSDOF 7
ENDMDL
MODEL 8
REMARK VINA RESULT:      -7.5      1.092      1.633
REMARK  Name = 
REMARK  8 active torsions:
REMARK  status: ('A' for Active; 'I' for Inactive)
REMARK    1  A    between atoms: C_1  and  O_2
REMARK    2  A    between atoms: O_2  and  C_3
REMARK    3  A    between atoms: C_3  and  C_4
REMARK    4  A    between atoms: C_4  and  N_5
REMARK    5  A    between atoms: C_6  and  C_8
REMARK    6  A    between atoms: N_13  and  C_14
REMARK    7  A    between atoms: C_14  and  C_15
REMARK    8  A    between atoms: C_15  and  C_16
REMARK                            x       y       z     vdW  Elec       q    Type
REMARK                         _______ _______ _______ _____ _____    ______ ____
ROOT
ATOM      1  C   UNL     1       6.588   4.474  15.869  0.00  0.00    +0.000 C 
ATOM      2  C   UNL     1       7.447   5.494  16.628  0.00  0.00    +0.000 C 
ATOM      3  C   UNL     1       6.451   6.248  17.494  0.00  0.00    +0.000 C 
ATOM      4  C   UNL     1       6.271   5.558  18.850  0.00  0.00    +0.000 C 
ATOM      5  C   UNL     1       4.946   5.890  19.539  0.00  0.00    +0.000 C 
ATOM      6  N   UNL     1       3.775   5.735  18.663  0.00  0.00    +0.000 NA
ATOM      7  C   UNL     1       3.930   6.453  17.390  0.00  0.00    +0.000 C 
ATOM      8  C   UNL     1       5.209   6.141  16.644  0.00  0.00    +0.000 C 
ATOM      9  O   UNL     1       5.213   4.790  16.158  0.00  0.00    +0.000 OA
ENDROOT
BRANCH   1  11
ATOM     10  N   UNL     1       6.233   3.529  13.640  0.00  0.00    +0.000 N 
ATOM     11  C   UNL     1       6.835   4.547  14.352  0.00  0.00    +0.000 C 
ATOM     12  O   UNL     1       7.448   5.464  13.826  0.00  0.00    +0.000 OA
ATOM     13  H   UNL     1       5.973   2.699  14.167  0.00  0.00    +0.000 HD
BRANCH  10  14
ATOM     14  C   UNL     1       6.298   3.446  12.194  0.00  0.00    +0.000 C 
BRANCH  14  15
ATOM     15  C   UNL     1       5.356   2.388  11.630  0.00  0.00    +0.000 C 
BRANCH  15  17
ATOM     16  C   UNL     1       7.505   1.659  11.001  0.00  0.00    +0.000 C 
ATOM     17  O   UNL     1       6.124   1.324  11.055  0.00  0.00    +0.000 OA
ENDBRANCH  15  17
ENDBRANCH  14  15
ENDBRANCH  10  14
ENDBRANCH   1  11
BRANCH   6  18
ATOM     18  C   UNL     1       2.559   6.209  19.351  0.00  0.00    +0.000 C 
BRANCH  18  19
ATOM     19  C   UNL     1       1.703   5.066  19.936  0.00  0.00    +0.000 C 
BRANCH  19  20
ATOM     20  C   UNL     1       2.207   3.737  19.452  0.00  0.00    +0.000 A 
ATOM     21  C   UNL     1       3.060   2.979  20.268  0.00  0.00    +0.000 A 
ATOM     22  C   UNL     1       3.654   1.824  19.772  0.00  0.00    +0.000 A 
ATOM     23  C   UNL     1       3.380   1.409  18.469  0.00  0.00    +0.000 A 
ATOM     24  C   UNL     1       2.493   2.133  17.672  0.00  0.00    +0.000 A 
ATOM     25  C   UNL     1       1.907   3.297  18.161  0.00  0.00    +0.000 A 
ENDBRANCH  19  20
ENDBRANCH  18  19
ENDBRANCH   6  18
TORSDOF 7
ENDMDL
MODEL 9
REMARK VINA RESULT:      -7.4      3.611      8.327
REMARK  Name = 
REMARK  8 active torsions:
REMARK  status: ('A' for Active; 'I' for Inactive)
REMARK    1  A    between atoms: C_1  and  O_2
REMARK    2  A    between atoms: O_2  and  C_3
REMARK    3  A    between atoms: C_3  and  C_4
REMARK    4  A    between atoms: C_4  and  N_5
REMARK    5  A    between atoms: C_6  and  C_8
REMARK    6  A    between atoms: N_13  and  C_14
REMARK    7  A    between atoms: C_14  and  C_15
REMARK    8  A    between atoms: C_15  and  C_16
REMARK                            x       y       z     vdW  Elec       q    Type
REMARK                         _______ _______ _______ _____ _____    ______ ____
ROOT
ATOM      1  C   UNL     1       2.400   6.531  20.442  0.00  0.00    +0.000 C 
ATOM      2  C   UNL     1       1.535   5.274  20.604  0.00  0.00    +0.000 C 
ATOM      3  C   UNL     1       1.982   4.365  19.471  0.00  0.00    +0.000 C 
ATOM      4  C   UNL     1       3.154   3.480  19.908  0.00  0.00    +0.000 C 
ATOM      5  C   UNL     1       4.003   2.965  18.743  0.00  0.00    +0.000 C 
ATOM      6  N   UNL     1       4.408   4.020  17.802  0.00  0.00    +0.000 NA
ATOM      7  C   UNL     1       3.268   4.824  17.339  0.00  0.00    +0.000 C 
ATOM      8  C   UNL     1       2.407   5.389  18.447  0.00  0.00    +0.000 C 
ATOM      9  O   UNL     1       3.114   6.388  19.198  0.00  0.00    +0.000 OA
ENDROOT
BRANCH   1  11
ATOM     10  N   UNL     1       0.782   7.998  21.543  0.00  0.00    +0.000 N 
ATOM     11  C   UNL     1       1.540   7.806  20.407  0.00  0.00    +0.000 C 
ATOM     12  O   UNL     1       1.584   8.607  19.485  0.00  0.00    +0.000 OA
ATOM     13  H   UNL     1       0.617   7.179  22.123  0.00  0.00    +0.000 HD
BRANCH  10  14
ATOM     14  C   UNL     1      -0.056   9.167  21.734  0.00  0.00    +0.000 C 
BRANCH  14  15
ATOM     15  C   UNL     1      -0.063   9.648  23.181  0.00  0.00    +0.000 C 
BRANCH  15  17
ATOM     16  C   UNL     1      -0.492  11.611  21.954  0.00  0.00    +0.000 C 
ATOM     17  O   UNL     1      -0.550  10.993  23.234  0.00  0.00    +0.000 OA
ENDBRANCH  15  17
ENDBRANCH  14  15
ENDBRANCH  10  14
ENDBRANCH   1  11
BRANCH   6  18
ATOM     18  C   UNL     1       5.096   3.426  16.640  0.00  0.00    +0.000 C 
BRANCH  18  19
ATOM     19  C   UNL     1       6.081   4.395  15.952  0.00  0.00    +0.000 C 
BRANCH  19  20
ATOM     20  C   UNL     1       6.716   5.300  16.968  0.00  0.00    +0.000 A 
ATOM     21  C   UNL     1       6.750   6.684  16.740  0.00  0.00    +0.000 A 
ATOM     22  C   UNL     1       7.467   7.514  17.593  0.00  0.00    +0.000 A 
ATOM     23  C   UNL     1       8.133   6.969  18.691  0.00  0.00    +0.000 A 
ATOM     24  C   UNL     1       8.061   5.600  18.950  0.00  0.00    +0.000 A 
ATOM     25  C   UNL     1       7.354   4.765  18.089  0.00  0.00    +0.000 A 
ENDBRANCH  19  20
ENDBRANCH  18  19
ENDBRANCH   6  18
TORSDOF 7
ENDMDL
