MODEL 1
REMARK VINA RESULT:      -7.6      0.000      0.000
REMARK  Name = 
REMARK  8 active torsions:
REMARK  status: ('A' for Active; 'I' for Inactive)
REMARK    1  A    between atoms: C_1  and  O_2
REMARK    2  A    between atoms: O_2  and  C_3
REMARK    3  A    between atoms: C_6  and  C_7
REMARK    4  A    between atoms: C_7  and  N_8
REMARK    5  A    between atoms: N_8  and  C_9
REMARK    6  A    between atoms: C_11  and  C_12
REMARK    7  A    between atoms: C_19  and  O_20
REMARK    8  A    between atoms: O_20  and  C_21
REMARK                            x       y       z     vdW  Elec       q    Type
REMARK                         _______ _______ _______ _____ _____    ______ ____
ROOT
ATOM      1  N   UNL     1       4.051   3.374  17.478  0.00  0.00    +0.000 N 
ATOM      2  H   UNL     1       4.112   2.362  17.327  0.00  0.00    +0.000 HD
ENDROOT
BRANCH   1   3
ATOM      3  C   UNL     1       5.162   4.035  16.936  0.00  0.00    +0.000 A 
ATOM      4  C   UNL     1       5.460   4.069  15.625  0.00  0.00    +0.000 A 
ATOM      5  C   UNL     1       6.689   4.813  15.215  0.00  0.00    +0.000 A 
ATOM      6  C   UNL     1       7.012   4.832  13.742  0.00  0.00    +0.000 C 
ATOM      7  N   UNL     1       7.494   5.435  16.024  0.00  0.00    +0.000 NA
ATOM      8  C   UNL     1       7.173   5.394  17.350  0.00  0.00    +0.000 A 
ATOM      9  N   UNL     1       7.808   5.929  18.370  0.00  0.00    +0.000 NA
ATOM     10  C   UNL     1       7.054   5.565  19.441  0.00  0.00    +0.000 A 
ATOM     11  N   UNL     1       5.977   4.822  19.176  0.00  0.00    +0.000 NA
ATOM     12  N   UNL     1       6.038   4.716  17.818  0.00  0.00    +0.000 N 
ENDBRANCH   1   3
BRANCH   1  13
ATOM     13  C   UNL     1       2.685   3.876  17.395  0.00  0.00    +0.000 C 
BRANCH  13  17
ATOM     14  C   UNL     1       1.950   7.103  20.181  0.00  0.00    +0.000 A 
ATOM     15  C   UNL     1       2.368   7.365  18.878  0.00  0.00    +0.000 A 
ATOM     16  C   UNL     1       2.625   6.315  17.995  0.00  0.00    +0.000 A 
ATOM     17  C   UNL     1       2.440   4.981  18.394  0.00  0.00    +0.000 A 
ATOM     18  C   UNL     1       2.013   4.716  19.707  0.00  0.00    +0.000 A 
ATOM     19  C   UNL     1       1.784   5.780  20.593  0.00  0.00    +0.000 A 
BRANCH  14  21
ATOM     20  C   UNL     1       0.377   8.471  21.332  0.00  0.00    +0.000 C 
ATOM     21  O   UNL     1       1.723   8.214  20.947  0.00  0.00    +0.000 OA
ENDBRANCH  14  21
BRANCH  18  22
ATOM     22  O   UNL     1       1.836   3.393  20.029  0.00  0.00    +0.000 OA
ATOM     23  C   UNL     1       2.720   2.834  20.996  0.00  0.00    +0.000 C 
ENDBRANCH  18  22
ENDBRANCH  13  17
ENDBRANCH   1  13
TORSDOF 5
ENDMDL
MODEL 2
REMARK VINA RESULT:      -7.6      1.053      2.398
REMARK  Name = 
REMARK  8 active torsions:
REMARK  status: ('A' for Active; 'I' for Inactive)
REMARK    1  A    between atoms: C_1  and  O_2
REMARK    2  A    between atoms: O_2  and  C_3
REMARK    3  A    between atoms: C_6  and  C_7
REMARK    4  A    between atoms: C_7  and  N_8
REMARK    5  A    between atoms: N_8  and  C_9
REMARK    6  A    between atoms: C_11  and  C_12
REMARK    7  A    between atoms: C_19  and  O_20
REMARK    8  A    between atoms: O_20  and  C_21
REMARK                            x       y       z     vdW  Elec       q    Type
REMARK                         _______ _______ _______ _____ _____    ______ ____
ROOT
ATOM      1  N   UNL     1       4.056   3.339  17.535  0.00  0.00    +0.000 N 
ATOM      2  H   UNL     1       4.144   2.424  17.081  0.00  0.00    +0.000 HD
ENDROOT
BRANCH   1   3
ATOM      3  C   UNL     1       5.261   4.052  17.475  0.00  0.00    +0.000 A 
ATOM      4  C   UNL     1       5.915   4.527  18.550  0.00  0.00    +0.000 A 
ATOM      5  C   UNL     1       7.187   5.274  18.310  0.00  0.00    +0.000 A 
ATOM      6  C   UNL     1       7.902   5.808  19.527  0.00  0.00    +0.000 C 
ATOM      7  N   UNL     1       7.715   5.501  17.145  0.00  0.00    +0.000 NA
ATOM      8  C   UNL     1       7.039   5.007  16.066  0.00  0.00    +0.000 A 
ATOM      9  N   UNL     1       7.345   5.094  14.789  0.00  0.00    +0.000 NA
ATOM     10  C   UNL     1       6.326   4.440  14.172  0.00  0.00    +0.000 A 
ATOM     11  N   UNL     1       5.378   3.944  14.970  0.00  0.00    +0.000 NA
ATOM     12  N   UNL     1       5.839   4.296  16.205  0.00  0.00    +0.000 N 
ENDBRANCH   1   3
BRANCH   1  13
ATOM     13  C   UNL     1       2.743   3.941  17.339  0.00  0.00    +0.000 C 
BRANCH  13  17
ATOM     14  C   UNL     1       1.886   7.025  20.251  0.00  0.00    +0.000 A 
ATOM     15  C   UNL     1       2.224   7.353  18.940  0.00  0.00    +0.000 A 
ATOM     16  C   UNL     1       2.521   6.352  18.015  0.00  0.00    +0.000 A 
ATOM     17  C   UNL     1       2.459   4.996  18.381  0.00  0.00    +0.000 A 
ATOM     18  C   UNL     1       2.113   4.663  19.703  0.00  0.00    +0.000 A 
ATOM     19  C   UNL     1       1.842   5.682  20.630  0.00  0.00    +0.000 A 
BRANCH  14  21
ATOM     20  C   UNL     1       0.947   9.203  20.460  0.00  0.00    +0.000 C 
ATOM     21  O   UNL     1       1.609   8.094  21.059  0.00  0.00    +0.000 OA
ENDBRANCH  14  21
BRANCH  18  22
ATOM     22  O   UNL     1       2.054   3.323  19.992  0.00  0.00    +0.000 OA
ATOM     23  C   UNL     1       1.277   2.933  21.120  0.00  0.00    +0.000 C 
ENDBRANCH  18  22
ENDBRANCH  13  17
ENDBRANCH   1  13
TORSDOF 5
ENDMDL
MODEL 3
REMARK VINA RESULT:      -7.5      1.323      2.457
REMARK  Name = 
REMARK  8 active torsions:
REMARK  status: ('A' for Active; 'I' for Inactive)
REMARK    1  A    between atoms: C_1  and  O_2
REMARK    2  A    between atoms: O_2  and  C_3
REMARK    3  A    between atoms: C_6  and  C_7
REMARK    4  A    between atoms: C_7  and  N_8
REMARK    5  A    between atoms: N_8  and  C_9
REMARK    6  A    between atoms: C_11  and  C_12
REMARK    7  A    between atoms: C_19  and  O_20
REMARK    8  A    between atoms: O_20  and  C_21
REMARK                            x       y       z     vdW  Elec       q    Type
REMARK                         _______ _______ _______ _____ _____    ______ ____
ROOT
ATOM      1  N   UNL     1       5.395   3.611  18.602  0.00  0.00    +0.000 N 
ATOM      2  H   UNL     1       5.859   2.697  18.571  0.00  0.00    +0.000 HD
ENDROOT
BRANCH   1   3
ATOM      3  C   UNL     1       6.145   4.584  17.928  0.00  0.00    +0.000 A 
ATOM      4  C   UNL     1       6.751   5.624  18.528  0.00  0.00    +0.000 A 
ATOM      5  C   UNL     1       7.507   6.577  17.659  0.00  0.00    +0.000 A 
ATOM      6  C   UNL     1       8.172   7.743  18.348  0.00  0.00    +0.000 C 
ATOM      7  N   UNL     1       7.629   6.481  16.369  0.00  0.00    +0.000 NA
ATOM      8  C   UNL     1       7.011   5.416  15.779  0.00  0.00    +0.000 A 
ATOM      9  N   UNL     1       6.972   5.085  14.506  0.00  0.00    +0.000 NA
ATOM     10  C   UNL     1       6.217   3.955  14.494  0.00  0.00    +0.000 A 
ATOM     11  N   UNL     1       5.759   3.541  15.678  0.00  0.00    +0.000 NA
ATOM     12  N   UNL     1       6.281   4.477  16.522  0.00  0.00    +0.000 N 
ENDBRANCH   1   3
BRANCH   1  13
ATOM     13  C   UNL     1       3.942   3.508  18.531  0.00  0.00    +0.000 C 
BRANCH  13  17
ATOM     14  C   UNL     1       1.998   7.143  19.846  0.00  0.00    +0.000 A 
ATOM     15  C   UNL     1       2.618   7.074  18.600  0.00  0.00    +0.000 A 
ATOM     16  C   UNL     1       3.262   5.904  18.195  0.00  0.00    +0.000 A 
ATOM     17  C   UNL     1       3.274   4.769  19.024  0.00  0.00    +0.000 A 
ATOM     18  C   UNL     1       2.645   4.835  20.280  0.00  0.00    +0.000 A 
ATOM     19  C   UNL     1       2.024   6.027  20.685  0.00  0.00    +0.000 A 
BRANCH  14  21
ATOM     20  C   UNL     1       0.835   8.495  21.423  0.00  0.00    +0.000 C 
ATOM     21  O   UNL     1       1.395   8.339  20.124  0.00  0.00    +0.000 OA
ENDBRANCH  14  21
BRANCH  18  22
ATOM     22  O   UNL     1       2.678   3.689  21.033  0.00  0.00    +0.000 OA
ATOM     23  C   UNL     1       1.436   3.040  21.286  0.00  0.00    +0.000 C 
ENDBRANCH  18  22
ENDBRANCH  13  17
ENDBRANCH   1  13
TORSDOF 5
ENDMDL
MODEL 4
REMARK VINA RESULT:      -7.4      1.329      2.909
REMARK  Name = 
REMARK  8 active torsions:
REMARK  status: ('A' for Active; 'I' for Inactive)
REMARK    1  A    between atoms: C_1  and  O_2
REMARK    2  A    between atoms: O_2  and  C_3
REMARK    3  A    between atoms: C_6  and  C_7
REMARK    4  A    between atoms: C_7  and  N_8
REMARK    5  A    between atoms: N_8  and  C_9
REMARK    6  A    between atoms: C_11  and  C_12
REMARK    7  A    between atoms: C_19  and  O_20
REMARK    8  A    between atoms: O_20  and  C_21
REMARK                            x       y       z     vdW  Elec       q    Type
REMARK                         _______ _______ _______ _____ _____    ______ ____
ROOT
ATOM      1  N   UNL     1       4.429   7.132  17.506  0.00  0.00    +0.000 N 
ATOM      2  H   UNL     1       4.728   7.427  18.442  0.00  0.00    +0.000 HD
ENDROOT
BRANCH   1   3
ATOM      3  C   UNL     1       5.332   6.214  16.952  0.00  0.00    +0.000 A 
ATOM      4  C   UNL     1       5.255   5.739  15.696  0.00  0.00    +0.000 A 
ATOM      5  C   UNL     1       6.296   4.758  15.264  0.00  0.00    +0.000 A 
ATOM      6  C   UNL     1       6.188   4.228  13.856  0.00  0.00    +0.000 C 
ATOM      7  N   UNL     1       7.274   4.328  16.003  0.00  0.00    +0.000 NA
ATOM      8  C   UNL     1       7.339   4.826  17.273  0.00  0.00    +0.000 A 
ATOM      9  N   UNL     1       8.213   4.562  18.220  0.00  0.00    +0.000 NA
ATOM     10  C   UNL     1       7.791   5.322  19.264  0.00  0.00    +0.000 A 
ATOM     11  N   UNL     1       6.695   6.054  19.053  0.00  0.00    +0.000 NA
ATOM     12  N   UNL     1       6.400   5.749  17.757  0.00  0.00    +0.000 N 
ENDBRANCH   1   3
BRANCH   1  13
ATOM     13  C   UNL     1       2.980   7.024  17.385  0.00  0.00    +0.000 C 
BRANCH  13  17
ATOM     14  C   UNL     1       1.458   3.850  19.902  0.00  0.00    +0.000 A 
ATOM     15  C   UNL     1       1.709   3.632  18.549  0.00  0.00    +0.000 A 
ATOM     16  C   UNL     1       2.177   4.669  17.741  0.00  0.00    +0.000 A 
ATOM     17  C   UNL     1       2.430   5.941  18.282  0.00  0.00    +0.000 A 
ATOM     18  C   UNL     1       2.183   6.161  19.649  0.00  0.00    +0.000 A 
ATOM     19  C   UNL     1       1.687   5.117  20.444  0.00  0.00    +0.000 A 
BRANCH  14  21
ATOM     20  C   UNL     1       1.563   2.530  21.880  0.00  0.00    +0.000 C 
ATOM     21  O   UNL     1       1.010   2.755  20.588  0.00  0.00    +0.000 OA
ENDBRANCH  14  21
BRANCH  18  22
ATOM     22  O   UNL     1       2.465   7.419  20.118  0.00  0.00    +0.000 OA
ATOM     23  C   UNL     1       1.421   8.112  20.795  0.00  0.00    +0.000 C 
ENDBRANCH  18  22
ENDBRANCH  13  17
ENDBRANCH   1  13
TORSDOF 5
ENDMDL
MODEL 5
REMARK VINA RESULT:      -6.9      1.452      1.627
REMARK  Name = 
REMARK  8 active torsions:
REMARK  status: ('A' for Active; 'I' for Inactive)
REMARK    1  A    between atoms: C_1  and  O_2
REMARK    2  A    between atoms: O_2  and  C_3
REMARK    3  A    between atoms: C_6  and  C_7
REMARK    4  A    between atoms: C_7  and  N_8
REMARK    5  A    between atoms: N_8  and  C_9
REMARK    6  A    between atoms: C_11  and  C_12
REMARK    7  A    between atoms: C_19  and  O_20
REMARK    8  A    between atoms: O_20  and  C_21
REMARK                            x       y       z     vdW  Elec       q    Type
REMARK                         _______ _______ _______ _____ _____    ______ ____
ROOT
ATOM      1  N   UNL     1       5.609   3.649  18.713  0.00  0.00    +0.000 N 
ATOM      2  H   UNL     1       6.380   3.088  19.091  0.00  0.00    +0.000 HD
ENDROOT
BRANCH   1   3
ATOM      3  C   UNL     1       5.972   4.258  17.504  0.00  0.00    +0.000 A 
ATOM      4  C   UNL     1       5.665   3.773  16.288  0.00  0.00    +0.000 A 
ATOM      5  C   UNL     1       6.135   4.543  15.097  0.00  0.00    +0.000 A 
ATOM      6  C   UNL     1       5.790   3.978  13.742  0.00  0.00    +0.000 C 
ATOM      7  N   UNL     1       6.818   5.648  15.141  0.00  0.00    +0.000 NA
ATOM      8  C   UNL     1       7.116   6.128  16.384  0.00  0.00    +0.000 A 
ATOM      9  N   UNL     1       7.788   7.211  16.711  0.00  0.00    +0.000 NA
ATOM     10  C   UNL     1       7.787   7.187  18.070  0.00  0.00    +0.000 A 
ATOM     11  N   UNL     1       7.164   6.153  18.639  0.00  0.00    +0.000 NA
ATOM     12  N   UNL     1       6.713   5.465  17.551  0.00  0.00    +0.000 N 
ENDBRANCH   1   3
BRANCH   1  13
ATOM     13  C   UNL     1       4.302   3.055  18.966  0.00  0.00    +0.000 C 
BRANCH  13  17
ATOM     14  C   UNL     1       1.576   6.021  20.545  0.00  0.00    +0.000 A 
ATOM     15  C   UNL     1       2.838   6.385  20.080  0.00  0.00    +0.000 A 
ATOM     16  C   UNL     1       3.718   5.417  19.594  0.00  0.00    +0.000 A 
ATOM     17  C   UNL     1       3.339   4.065  19.541  0.00  0.00    +0.000 A 
ATOM     18  C   UNL     1       2.063   3.697  20.005  0.00  0.00    +0.000 A 
ATOM     19  C   UNL     1       1.198   4.676  20.515  0.00  0.00    +0.000 A 
BRANCH  14  21
ATOM     20  C   UNL     1       1.424   8.339  21.066  0.00  0.00    +0.000 C 
ATOM     21  O   UNL     1       0.804   7.059  20.988  0.00  0.00    +0.000 OA
ENDBRANCH  14  21
BRANCH  18  22
ATOM     22  O   UNL     1       1.748   2.364  19.910  0.00  0.00    +0.000 OA
ATOM     23  C   UNL     1       0.752   1.997  18.961  0.00  0.00    +0.000 C 
ENDBRANCH  18  22
ENDBRANCH  13  17
ENDBRANCH   1  13
TORSDOF 5
ENDMDL
MODEL 6
REMARK VINA RESULT:      -6.8      2.851      5.802
REMARK  Name = 
REMARK  8 active torsions:
REMARK  status: ('A' for Active; 'I' for Inactive)
REMARK    1  A    between atoms: C_1  and  O_2
REMARK    2  A    between atoms: O_2  and  C_3
REMARK    3  A    between atoms: C_6  and  C_7
REMARK    4  A    between atoms: C_7  and  N_8
REMARK    5  A    between atoms: N_8  and  C_9
REMARK    6  A    between atoms: C_11  and  C_12
REMARK    7  A    between atoms: C_19  and  O_20
REMARK    8  A    between atoms: O_20  and  C_21
REMARK                            x       y       z     vdW  Elec       q    Type
REMARK                         _______ _______ _______ _____ _____    ______ ____
ROOT
ATOM      1  N   UNL     1       3.348   4.005  17.236  0.00  0.00    +0.000 N 
ATOM      2  H   UNL     1       2.671   3.302  16.919  0.00  0.00    +0.000 HD
ENDROOT
BRANCH   1   3
ATOM      3  C   UNL     1       2.859   4.717  18.340  0.00  0.00    +0.000 A 
ATOM      4  C   UNL     1       2.594   6.036  18.335  0.00  0.00    +0.000 A 
ATOM      5  C   UNL     1       2.085   6.642  19.602  0.00  0.00    +0.000 A 
ATOM      6  C   UNL     1       1.802   8.124  19.580  0.00  0.00    +0.000 C 
ATOM      7  N   UNL     1       1.875   5.998  20.710  0.00  0.00    +0.000 NA
ATOM      8  C   UNL     1       2.145   4.660  20.695  0.00  0.00    +0.000 A 
ATOM      9  N   UNL     1       2.026   3.782  21.667  0.00  0.00    +0.000 NA
ATOM     10  C   UNL     1       2.440   2.619  21.099  0.00  0.00    +0.000 A 
ATOM     11  N   UNL     1       2.827   2.693  19.824  0.00  0.00    +0.000 NA
ATOM     12  N   UNL     1       2.627   4.014  19.547  0.00  0.00    +0.000 N 
ENDBRANCH   1   3
BRANCH   1  13
ATOM     13  C   UNL     1       4.729   3.560  17.100  0.00  0.00    +0.000 C 
BRANCH  13  17
ATOM     14  C   UNL     1       7.562   6.661  18.137  0.00  0.00    +0.000 A 
ATOM     15  C   UNL     1       7.122   5.747  19.091  0.00  0.00    +0.000 A 
ATOM     16  C   UNL     1       6.190   4.765  18.751  0.00  0.00    +0.000 A 
ATOM     17  C   UNL     1       5.701   4.664  17.438  0.00  0.00    +0.000 A 
ATOM     18  C   UNL     1       6.149   5.584  16.472  0.00  0.00    +0.000 A 
ATOM     19  C   UNL     1       7.066   6.582  16.834  0.00  0.00    +0.000 A 
BRANCH  14  21
ATOM     20  C   UNL     1       8.316   8.919  18.170  0.00  0.00    +0.000 C 
ATOM     21  O   UNL     1       8.480   7.569  18.590  0.00  0.00    +0.000 OA
ENDBRANCH  14  21
BRANCH  18  22
ATOM     22  O   UNL     1       5.646   5.421  15.206  0.00  0.00    +0.000 OA
ATOM     23  C   UNL     1       6.488   4.789  14.247  0.00  0.00    +0.000 C 
ENDBRANCH  18  22
ENDBRANCH  13  17
ENDBRANCH   1  13
TORSDOF 5
ENDMDL
MODEL 7
REMARK VINA RESULT:      -6.8      2.824      5.533
REMARK  Name = 
REMARK  8 active torsions:
REMARK  status: ('A' for Active; 'I' for Inactive)
REMARK    1  A    between atoms: C_1  and  O_2
REMARK    2  A    between atoms: O_2  and  C_3
REMARK    3  A    between atoms: C_6  and  C_7
REMARK    4  A    between atoms: C_7  and  N_8
REMARK    5  A    between atoms: N_8  and  C_9
REMARK    6  A    between atoms: C_11  and  C_12
REMARK    7  A    between atoms: C_19  and  O_20
REMARK    8  A    between atoms: O_20  and  C_21
REMARK                            x       y       z     vdW  Elec       q    Type
REMARK                         _______ _______ _______ _____ _____    ______ ____
ROOT
ATOM      1  N   UNL     1       2.782   7.106  19.889  0.00  0.00    +0.000 N 
ATOM      2  H   UNL     1       3.061   7.418  20.826  0.00  0.00    +0.000 HD
ENDROOT
BRANCH   1   3
ATOM      3  C   UNL     1       2.694   5.709  19.826  0.00  0.00    +0.000 A 
ATOM      4  C   UNL     1       2.088   4.945  20.752  0.00  0.00    +0.000 A 
ATOM      5  C   UNL     1       2.091   3.466  20.537  0.00  0.00    +0.000 A 
ATOM      6  C   UNL     1       1.416   2.624  21.591  0.00  0.00    +0.000 C 
ATOM      7  N   UNL     1       2.631   2.857  19.524  0.00  0.00    +0.000 NA
ATOM      8  C   UNL     1       3.236   3.650  18.591  0.00  0.00    +0.000 A 
ATOM      9  N   UNL     1       3.854   3.298  17.484  0.00  0.00    +0.000 NA
ATOM     10  C   UNL     1       4.266   4.482  16.960  0.00  0.00    +0.000 A 
ATOM     11  N   UNL     1       3.960   5.575  17.663  0.00  0.00    +0.000 NA
ATOM     12  N   UNL     1       3.279   5.045  18.720  0.00  0.00    +0.000 N 
ENDBRANCH   1   3
BRANCH   1  13
ATOM     13  C   UNL     1       1.833   8.012  19.253  0.00  0.00    +0.000 C 
BRANCH  13  17
ATOM     14  C   UNL     1      -0.237  10.354  22.245  0.00  0.00    +0.000 A 
ATOM     15  C   UNL     1       0.601   9.303  22.613  0.00  0.00    +0.000 A 
ATOM     16  C   UNL     1       1.246   8.540  21.639  0.00  0.00    +0.000 A 
ATOM     17  C   UNL     1       1.083   8.832  20.274  0.00  0.00    +0.000 A 
ATOM     18  C   UNL     1       0.241   9.896  19.901  0.00  0.00    +0.000 A 
ATOM     19  C   UNL     1      -0.422  10.639  20.890  0.00  0.00    +0.000 A 
BRANCH  14  21
ATOM     20  C   UNL     1      -1.532  12.213  22.976  0.00  0.00    +0.000 C 
ATOM     21  O   UNL     1      -0.804  11.031  23.290  0.00  0.00    +0.000 OA
ENDBRANCH  14  21
BRANCH  18  22
ATOM     22  O   UNL     1       0.137  10.140  18.555  0.00  0.00    +0.000 OA
ATOM     23  C   UNL     1      -1.174  10.290  18.019  0.00  0.00    +0.000 C 
ENDBRANCH  18  22
ENDBRANCH  13  17
ENDBRANCH   1  13
TORSDOF 5
ENDMDL
MODEL 8
REMARK VINA RESULT:      -6.7      3.006      5.889
REMARK  Name = 
REMARK  8 active torsions:
REMARK  status: ('A' for Active; 'I' for Inactive)
REMARK    1  A    between atoms: C_1  and  O_2
REMARK    2  A    between atoms: O_2  and  C_3
REMARK    3  A    between atoms: C_6  and  C_7
REMARK    4  A    between atoms: C_7  and  N_8
REMARK    5  A    between atoms: N_8  and  C_9
REMARK    6  A    between atoms: C_11  and  C_12
REMARK    7  A    between atoms: C_19  and  O_20
REMARK    8  A    between atoms: O_20  and  C_21
REMARK                            x       y       z     vdW  Elec       q    Type
REMARK                         _______ _______ _______ _____ _____    ______ ____
ROOT
ATOM      1  N   UNL     1       3.913   4.073  17.321  0.00  0.00    +0.000 N 
ATOM      2  H   UNL     1       3.334   3.459  16.738  0.00  0.00    +0.000 HD
ENDROOT
BRANCH   1   3
ATOM      3  C   UNL     1       3.266   4.389  18.523  0.00  0.00    +0.000 A 
ATOM      4  C   UNL     1       2.973   3.495  19.484  0.00  0.00    +0.000 A 
ATOM      5  C   UNL     1       2.271   3.997  20.703  0.00  0.00    +0.000 A 
ATOM      6  C   UNL     1       1.941   2.978  21.766  0.00  0.00    +0.000 C 
ATOM      7  N   UNL     1       1.920   5.231  20.913  0.00  0.00    +0.000 NA
ATOM      8  C   UNL     1       2.231   6.124  19.928  0.00  0.00    +0.000 A 
ATOM      9  N   UNL     1       1.992   7.418  19.882  0.00  0.00    +0.000 NA
ATOM     10  C   UNL     1       2.503   7.793  18.680  0.00  0.00    +0.000 A 
ATOM     11  N   UNL     1       3.048   6.821  17.944  0.00  0.00    +0.000 NA
ATOM     12  N   UNL     1       2.887   5.735  18.752  0.00  0.00    +0.000 N 
ENDBRANCH   1   3
BRANCH   1  13
ATOM     13  C   UNL     1       5.336   3.772  17.217  0.00  0.00    +0.000 C 
BRANCH  13  17
ATOM     14  C   UNL     1       7.825   7.151  18.268  0.00  0.00    +0.000 A 
ATOM     15  C   UNL     1       7.680   6.072  19.137  0.00  0.00    +0.000 A 
ATOM     16  C   UNL     1       6.856   4.998  18.798  0.00  0.00    +0.000 A 
ATOM     17  C   UNL     1       6.181   4.973  17.566  0.00  0.00    +0.000 A 
ATOM     18  C   UNL     1       6.331   6.059  16.685  0.00  0.00    +0.000 A 
ATOM     19  C   UNL     1       7.142   7.145  17.050  0.00  0.00    +0.000 A 
BRANCH  14  21
ATOM     20  C   UNL     1       8.474   9.440  18.168  0.00  0.00    +0.000 C 
ATOM     21  O   UNL     1       8.665   8.137  18.710  0.00  0.00    +0.000 OA
ENDBRANCH  14  21
BRANCH  18  22
ATOM     22  O   UNL     1       5.660   5.966  15.492  0.00  0.00    +0.000 OA
ATOM     23  C   UNL     1       6.205   5.097  14.504  0.00  0.00    +0.000 C 
ENDBRANCH  18  22
ENDBRANCH  13  17
ENDBRANCH   1  13
TORSDOF 5
ENDMDL
MODEL 9
REMARK VINA RESULT:      -6.7      1.503      1.892
REMARK  Name = 
REMARK  8 active torsions:
REMARK  status: ('A' for Active; 'I' for Inactive)
REMARK    1  A    between atoms: C_1  and  O_2
REMARK    2  A    between atoms: O_2  and  C_3
REMARK    3  A    between atoms: C_6  and  C_7
REMARK    4  A    between atoms: C_7  and  N_8
REMARK    5  A    between atoms: N_8  and  C_9
REMARK    6  A    between atoms: C_11  and  C_12
REMARK    7  A    between atoms: C_19  and  O_20
REMARK    8  A    between atoms: O_20  and  C_21
REMARK                            x       y       z     vdW  Elec       q    Type
REMARK                         _______ _______ _______ _____ _____    ______ ____
ROOT
ATOM      1  N   UNL     1       4.136   6.612  17.092  0.00  0.00    +0.000 N 
ATOM      2  H   UNL     1       4.439   7.524  17.451  0.00  0.00    +0.000 HD
ENDROOT
BRANCH   1   3
ATOM      3  C   UNL     1       5.223   5.874  16.605  0.00  0.00    +0.000 A 
ATOM      4  C   UNL     1       5.357   5.474  15.328  0.00  0.00    +0.000 A 
ATOM      5  C   UNL     1       6.575   4.685  14.975  0.00  0.00    +0.000 A 
ATOM      6  C   UNL     1       6.703   4.237  13.540  0.00  0.00    +0.000 C 
ATOM      7  N   UNL     1       7.521   4.355  15.803  0.00  0.00    +0.000 NA
ATOM      8  C   UNL     1       7.370   4.774  17.094  0.00  0.00    +0.000 A 
ATOM      9  N   UNL     1       8.166   4.578  18.123  0.00  0.00    +0.000 NA
ATOM     10  C   UNL     1       7.521   5.200  19.146  0.00  0.00    +0.000 A 
ATOM     11  N   UNL     1       6.356   5.777  18.842  0.00  0.00    +0.000 NA
ATOM     12  N   UNL     1       6.255   5.517  17.507  0.00  0.00    +0.000 N 
ENDBRANCH   1   3
BRANCH   1  13
ATOM     13  C   UNL     1       3.041   6.037  17.865  0.00  0.00    +0.000 C 
BRANCH  13  17
ATOM     14  C   UNL     1       1.092   9.043  20.291  0.00  0.00    +0.000 A 
ATOM     15  C   UNL     1       1.427   9.302  18.963  0.00  0.00    +0.000 A 
ATOM     16  C   UNL     1       2.076   8.334  18.197  0.00  0.00    +0.000 A 
ATOM     17  C   UNL     1       2.379   7.074  18.740  0.00  0.00    +0.000 A 
ATOM     18  C   UNL     1       2.037   6.809  20.078  0.00  0.00    +0.000 A 
ATOM     19  C   UNL     1       1.408   7.801  20.846  0.00  0.00    +0.000 A 
BRANCH  14  21
ATOM     20  C   UNL     1      -0.179  11.049  20.118  0.00  0.00    +0.000 C 
ATOM     21  O   UNL     1       0.453  10.068  20.934  0.00  0.00    +0.000 OA
ENDBRANCH  14  21
BRANCH  18  22
ATOM     22  O   UNL     1       2.345   5.555  20.543  0.00  0.00    +0.000 OA
ATOM     23  C   UNL     1       1.295   4.593  20.568  0.00  0.00    +0.000 C 
ENDBRANCH  18  22
ENDBRANCH  13  17
ENDBRANCH   1  13
TORSDOF 5
ENDMDL
