MODEL 1
REMARK VINA RESULT:      -7.8      0.000      0.000
REMARK  Name = 
REMARK  10 active torsions:
REMARK  status: ('A' for Active; 'I' for Inactive)
REMARK    1  A    between atoms: C_1  and  O_2
REMARK    2  A    between atoms: O_2  and  C_3
REMARK    3  A    between atoms: C_7  and  C_8
REMARK    4  A    between atoms: N_9  and  N_10
REMARK    5  A    between atoms: C_11  and  C_13
REMARK    6  A    between atoms: C_13  and  S_14
REMARK    7  A    between atoms: S_14  and  C_15
REMARK    8  A    between atoms: C_18  and  C_19
REMARK    9  A    between atoms: N_20  and  C_21
REMARK   10  A    between atoms: C_27  and  O_28
REMARK                            x       y       z     vdW  Elec       q    Type
REMARK                         _______ _______ _______ _____ _____    ______ ____
ROOT
ATOM      1  N   UNL     1       7.496   7.535  17.173  0.00  0.00    +0.000 N 
ATOM      2  C   UNL     1       7.341   6.305  17.806  0.00  0.00    +0.000 C 
ATOM      3  O   UNL     1       7.761   6.047  18.935  0.00  0.00    +0.000 OA
ATOM      4  H   UNL     1       6.928   7.776  16.361  0.00  0.00    +0.000 HD
ENDROOT
BRANCH   1   6
ATOM      5  C   UNL     1       7.947   9.732  17.540  0.00  0.00    +0.000 C 
ATOM      6  N   UNL     1       8.187   8.498  17.829  0.00  0.00    +0.000 NA
BRANCH   5  11
ATOM      7  C   UNL     1       9.326  13.127  18.570  0.00  0.00    +0.000 A 
ATOM      8  C   UNL     1      10.135  12.726  19.643  0.00  0.00    +0.000 A 
ATOM      9  C   UNL     1      10.224  11.386  20.025  0.00  0.00    +0.000 A 
ATOM     10  C   UNL     1       9.502  10.415  19.334  0.00  0.00    +0.000 A 
ATOM     11  C   UNL     1       8.691  10.795  18.259  0.00  0.00    +0.000 A 
ATOM     12  C   UNL     1       8.596  12.152  17.876  0.00  0.00    +0.000 A 
BRANCH   7  14
ATOM     13  C   UNL     1      10.454  15.000  17.589  0.00  0.00    +0.000 C 
ATOM     14  O   UNL     1       9.370  14.478  18.345  0.00  0.00    +0.000 OA
ENDBRANCH   7  14
BRANCH  12  15
ATOM     15  O   UNL     1       7.795  12.529  16.826  0.00  0.00    +0.000 OA
ATOM     16  H   UNL     1       7.577  13.486  16.907  0.00  0.00    +0.000 HD
ENDBRANCH  12  15
ENDBRANCH   5  11
ENDBRANCH   1   6
BRANCH   2  17
ATOM     17  C   UNL     1       6.617   5.271  16.971  0.00  0.00    +0.000 C 
BRANCH  17  18
ATOM     18  S   UNL     1       5.199   5.982  16.099  0.00  0.00    +0.000 S 
BRANCH  18  19
ATOM     19  C   UNL     1       4.174   6.486  17.406  0.00  0.00    +0.000 A 
ATOM     20  N   UNL     1       3.882   7.745  17.646  0.00  0.00    +0.000 NA
ATOM     21  N   UNL     1       2.914   7.770  18.608  0.00  0.00    +0.000 NA
ATOM     22  C   UNL     1       2.626   6.526  18.947  0.00  0.00    +0.000 A 
ATOM     23  C   UNL     1       1.694   6.161  20.046  0.00  0.00    +0.000 C 
ATOM     24  N   UNL     1       3.432   5.643  18.223  0.00  0.00    +0.000 N 
BRANCH  24  25
ATOM     25  C   UNL     1       3.511   4.224  18.361  0.00  0.00    +0.000 A 
ATOM     26  C   UNL     1       2.741   3.375  17.550  0.00  0.00    +0.000 A 
ATOM     27  C   UNL     1       2.768   1.993  17.744  0.00  0.00    +0.000 A 
ATOM     28  C   UNL     1       3.582   1.438  18.726  0.00  0.00    +0.000 A 
ATOM     29  C   UNL     1       4.374   2.266  19.514  0.00  0.00    +0.000 A 
ATOM     30  C   UNL     1       4.331   3.652  19.343  0.00  0.00    +0.000 A 
ENDBRANCH  24  25
ENDBRANCH  18  19
ENDBRANCH  17  18
ENDBRANCH   2  17
TORSDOF 8
ENDMDL
MODEL 2
REMARK VINA RESULT:      -7.8      1.426      1.523
REMARK  Name = 
REMARK  10 active torsions:
REMARK  status: ('A' for Active; 'I' for Inactive)
REMARK    1  A    between atoms: C_1  and  O_2
REMARK    2  A    between atoms: O_2  and  C_3
REMARK    3  A    between atoms: C_7  and  C_8
REMARK    4  A    between atoms: N_9  and  N_10
REMARK    5  A    between atoms: C_11  and  C_13
REMARK    6  A    between atoms: C_13  and  S_14
REMARK    7  A    between atoms: S_14  and  C_15
REMARK    8  A    between atoms: C_18  and  C_19
REMARK    9  A    between atoms: N_20  and  C_21
REMARK   10  A    between atoms: C_27  and  O_28
REMARK                            x       y       z     vdW  Elec       q    Type
REMARK                         _______ _______ _______ _____ _____    ______ ____
ROOT
ATOM      1  N   UNL     1       7.707   7.570  17.329  0.00  0.00    +0.000 N 
ATOM      2  C   UNL     1       7.523   6.313  17.896  0.00  0.00    +0.000 C 
ATOM      3  O   UNL     1       7.787   6.033  19.066  0.00  0.00    +0.000 OA
ATOM      4  H   UNL     1       7.251   7.816  16.450  0.00  0.00    +0.000 HD
ENDROOT
BRANCH   1   6
ATOM      5  C   UNL     1       8.264   9.748  17.660  0.00  0.00    +0.000 C 
ATOM      6  N   UNL     1       8.247   8.538  18.107  0.00  0.00    +0.000 NA
BRANCH   5  11
ATOM      7  C   UNL     1       9.319  13.164  18.967  0.00  0.00    +0.000 A 
ATOM      8  C   UNL     1       9.980  12.764  20.137  0.00  0.00    +0.000 A 
ATOM      9  C   UNL     1      10.074  11.417  20.495  0.00  0.00    +0.000 A 
ATOM     10  C   UNL     1       9.507  10.439  19.680  0.00  0.00    +0.000 A 
ATOM     11  C   UNL     1       8.845  10.819  18.507  0.00  0.00    +0.000 A 
ATOM     12  C   UNL     1       8.745  12.181  18.149  0.00  0.00    +0.000 A 
BRANCH   7  14
ATOM     13  C   UNL     1       9.393  15.356  19.935  0.00  0.00    +0.000 C 
ATOM     14  O   UNL     1       9.333  14.522  18.785  0.00  0.00    +0.000 OA
ENDBRANCH   7  14
BRANCH  12  15
ATOM     15  O   UNL     1       8.090  12.558  17.001  0.00  0.00    +0.000 OA
ATOM     16  H   UNL     1       7.247  12.056  16.925  0.00  0.00    +0.000 HD
ENDBRANCH  12  15
ENDBRANCH   5  11
ENDBRANCH   1   6
BRANCH   2  17
ATOM     17  C   UNL     1       6.978   5.279  16.934  0.00  0.00    +0.000 C 
BRANCH  17  18
ATOM     18  S   UNL     1       5.413   4.578  17.513  0.00  0.00    +0.000 S 
BRANCH  18  19
ATOM     19  C   UNL     1       4.430   5.993  17.726  0.00  0.00    +0.000 A 
ATOM     20  N   UNL     1       4.717   7.155  17.184  0.00  0.00    +0.000 NA
ATOM     21  N   UNL     1       3.651   7.982  17.390  0.00  0.00    +0.000 NA
ATOM     22  C   UNL     1       2.725   7.317  18.057  0.00  0.00    +0.000 A 
ATOM     23  C   UNL     1       1.465   7.927  18.558  0.00  0.00    +0.000 C 
ATOM     24  N   UNL     1       3.181   6.026  18.334  0.00  0.00    +0.000 N 
BRANCH  24  25
ATOM     25  C   UNL     1       2.534   5.023  19.118  0.00  0.00    +0.000 A 
ATOM     26  C   UNL     1       1.647   4.107  18.530  0.00  0.00    +0.000 A 
ATOM     27  C   UNL     1       0.961   3.180  19.317  0.00  0.00    +0.000 A 
ATOM     28  C   UNL     1       1.173   3.134  20.692  0.00  0.00    +0.000 A 
ATOM     29  C   UNL     1       2.073   4.015  21.281  0.00  0.00    +0.000 A 
ATOM     30  C   UNL     1       2.743   4.963  20.502  0.00  0.00    +0.000 A 
ENDBRANCH  24  25
ENDBRANCH  18  19
ENDBRANCH  17  18
ENDBRANCH   2  17
TORSDOF 8
ENDMDL
MODEL 3
REMARK VINA RESULT:      -7.6      2.058      3.476
REMARK  Name = 
REMARK  10 active torsions:
REMARK  status: ('A' for Active; 'I' for Inactive)
REMARK    1  A    between atoms: C_1  and  O_2
REMARK    2  A    between atoms: O_2  and  C_3
REMARK    3  A    between atoms: C_7  and  C_8
REMARK    4  A    between atoms: N_9  and  N_10
REMARK    5  A    between atoms: C_11  and  C_13
REMARK    6  A    between atoms: C_13  and  S_14
REMARK    7  A    between atoms: S_14  and  C_15
REMARK    8  A    between atoms: C_18  and  C_19
REMARK    9  A    between atoms: N_20  and  C_21
REMARK   10  A    between atoms: C_27  and  O_28
REMARK                            x       y       z     vdW  Elec       q    Type
REMARK                         _______ _______ _______ _____ _____    ______ ____
ROOT
ATOM      1  N   UNL     1       7.988   7.422  18.234  0.00  0.00    +0.000 N 
ATOM      2  C   UNL     1       6.957   6.989  17.406  0.00  0.00    +0.000 C 
ATOM      3  O   UNL     1       6.382   7.703  16.583  0.00  0.00    +0.000 OA
ATOM      4  H   UNL     1       8.589   6.748  18.711  0.00  0.00    +0.000 HD
ENDROOT
BRANCH   1   6
ATOM      5  C   UNL     1       9.003   9.240  19.144  0.00  0.00    +0.000 C 
ATOM      6  N   UNL     1       8.356   8.723  18.155  0.00  0.00    +0.000 NA
BRANCH   5  11
ATOM      7  C   UNL     1       9.945  12.800  20.106  0.00  0.00    +0.000 A 
ATOM      8  C   UNL     1      10.182  13.325  18.827  0.00  0.00    +0.000 A 
ATOM      9  C   UNL     1      10.045  12.538  17.682  0.00  0.00    +0.000 A 
ATOM     10  C   UNL     1       9.662  11.203  17.796  0.00  0.00    +0.000 A 
ATOM     11  C   UNL     1       9.419  10.662  19.063  0.00  0.00    +0.000 A 
ATOM     12  C   UNL     1       9.564  11.457  20.222  0.00  0.00    +0.000 A 
BRANCH   7  14
ATOM     13  C   UNL     1      10.851  14.909  20.799  0.00  0.00    +0.000 C 
ATOM     14  O   UNL     1      10.128  13.723  21.103  0.00  0.00    +0.000 OA
ENDBRANCH   7  14
BRANCH  12  15
ATOM     15  O   UNL     1       9.333  10.927  21.469  0.00  0.00    +0.000 OA
ATOM     16  H   UNL     1       9.189  11.657  22.114  0.00  0.00    +0.000 HD
ENDBRANCH  12  15
ENDBRANCH   5  11
ENDBRANCH   1   6
BRANCH   2  17
ATOM     17  C   UNL     1       6.569   5.541  17.612  0.00  0.00    +0.000 C 
BRANCH  17  18
ATOM     18  S   UNL     1       6.148   5.195  19.338  0.00  0.00    +0.000 S 
BRANCH  18  19
ATOM     19  C   UNL     1       4.765   4.157  19.182  0.00  0.00    +0.000 A 
ATOM     20  N   UNL     1       4.846   2.845  19.200  0.00  0.00    +0.000 NA
ATOM     21  N   UNL     1       3.575   2.353  19.250  0.00  0.00    +0.000 NA
ATOM     22  C   UNL     1       2.730   3.369  19.261  0.00  0.00    +0.000 A 
ATOM     23  C   UNL     1       1.252   3.219  19.201  0.00  0.00    +0.000 C 
ATOM     24  N   UNL     1       3.439   4.571  19.189  0.00  0.00    +0.000 N 
BRANCH  24  25
ATOM     25  C   UNL     1       2.906   5.890  19.074  0.00  0.00    +0.000 A 
ATOM     26  C   UNL     1       3.049   6.626  17.886  0.00  0.00    +0.000 A 
ATOM     27  C   UNL     1       2.592   7.943  17.809  0.00  0.00    +0.000 A 
ATOM     28  C   UNL     1       1.961   8.531  18.901  0.00  0.00    +0.000 A 
ATOM     29  C   UNL     1       1.785   7.802  20.071  0.00  0.00    +0.000 A 
ATOM     30  C   UNL     1       2.264   6.492  20.164  0.00  0.00    +0.000 A 
ENDBRANCH  24  25
ENDBRANCH  18  19
ENDBRANCH  17  18
ENDBRANCH   2  17
TORSDOF 8
ENDMDL
MODEL 4
REMARK VINA RESULT:      -7.6      1.605      3.320
REMARK  Name = 
REMARK  10 active torsions:
REMARK  status: ('A' for Active; 'I' for Inactive)
REMARK    1  A    between atoms: C_1  and  O_2
REMARK    2  A    between atoms: O_2  and  C_3
REMARK    3  A    between atoms: C_7  and  C_8
REMARK    4  A    between atoms: N_9  and  N_10
REMARK    5  A    between atoms: C_11  and  C_13
REMARK    6  A    between atoms: C_13  and  S_14
REMARK    7  A    between atoms: S_14  and  C_15
REMARK    8  A    between atoms: C_18  and  C_19
REMARK    9  A    between atoms: N_20  and  C_21
REMARK   10  A    between atoms: C_27  and  O_28
REMARK                            x       y       z     vdW  Elec       q    Type
REMARK                         _______ _______ _______ _____ _____    ______ ____
ROOT
ATOM      1  N   UNL     1       7.506   8.114  17.435  0.00  0.00    +0.000 N 
ATOM      2  C   UNL     1       7.484   6.828  17.967  0.00  0.00    +0.000 C 
ATOM      3  O   UNL     1       8.181   6.455  18.912  0.00  0.00    +0.000 OA
ATOM      4  H   UNL     1       6.749   8.440  16.833  0.00  0.00    +0.000 HD
ENDROOT
BRANCH   1   6
ATOM      5  C   UNL     1       8.121  10.260  17.860  0.00  0.00    +0.000 C 
ATOM      6  N   UNL     1       8.379   9.001  17.968  0.00  0.00    +0.000 NA
BRANCH   5  11
ATOM      7  C   UNL     1      10.047  13.468  18.558  0.00  0.00    +0.000 A 
ATOM      8  C   UNL     1      10.881  13.011  19.589  0.00  0.00    +0.000 A 
ATOM      9  C   UNL     1      10.814  11.694  20.049  0.00  0.00    +0.000 A 
ATOM     10  C   UNL     1       9.906  10.804  19.479  0.00  0.00    +0.000 A 
ATOM     11  C   UNL     1       9.066  11.240  18.449  0.00  0.00    +0.000 A 
ATOM     12  C   UNL     1       9.131  12.574  17.988  0.00  0.00    +0.000 A 
BRANCH   7  14
ATOM     13  C   UNL     1       9.487  15.772  18.912  0.00  0.00    +0.000 C 
ATOM     14  O   UNL     1      10.261  14.785  18.243  0.00  0.00    +0.000 OA
ENDBRANCH   7  14
BRANCH  12  15
ATOM     15  O   UNL     1       8.303  13.008  16.981  0.00  0.00    +0.000 OA
ATOM     16  H   UNL     1       7.743  12.260  16.671  0.00  0.00    +0.000 HD
ENDBRANCH  12  15
ENDBRANCH   5  11
ENDBRANCH   1   6
BRANCH   2  17
ATOM     17  C   UNL     1       6.527   5.889  17.265  0.00  0.00    +0.000 C 
BRANCH  17  18
ATOM     18  S   UNL     1       4.895   6.637  17.035  0.00  0.00    +0.000 S 
BRANCH  18  19
ATOM     19  C   UNL     1       3.871   5.587  17.963  0.00  0.00    +0.000 A 
ATOM     20  N   UNL     1       4.065   4.290  18.053  0.00  0.00    +0.000 NA
ATOM     21  N   UNL     1       3.210   3.808  19.001  0.00  0.00    +0.000 NA
ATOM     22  C   UNL     1       2.500   4.816  19.478  0.00  0.00    +0.000 A 
ATOM     23  C   UNL     1       1.388   4.658  20.451  0.00  0.00    +0.000 C 
ATOM     24  N   UNL     1       2.861   5.996  18.823  0.00  0.00    +0.000 N 
BRANCH  24  25
ATOM     25  C   UNL     1       2.267   7.287  18.967  0.00  0.00    +0.000 A 
ATOM     26  C   UNL     1       1.864   7.761  20.226  0.00  0.00    +0.000 A 
ATOM     27  C   UNL     1       1.216   8.992  20.345  0.00  0.00    +0.000 A 
ATOM     28  C   UNL     1       0.989   9.777  19.220  0.00  0.00    +0.000 A 
ATOM     29  C   UNL     1       1.413   9.333  17.972  0.00  0.00    +0.000 A 
ATOM     30  C   UNL     1       2.038   8.091  17.842  0.00  0.00    +0.000 A 
ENDBRANCH  24  25
ENDBRANCH  18  19
ENDBRANCH  17  18
ENDBRANCH   2  17
TORSDOF 8
ENDMDL
MODEL 5
REMARK VINA RESULT:      -7.5      5.726      9.399
REMARK  Name = 
REMARK  10 active torsions:
REMARK  status: ('A' for Active; 'I' for Inactive)
REMARK    1  A    between atoms: C_1  and  O_2
REMARK    2  A    between atoms: O_2  and  C_3
REMARK    3  A    between atoms: C_7  and  C_8
REMARK    4  A    between atoms: N_9  and  N_10
REMARK    5  A    between atoms: C_11  and  C_13
REMARK    6  A    between atoms: C_13  and  S_14
REMARK    7  A    between atoms: S_14  and  C_15
REMARK    8  A    between atoms: C_18  and  C_19
REMARK    9  A    between atoms: N_20  and  C_21
REMARK   10  A    between atoms: C_27  and  O_28
REMARK                            x       y       z     vdW  Elec       q    Type
REMARK                         _______ _______ _______ _____ _____    ______ ____
ROOT
ATOM      1  N   UNL     1       1.397   8.483  21.365  0.00  0.00    +0.000 N 
ATOM      2  C   UNL     1       0.143   8.832  21.858  0.00  0.00    +0.000 C 
ATOM      3  O   UNL     1      -0.900   8.233  21.591  0.00  0.00    +0.000 OA
ATOM      4  H   UNL     1       2.246   8.844  21.801  0.00  0.00    +0.000 HD
ENDROOT
BRANCH   1   6
ATOM      5  C   UNL     1       1.718   6.267  20.981  0.00  0.00    +0.000 C 
ATOM      6  N   UNL     1       1.467   7.439  20.505  0.00  0.00    +0.000 NA
BRANCH   5  11
ATOM      7  C   UNL     1       2.620   4.047  18.023  0.00  0.00    +0.000 A 
ATOM      8  C   UNL     1       1.846   2.922  18.341  0.00  0.00    +0.000 A 
ATOM      9  C   UNL     1       1.055   2.884  19.492  0.00  0.00    +0.000 A 
ATOM     10  C   UNL     1       1.024   3.981  20.350  0.00  0.00    +0.000 A 
ATOM     11  C   UNL     1       1.788   5.114  20.049  0.00  0.00    +0.000 A 
ATOM     12  C   UNL     1       2.591   5.149  18.888  0.00  0.00    +0.000 A 
BRANCH   7  14
ATOM     13  C   UNL     1       4.713   3.609  16.940  0.00  0.00    +0.000 C 
ATOM     14  O   UNL     1       3.324   3.897  16.856  0.00  0.00    +0.000 OA
ENDBRANCH   7  14
BRANCH  12  15
ATOM     15  O   UNL     1       3.348   6.257  18.592  0.00  0.00    +0.000 OA
ATOM     16  H   UNL     1       3.387   6.378  17.616  0.00  0.00    +0.000 HD
ENDBRANCH  12  15
ENDBRANCH   5  11
ENDBRANCH   1   6
BRANCH   2  17
ATOM     17  C   UNL     1       0.153  10.050  22.756  0.00  0.00    +0.000 C 
BRANCH  17  18
ATOM     18  S   UNL     1      -0.818  11.410  22.059  0.00  0.00    +0.000 S 
BRANCH  18  19
ATOM     19  C   UNL     1       0.352  12.235  21.076  0.00  0.00    +0.000 A 
ATOM     20  N   UNL     1       1.320  12.968  21.577  0.00  0.00    +0.000 NA
ATOM     21  N   UNL     1       2.157  13.304  20.553  0.00  0.00    +0.000 NA
ATOM     22  C   UNL     1       1.689  12.774  19.437  0.00  0.00    +0.000 A 
ATOM     23  C   UNL     1       2.278  13.017  18.093  0.00  0.00    +0.000 C 
ATOM     24  N   UNL     1       0.500  12.090  19.703  0.00  0.00    +0.000 N 
BRANCH  24  25
ATOM     25  C   UNL     1      -0.374  11.465  18.763  0.00  0.00    +0.000 A 
ATOM     26  C   UNL     1      -1.497  12.141  18.260  0.00  0.00    +0.000 A 
ATOM     27  C   UNL     1      -2.387  11.495  17.401  0.00  0.00    +0.000 A 
ATOM     28  C   UNL     1      -2.155  10.181  17.008  0.00  0.00    +0.000 A 
ATOM     29  C   UNL     1      -1.028   9.511  17.474  0.00  0.00    +0.000 A 
ATOM     30  C   UNL     1      -0.147  10.144  18.355  0.00  0.00    +0.000 A 
ENDBRANCH  24  25
ENDBRANCH  18  19
ENDBRANCH  17  18
ENDBRANCH   2  17
TORSDOF 8
ENDMDL
MODEL 6
REMARK VINA RESULT:      -7.4      1.470      3.028
REMARK  Name = 
REMARK  10 active torsions:
REMARK  status: ('A' for Active; 'I' for Inactive)
REMARK    1  A    between atoms: C_1  and  O_2
REMARK    2  A    between atoms: O_2  and  C_3
REMARK    3  A    between atoms: C_7  and  C_8
REMARK    4  A    between atoms: N_9  and  N_10
REMARK    5  A    between atoms: C_11  and  C_13
REMARK    6  A    between atoms: C_13  and  S_14
REMARK    7  A    between atoms: S_14  and  C_15
REMARK    8  A    between atoms: C_18  and  C_19
REMARK    9  A    between atoms: N_20  and  C_21
REMARK   10  A    between atoms: C_27  and  O_28
REMARK                            x       y       z     vdW  Elec       q    Type
REMARK                         _______ _______ _______ _____ _____    ______ ____
ROOT
ATOM      1  N   UNL     1       7.620   8.121  17.423  0.00  0.00    +0.000 N 
ATOM      2  C   UNL     1       7.731   6.999  18.239  0.00  0.00    +0.000 C 
ATOM      3  O   UNL     1       8.584   6.860  19.116  0.00  0.00    +0.000 OA
ATOM      4  H   UNL     1       6.765   8.296  16.894  0.00  0.00    +0.000 HD
ENDROOT
BRANCH   1   6
ATOM      5  C   UNL     1       8.202  10.153  18.258  0.00  0.00    +0.000 C 
ATOM      6  N   UNL     1       8.535   9.107  17.580  0.00  0.00    +0.000 NA
BRANCH   5  11
ATOM      7  C   UNL     1      10.040  13.475  17.984  0.00  0.00    +0.000 A 
ATOM      8  C   UNL     1      11.126  13.203  18.829  0.00  0.00    +0.000 A 
ATOM      9  C   UNL     1      11.253  11.971  19.476  0.00  0.00    +0.000 A 
ATOM     10  C   UNL     1      10.290  10.983  19.285  0.00  0.00    +0.000 A 
ATOM     11  C   UNL     1       9.200  11.235  18.445  0.00  0.00    +0.000 A 
ATOM     12  C   UNL     1       9.069  12.482  17.795  0.00  0.00    +0.000 A 
BRANCH   7  14
ATOM     13  C   UNL     1      11.357  15.366  17.324  0.00  0.00    +0.000 C 
ATOM     14  O   UNL     1      10.090  14.732  17.439  0.00  0.00    +0.000 OA
ENDBRANCH   7  14
BRANCH  12  15
ATOM     15  O   UNL     1       7.997  12.735  16.974  0.00  0.00    +0.000 OA
ATOM     16  H   UNL     1       7.912  12.012  16.312  0.00  0.00    +0.000 HD
ENDBRANCH  12  15
ENDBRANCH   5  11
ENDBRANCH   1   6
BRANCH   2  17
ATOM     17  C   UNL     1       6.708   5.922  17.946  0.00  0.00    +0.000 C 
BRANCH  17  18
ATOM     18  S   UNL     1       5.406   6.513  16.835  0.00  0.00    +0.000 S 
BRANCH  18  19
ATOM     19  C   UNL     1       4.178   5.301  17.026  0.00  0.00    +0.000 A 
ATOM     20  N   UNL     1       4.295   4.080  16.554  0.00  0.00    +0.000 NA
ATOM     21  N   UNL     1       3.253   3.346  17.043  0.00  0.00    +0.000 NA
ATOM     22  C   UNL     1       2.509   4.128  17.806  0.00  0.00    +0.000 A 
ATOM     23  C   UNL     1       1.224   3.705  18.422  0.00  0.00    +0.000 C 
ATOM     24  N   UNL     1       3.040   5.421  17.813  0.00  0.00    +0.000 N 
BRANCH  24  25
ATOM     25  C   UNL     1       2.487   6.585  18.427  0.00  0.00    +0.000 A 
ATOM     26  C   UNL     1       2.169   7.721  17.666  0.00  0.00    +0.000 A 
ATOM     27  C   UNL     1       1.700   8.881  18.286  0.00  0.00    +0.000 A 
ATOM     28  C   UNL     1       1.514   8.914  19.664  0.00  0.00    +0.000 A 
ATOM     29  C   UNL     1       1.795   7.784  20.425  0.00  0.00    +0.000 A 
ATOM     30  C   UNL     1       2.289   6.629  19.814  0.00  0.00    +0.000 A 
ENDBRANCH  24  25
ENDBRANCH  18  19
ENDBRANCH  17  18
ENDBRANCH   2  17
TORSDOF 8
ENDMDL
MODEL 7
REMARK VINA RESULT:      -7.3      2.043      3.371
REMARK  Name = 
REMARK  10 active torsions:
REMARK  status: ('A' for Active; 'I' for Inactive)
REMARK    1  A    between atoms: C_1  and  O_2
REMARK    2  A    between atoms: O_2  and  C_3
REMARK    3  A    between atoms: C_7  and  C_8
REMARK    4  A    between atoms: N_9  and  N_10
REMARK    5  A    between atoms: C_11  and  C_13
REMARK    6  A    between atoms: C_13  and  S_14
REMARK    7  A    between atoms: S_14  and  C_15
REMARK    8  A    between atoms: C_18  and  C_19
REMARK    9  A    between atoms: N_20  and  C_21
REMARK   10  A    between atoms: C_27  and  O_28
REMARK                            x       y       z     vdW  Elec       q    Type
REMARK                         _______ _______ _______ _____ _____    ______ ____
ROOT
ATOM      1  N   UNL     1       9.141   9.224  19.374  0.00  0.00    +0.000 N 
ATOM      2  C   UNL     1       8.345   8.567  18.440  0.00  0.00    +0.000 C 
ATOM      3  O   UNL     1       7.682   9.136  17.571  0.00  0.00    +0.000 OA
ATOM      4  H   UNL     1       9.851   8.715  19.901  0.00  0.00    +0.000 HD
ENDROOT
BRANCH   1   6
ATOM      5  C   UNL     1      10.287  11.177  19.186  0.00  0.00    +0.000 C 
ATOM      6  N   UNL     1       9.156  10.578  19.347  0.00  0.00    +0.000 NA
BRANCH   5  11
ATOM      7  C   UNL     1       9.423  14.797  18.389  0.00  0.00    +0.000 A 
ATOM      8  C   UNL     1      10.449  15.436  19.099  0.00  0.00    +0.000 A 
ATOM      9  C   UNL     1      11.394  14.708  19.825  0.00  0.00    +0.000 A 
ATOM     10  C   UNL     1      11.330  13.316  19.849  0.00  0.00    +0.000 A 
ATOM     11  C   UNL     1      10.315  12.660  19.145  0.00  0.00    +0.000 A 
ATOM     12  C   UNL     1       9.356  13.397  18.416  0.00  0.00    +0.000 A 
BRANCH   7  14
ATOM     13  C   UNL     1       7.472  16.189  18.441  0.00  0.00    +0.000 C 
ATOM     14  O   UNL     1       8.596  15.676  17.739  0.00  0.00    +0.000 OA
ENDBRANCH   7  14
BRANCH  12  15
ATOM     15  O   UNL     1       8.353  12.757  17.729  0.00  0.00    +0.000 OA
ATOM     16  H   UNL     1       8.654  11.854  17.475  0.00  0.00    +0.000 HD
ENDBRANCH  12  15
ENDBRANCH   5  11
ENDBRANCH   1   6
BRANCH   2  17
ATOM     17  C   UNL     1       8.337   7.061  18.590  0.00  0.00    +0.000 C 
BRANCH  17  18
ATOM     18  S   UNL     1       6.661   6.384  18.501  0.00  0.00    +0.000 S 
BRANCH  18  19
ATOM     19  C   UNL     1       6.574   5.822  16.861  0.00  0.00    +0.000 A 
ATOM     20  N   UNL     1       7.520   6.043  15.975  0.00  0.00    +0.000 NA
ATOM     21  N   UNL     1       7.225   5.309  14.863  0.00  0.00    +0.000 NA
ATOM     22  C   UNL     1       6.101   4.649  15.080  0.00  0.00    +0.000 A 
ATOM     23  C   UNL     1       5.409   3.829  14.051  0.00  0.00    +0.000 C 
ATOM     24  N   UNL     1       5.610   4.962  16.351  0.00  0.00    +0.000 N 
BRANCH  24  25
ATOM     25  C   UNL     1       4.375   4.546  16.933  0.00  0.00    +0.000 A 
ATOM     26  C   UNL     1       4.048   3.185  17.038  0.00  0.00    +0.000 A 
ATOM     27  C   UNL     1       2.806   2.790  17.540  0.00  0.00    +0.000 A 
ATOM     28  C   UNL     1       1.888   3.744  17.969  0.00  0.00    +0.000 A 
ATOM     29  C   UNL     1       2.213   5.094  17.900  0.00  0.00    +0.000 A 
ATOM     30  C   UNL     1       3.444   5.496  17.375  0.00  0.00    +0.000 A 
ENDBRANCH  24  25
ENDBRANCH  18  19
ENDBRANCH  17  18
ENDBRANCH   2  17
TORSDOF 8
ENDMDL
MODEL 8
REMARK VINA RESULT:      -7.2      0.730      1.236
REMARK  Name = 
REMARK  10 active torsions:
REMARK  status: ('A' for Active; 'I' for Inactive)
REMARK    1  A    between atoms: C_1  and  O_2
REMARK    2  A    between atoms: O_2  and  C_3
REMARK    3  A    between atoms: C_7  and  C_8
REMARK    4  A    between atoms: N_9  and  N_10
REMARK    5  A    between atoms: C_11  and  C_13
REMARK    6  A    between atoms: C_13  and  S_14
REMARK    7  A    between atoms: S_14  and  C_15
REMARK    8  A    between atoms: C_18  and  C_19
REMARK    9  A    between atoms: N_20  and  C_21
REMARK   10  A    between atoms: C_27  and  O_28
REMARK                            x       y       z     vdW  Elec       q    Type
REMARK                         _______ _______ _______ _____ _____    ______ ____
ROOT
ATOM      1  N   UNL     1       7.371   7.882  17.039  0.00  0.00    +0.000 N 
ATOM      2  C   UNL     1       7.267   6.626  17.629  0.00  0.00    +0.000 C 
ATOM      3  O   UNL     1       7.370   6.416  18.838  0.00  0.00    +0.000 OA
ATOM      4  H   UNL     1       7.037   8.038  16.087  0.00  0.00    +0.000 HD
ENDROOT
BRANCH   1   6
ATOM      5  C   UNL     1       8.760   9.558  17.689  0.00  0.00    +0.000 C 
ATOM      6  N   UNL     1       7.642   8.935  17.845  0.00  0.00    +0.000 NA
BRANCH   5  11
ATOM      7  C   UNL     1       8.954  13.100  19.068  0.00  0.00    +0.000 A 
ATOM      8  C   UNL     1       9.690  12.849  20.234  0.00  0.00    +0.000 A 
ATOM      9  C   UNL     1      10.108  11.559  20.567  0.00  0.00    +0.000 A 
ATOM     10  C   UNL     1       9.796  10.489  19.730  0.00  0.00    +0.000 A 
ATOM     11  C   UNL     1       9.063  10.720  18.560  0.00  0.00    +0.000 A 
ATOM     12  C   UNL     1       8.636  12.025  18.227  0.00  0.00    +0.000 A 
BRANCH   7  14
ATOM     13  C   UNL     1       7.569  14.959  19.682  0.00  0.00    +0.000 C 
ATOM     14  O   UNL     1       8.638  14.426  18.912  0.00  0.00    +0.000 OA
ENDBRANCH   7  14
BRANCH  12  15
ATOM     15  O   UNL     1       7.911  12.254  17.084  0.00  0.00    +0.000 OA
ATOM     16  H   UNL     1       7.805  13.225  16.951  0.00  0.00    +0.000 HD
ENDBRANCH  12  15
ENDBRANCH   5  11
ENDBRANCH   1   6
BRANCH   2  17
ATOM     17  C   UNL     1       7.031   5.501  16.643  0.00  0.00    +0.000 C 
BRANCH  17  18
ATOM     18  S   UNL     1       5.419   5.643  15.832  0.00  0.00    +0.000 S 
BRANCH  18  19
ATOM     19  C   UNL     1       4.439   6.354  17.076  0.00  0.00    +0.000 A 
ATOM     20  N   UNL     1       4.245   7.649  17.185  0.00  0.00    +0.000 NA
ATOM     21  N   UNL     1       3.285   7.846  18.135  0.00  0.00    +0.000 NA
ATOM     22  C   UNL     1       2.903   6.668  18.597  0.00  0.00    +0.000 A 
ATOM     23  C   UNL     1       1.949   6.489  19.722  0.00  0.00    +0.000 C 
ATOM     24  N   UNL     1       3.637   5.657  17.971  0.00  0.00    +0.000 N 
BRANCH  24  25
ATOM     25  C   UNL     1       3.607   4.258  18.252  0.00  0.00    +0.000 A 
ATOM     26  C   UNL     1       4.425   3.703  19.250  0.00  0.00    +0.000 A 
ATOM     27  C   UNL     1       4.444   2.324  19.466  0.00  0.00    +0.000 A 
ATOM     28  C   UNL     1       3.628   1.485  18.714  0.00  0.00    +0.000 A 
ATOM     29  C   UNL     1       2.789   2.026  17.745  0.00  0.00    +0.000 A 
ATOM     30  C   UNL     1       2.785   3.402  17.506  0.00  0.00    +0.000 A 
ENDBRANCH  24  25
ENDBRANCH  18  19
ENDBRANCH  17  18
ENDBRANCH   2  17
TORSDOF 8
ENDMDL
MODEL 9
REMARK VINA RESULT:      -7.2      1.745      3.212
REMARK  Name = 
REMARK  10 active torsions:
REMARK  status: ('A' for Active; 'I' for Inactive)
REMARK    1  A    between atoms: C_1  and  O_2
REMARK    2  A    between atoms: O_2  and  C_3
REMARK    3  A    between atoms: C_7  and  C_8
REMARK    4  A    between atoms: N_9  and  N_10
REMARK    5  A    between atoms: C_11  and  C_13
REMARK    6  A    between atoms: C_13  and  S_14
REMARK    7  A    between atoms: S_14  and  C_15
REMARK    8  A    between atoms: C_18  and  C_19
REMARK    9  A    between atoms: N_20  and  C_21
REMARK   10  A    between atoms: C_27  and  O_28
REMARK                            x       y       z     vdW  Elec       q    Type
REMARK                         _______ _______ _______ _____ _____    ______ ____
ROOT
ATOM      1  N   UNL     1       7.299   8.201  18.063  0.00  0.00    +0.000 N 
ATOM      2  C   UNL     1       7.235   7.107  17.205  0.00  0.00    +0.000 C 
ATOM      3  O   UNL     1       8.074   6.854  16.338  0.00  0.00    +0.000 OA
ATOM      4  H   UNL     1       6.730   8.231  18.910  0.00  0.00    +0.000 HD
ENDROOT
BRANCH   1   6
ATOM      5  C   UNL     1       8.247  10.228  18.454  0.00  0.00    +0.000 C 
ATOM      6  N   UNL     1       8.331   9.063  17.907  0.00  0.00    +0.000 NA
BRANCH   5  11
ATOM      7  C   UNL     1      10.293  13.311  17.560  0.00  0.00    +0.000 A 
ATOM      8  C   UNL     1      11.548  12.891  18.023  0.00  0.00    +0.000 A 
ATOM      9  C   UNL     1      11.723  11.639  18.617  0.00  0.00    +0.000 A 
ATOM     10  C   UNL     1      10.637  10.778  18.756  0.00  0.00    +0.000 A 
ATOM     11  C   UNL     1       9.377  11.178  18.299  0.00  0.00    +0.000 A 
ATOM     12  C   UNL     1       9.199  12.447  17.703  0.00  0.00    +0.000 A 
BRANCH   7  14
ATOM     13  C   UNL     1      11.572  15.233  16.915  0.00  0.00    +0.000 C 
ATOM     14  O   UNL     1      10.321  14.565  17.007  0.00  0.00    +0.000 OA
ENDBRANCH   7  14
BRANCH  12  15
ATOM     15  O   UNL     1       7.962  12.845  17.259  0.00  0.00    +0.000 OA
ATOM     16  H   UNL     1       7.754  12.388  16.412  0.00  0.00    +0.000 HD
ENDBRANCH  12  15
ENDBRANCH   5  11
ENDBRANCH   1   6
BRANCH   2  17
ATOM     17  C   UNL     1       6.013   6.237  17.408  0.00  0.00    +0.000 C 
BRANCH  17  18
ATOM     18  S   UNL     1       5.896   5.625  19.107  0.00  0.00    +0.000 S 
BRANCH  18  19
ATOM     19  C   UNL     1       4.537   4.547  19.020  0.00  0.00    +0.000 A 
ATOM     20  N   UNL     1       4.660   3.239  18.973  0.00  0.00    +0.000 NA
ATOM     21  N   UNL     1       3.413   2.701  19.106  0.00  0.00    +0.000 NA
ATOM     22  C   UNL     1       2.541   3.687  19.231  0.00  0.00    +0.000 A 
ATOM     23  C   UNL     1       1.069   3.488  19.288  0.00  0.00    +0.000 C 
ATOM     24  N   UNL     1       3.205   4.914  19.154  0.00  0.00    +0.000 N 
BRANCH  24  25
ATOM     25  C   UNL     1       2.623   6.218  19.141  0.00  0.00    +0.000 A 
ATOM     26  C   UNL     1       2.528   6.955  17.950  0.00  0.00    +0.000 A 
ATOM     27  C   UNL     1       2.027   8.258  17.961  0.00  0.00    +0.000 A 
ATOM     28  C   UNL     1       1.589   8.832  19.151  0.00  0.00    +0.000 A 
ATOM     29  C   UNL     1       1.649   8.100  20.332  0.00  0.00    +0.000 A 
ATOM     30  C   UNL     1       2.173   6.804  20.332  0.00  0.00    +0.000 A 
ENDBRANCH  24  25
ENDBRANCH  18  19
ENDBRANCH  17  18
ENDBRANCH   2  17
TORSDOF 8
ENDMDL
