MODEL 1
REMARK VINA RESULT:      -7.7      0.000      0.000
REMARK  Name = 
REMARK  7 active torsions:
REMARK  status: ('A' for Active; 'I' for Inactive)
REMARK    1  A    between atoms: C_1  and  C_2
REMARK    2  A    between atoms: C_2  and  N_3
REMARK    3  A    between atoms: N_3  and  C_4
REMARK    4  A    between atoms: N_3  and  C_6
REMARK    5  A    between atoms: C_4  and  C_5
REMARK    6  A    between atoms: C_9  and  C_10
REMARK    7  A    between atoms: C_11  and  C_12
REMARK                            x       y       z     vdW  Elec       q    Type
REMARK                         _______ _______ _______ _____ _____    ______ ____
ROOT
ATOM      1  C   UNL     1       2.738   6.905  18.683  0.00  0.00    +0.000 C 
ATOM      2  C   UNL     1       2.437   5.700  18.080  0.00  0.00    +0.000 C 
ENDROOT
BRANCH   2   3
ATOM      3  C   UNL     1       3.468   4.588  17.598  0.00  0.00    +0.000 A 
ATOM      4  C   UNL     1       3.510   3.524  18.477  0.00  0.00    +0.000 A 
ATOM      5  C   UNL     1       4.623   3.413  19.278  0.00  0.00    +0.000 A 
ATOM      6  N   UNL     1       5.762   4.068  19.033  0.00  0.00    +0.000 NA
ATOM      7  C   UNL     1       5.891   4.613  17.820  0.00  0.00    +0.000 A 
ATOM      8  C   UNL     1       7.194   4.625  17.337  0.00  0.00    +0.000 A 
ATOM      9  C   UNL     1       7.456   4.685  15.974  0.00  0.00    +0.000 A 
ATOM     10  C   UNL     1       6.394   4.753  15.088  0.00  0.00    +0.000 A 
ATOM     11  C   UNL     1       5.071   4.859  15.583  0.00  0.00    +0.000 A 
ATOM     12  C   UNL     1       4.767   4.831  16.996  0.00  0.00    +0.000 A 
ENDBRANCH   2   3
BRANCH   1  16
ATOM     13  C   UNL     1       0.251  10.463  20.119  0.00  0.00    +0.000 A 
ATOM     14  C   UNL     1       0.703  10.300  18.807  0.00  0.00    +0.000 A 
ATOM     15  C   UNL     1       1.509   9.193  18.324  0.00  0.00    +0.000 A 
ATOM     16  C   UNL     1       1.936   8.149  19.143  0.00  0.00    +0.000 A 
ATOM     17  C   UNL     1       1.517   8.314  20.489  0.00  0.00    +0.000 A 
ATOM     18  C   UNL     1       0.715   9.427  20.970  0.00  0.00    +0.000 A 
BRANCH  13  19
ATOM     19  N   UNL     1      -0.546  11.549  20.575  0.00  0.00    +0.000 N 
BRANCH  19  21
ATOM     20  C   UNL     1      -1.565  11.534  22.861  0.00  0.00    +0.000 C 
ATOM     21  C   UNL     1      -0.425  12.025  21.973  0.00  0.00    +0.000 C 
ENDBRANCH  19  21
BRANCH  19  22
ATOM     22  C   UNL     1      -1.271  12.429  19.612  0.00  0.00    +0.000 C 
ATOM     23  C   UNL     1      -2.678  11.995  19.158  0.00  0.00    +0.000 C 
ENDBRANCH  19  22
ENDBRANCH  13  19
ENDBRANCH   1  16
TORSDOF 5
ENDMDL
MODEL 2
REMARK VINA RESULT:      -7.6      0.868      1.116
REMARK  Name = 
REMARK  7 active torsions:
REMARK  status: ('A' for Active; 'I' for Inactive)
REMARK    1  A    between atoms: C_1  and  C_2
REMARK    2  A    between atoms: C_2  and  N_3
REMARK    3  A    between atoms: N_3  and  C_4
REMARK    4  A    between atoms: N_3  and  C_6
REMARK    5  A    between atoms: C_4  and  C_5
REMARK    6  A    between atoms: C_9  and  C_10
REMARK    7  A    between atoms: C_11  and  C_12
REMARK                            x       y       z     vdW  Elec       q    Type
REMARK                         _______ _______ _______ _____ _____    ______ ____
ROOT
ATOM      1  C   UNL     1       2.631   6.661  19.176  0.00  0.00    +0.000 C 
ATOM      2  C   UNL     1       2.396   5.714  18.198  0.00  0.00    +0.000 C 
ENDROOT
BRANCH   2   3
ATOM      3  C   UNL     1       3.410   4.601  17.683  0.00  0.00    +0.000 A 
ATOM      4  C   UNL     1       3.433   3.510  18.530  0.00  0.00    +0.000 A 
ATOM      5  C   UNL     1       4.543   3.356  19.328  0.00  0.00    +0.000 A 
ATOM      6  N   UNL     1       5.693   4.000  19.103  0.00  0.00    +0.000 NA
ATOM      7  C   UNL     1       5.833   4.579  17.907  0.00  0.00    +0.000 A 
ATOM      8  C   UNL     1       7.136   4.584  17.427  0.00  0.00    +0.000 A 
ATOM      9  C   UNL     1       7.401   4.682  16.066  0.00  0.00    +0.000 A 
ATOM     10  C   UNL     1       6.342   4.794  15.181  0.00  0.00    +0.000 A 
ATOM     11  C   UNL     1       5.020   4.907  15.679  0.00  0.00    +0.000 A 
ATOM     12  C   UNL     1       4.713   4.841  17.090  0.00  0.00    +0.000 A 
ENDBRANCH   2   3
BRANCH   1  16
ATOM     13  C   UNL     1       0.218  10.102  20.977  0.00  0.00    +0.000 A 
ATOM     14  C   UNL     1       0.666  10.065  19.654  0.00  0.00    +0.000 A 
ATOM     15  C   UNL     1       1.449   8.998  19.058  0.00  0.00    +0.000 A 
ATOM     16  C   UNL     1       1.855   7.867  19.764  0.00  0.00    +0.000 A 
ATOM     17  C   UNL     1       1.440   7.901  21.121  0.00  0.00    +0.000 A 
ATOM     18  C   UNL     1       0.662   8.974  21.716  0.00  0.00    +0.000 A 
BRANCH  13  19
ATOM     19  N   UNL     1      -0.556  11.151  21.545  0.00  0.00    +0.000 N 
BRANCH  19  21
ATOM     20  C   UNL     1      -2.323  11.921  23.141  0.00  0.00    +0.000 C 
ATOM     21  C   UNL     1      -1.128  11.003  22.904  0.00  0.00    +0.000 C 
ENDBRANCH  19  21
BRANCH  19  22
ATOM     22  C   UNL     1      -0.551  12.520  20.949  0.00  0.00    +0.000 C 
ATOM     23  C   UNL     1       0.657  13.429  21.246  0.00  0.00    +0.000 C 
ENDBRANCH  19  22
ENDBRANCH  13  19
ENDBRANCH   1  16
TORSDOF 5
ENDMDL
MODEL 3
REMARK VINA RESULT:      -7.6      1.813      3.234
REMARK  Name = 
REMARK  7 active torsions:
REMARK  status: ('A' for Active; 'I' for Inactive)
REMARK    1  A    between atoms: C_1  and  C_2
REMARK    2  A    between atoms: C_2  and  N_3
REMARK    3  A    between atoms: N_3  and  C_4
REMARK    4  A    between atoms: N_3  and  C_6
REMARK    5  A    between atoms: C_4  and  C_5
REMARK    6  A    between atoms: C_9  and  C_10
REMARK    7  A    between atoms: C_11  and  C_12
REMARK                            x       y       z     vdW  Elec       q    Type
REMARK                         _______ _______ _______ _____ _____    ______ ____
ROOT
ATOM      1  C   UNL     1       4.161   5.897  17.606  0.00  0.00    +0.000 C 
ATOM      2  C   UNL     1       4.055   4.851  16.711  0.00  0.00    +0.000 C 
ENDROOT
BRANCH   2   3
ATOM      3  C   UNL     1       5.250   4.086  15.989  0.00  0.00    +0.000 A 
ATOM      4  C   UNL     1       6.329   3.923  16.835  0.00  0.00    +0.000 A 
ATOM      5  C   UNL     1       7.433   4.710  16.604  0.00  0.00    +0.000 A 
ATOM      6  N   UNL     1       7.631   5.365  15.456  0.00  0.00    +0.000 NA
ATOM      7  C   UNL     1       6.869   5.004  14.421  0.00  0.00    +0.000 A 
ATOM      8  C   UNL     1       7.498   5.110  13.187  0.00  0.00    +0.000 A 
ATOM      9  C   UNL     1       7.078   4.356  12.098  0.00  0.00    +0.000 A 
ATOM     10  C   UNL     1       6.000   3.500  12.249  0.00  0.00    +0.000 A 
ATOM     11  C   UNL     1       5.285   3.480  13.472  0.00  0.00    +0.000 A 
ATOM     12  C   UNL     1       5.676   4.275  14.613  0.00  0.00    +0.000 A 
ENDBRANCH   2   3
BRANCH   1  16
ATOM     13  C   UNL     1       1.349   8.791  19.756  0.00  0.00    +0.000 A 
ATOM     14  C   UNL     1       1.762   7.563  20.280  0.00  0.00    +0.000 A 
ATOM     15  C   UNL     1       2.638   6.615  19.615  0.00  0.00    +0.000 A 
ATOM     16  C   UNL     1       3.169   6.831  18.345  0.00  0.00    +0.000 A 
ATOM     17  C   UNL     1       2.732   8.058  17.780  0.00  0.00    +0.000 A 
ATOM     18  C   UNL     1       1.850   9.001  18.446  0.00  0.00    +0.000 A 
BRANCH  13  19
ATOM     19  N   UNL     1       0.497   9.714  20.425  0.00  0.00    +0.000 N 
BRANCH  19  21
ATOM     20  C   UNL     1       1.004  12.163  20.520  0.00  0.00    +0.000 C 
ATOM     21  C   UNL     1       0.229  11.044  19.828  0.00  0.00    +0.000 C 
ENDBRANCH  19  21
BRANCH  19  22
ATOM     22  C   UNL     1      -0.385   9.274  21.545  0.00  0.00    +0.000 C 
ATOM     23  C   UNL     1       0.109   9.509  22.985  0.00  0.00    +0.000 C 
ENDBRANCH  19  22
ENDBRANCH  13  19
ENDBRANCH   1  16
TORSDOF 5
ENDMDL
MODEL 4
REMARK VINA RESULT:      -7.6      1.803      3.063
REMARK  Name = 
REMARK  7 active torsions:
REMARK  status: ('A' for Active; 'I' for Inactive)
REMARK    1  A    between atoms: C_1  and  C_2
REMARK    2  A    between atoms: C_2  and  N_3
REMARK    3  A    between atoms: N_3  and  C_4
REMARK    4  A    between atoms: N_3  and  C_6
REMARK    5  A    between atoms: C_4  and  C_5
REMARK    6  A    between atoms: C_9  and  C_10
REMARK    7  A    between atoms: C_11  and  C_12
REMARK                            x       y       z     vdW  Elec       q    Type
REMARK                         _______ _______ _______ _____ _____    ______ ____
ROOT
ATOM      1  C   UNL     1       4.097   6.006  17.613  0.00  0.00    +0.000 C 
ATOM      2  C   UNL     1       3.989   5.133  16.548  0.00  0.00    +0.000 C 
ENDROOT
BRANCH   2   3
ATOM      3  C   UNL     1       5.151   4.250  15.914  0.00  0.00    +0.000 A 
ATOM      4  C   UNL     1       6.192   4.071  16.804  0.00  0.00    +0.000 A 
ATOM      5  C   UNL     1       7.352   4.769  16.564  0.00  0.00    +0.000 A 
ATOM      6  N   UNL     1       7.627   5.337  15.385  0.00  0.00    +0.000 NA
ATOM      7  C   UNL     1       6.873   4.961  14.349  0.00  0.00    +0.000 A 
ATOM      8  C   UNL     1       7.544   4.948  13.133  0.00  0.00    +0.000 A 
ATOM      9  C   UNL     1       7.107   4.156  12.078  0.00  0.00    +0.000 A 
ATOM     10  C   UNL     1       5.971   3.383  12.244  0.00  0.00    +0.000 A 
ATOM     11  C   UNL     1       5.220   3.485  13.442  0.00  0.00    +0.000 A 
ATOM     12  C   UNL     1       5.630   4.324  14.545  0.00  0.00    +0.000 A 
ENDBRANCH   2   3
BRANCH   1  16
ATOM     13  C   UNL     1       1.209   8.832  19.752  0.00  0.00    +0.000 A 
ATOM     14  C   UNL     1       1.752   9.074  18.487  0.00  0.00    +0.000 A 
ATOM     15  C   UNL     1       2.685   8.207  17.790  0.00  0.00    +0.000 A 
ATOM     16  C   UNL     1       3.157   7.010  18.326  0.00  0.00    +0.000 A 
ATOM     17  C   UNL     1       2.645   6.764  19.627  0.00  0.00    +0.000 A 
ATOM     18  C   UNL     1       1.717   7.637  20.324  0.00  0.00    +0.000 A 
BRANCH  13  19
ATOM     19  N   UNL     1       0.289   9.688  20.418  0.00  0.00    +0.000 N 
BRANCH  19  21
ATOM     20  C   UNL     1      -1.463  10.319  18.746  0.00  0.00    +0.000 C 
ATOM     21  C   UNL     1      -0.358  10.800  19.683  0.00  0.00    +0.000 C 
ENDBRANCH  19  21
BRANCH  19  22
ATOM     22  C   UNL     1      -0.287   9.315  21.744  0.00  0.00    +0.000 C 
ATOM     23  C   UNL     1      -0.621  10.452  22.728  0.00  0.00    +0.000 C 
ENDBRANCH  19  22
ENDBRANCH  13  19
ENDBRANCH   1  16
TORSDOF 5
ENDMDL
MODEL 5
REMARK VINA RESULT:      -7.5      6.419      9.419
REMARK  Name = 
REMARK  7 active torsions:
REMARK  status: ('A' for Active; 'I' for Inactive)
REMARK    1  A    between atoms: C_1  and  C_2
REMARK    2  A    between atoms: C_2  and  N_3
REMARK    3  A    between atoms: N_3  and  C_4
REMARK    4  A    between atoms: N_3  and  C_6
REMARK    5  A    between atoms: C_4  and  C_5
REMARK    6  A    between atoms: C_9  and  C_10
REMARK    7  A    between atoms: C_11  and  C_12
REMARK                            x       y       z     vdW  Elec       q    Type
REMARK                         _______ _______ _______ _____ _____    ______ ____
ROOT
ATOM      1  C   UNL     1       8.777   8.801  18.511  0.00  0.00    +0.000 C 
ATOM      2  C   UNL     1       8.812  10.143  18.186  0.00  0.00    +0.000 C 
ENDROOT
BRANCH   2   3
ATOM      3  C   UNL     1       9.830  11.234  18.740  0.00  0.00    +0.000 A 
ATOM      4  C   UNL     1       9.800  11.297  20.119  0.00  0.00    +0.000 A 
ATOM      5  C   UNL     1       9.188  12.391  20.686  0.00  0.00    +0.000 A 
ATOM      6  N   UNL     1       8.918  13.508  20.002  0.00  0.00    +0.000 NA
ATOM      7  C   UNL     1       9.524  13.647  18.820  0.00  0.00    +0.000 A 
ATOM      8  C   UNL     1       9.830  14.961  18.489  0.00  0.00    +0.000 A 
ATOM      9  C   UNL     1      10.847  15.258  17.590  0.00  0.00    +0.000 A 
ATOM     10  C   UNL     1      11.550  14.220  17.003  0.00  0.00    +0.000 A 
ATOM     11  C   UNL     1      11.161  12.880  17.249  0.00  0.00    +0.000 A 
ATOM     12  C   UNL     1      10.087  12.538  18.154  0.00  0.00    +0.000 A 
ENDBRANCH   2   3
BRANCH   1  16
ATOM     13  C   UNL     1       5.905   5.372  17.563  0.00  0.00    +0.000 A 
ATOM     14  C   UNL     1       6.981   5.273  18.450  0.00  0.00    +0.000 A 
ATOM     15  C   UNL     1       7.920   6.336  18.758  0.00  0.00    +0.000 A 
ATOM     16  C   UNL     1       7.853   7.602  18.180  0.00  0.00    +0.000 A 
ATOM     17  C   UNL     1       6.787   7.713  17.248  0.00  0.00    +0.000 A 
ATOM     18  C   UNL     1       5.853   6.644  16.937  0.00  0.00    +0.000 A 
BRANCH  13  19
ATOM     19  N   UNL     1       4.988   4.323  17.279  0.00  0.00    +0.000 N 
BRANCH  19  21
ATOM     20  C   UNL     1       2.734   3.281  17.597  0.00  0.00    +0.000 C 
ATOM     21  C   UNL     1       3.921   3.985  18.251  0.00  0.00    +0.000 C 
ENDBRANCH  19  21
BRANCH  19  22
ATOM     22  C   UNL     1       4.864   3.760  15.902  0.00  0.00    +0.000 C 
ATOM     23  C   UNL     1       6.116   3.776  15.004  0.00  0.00    +0.000 C 
ENDBRANCH  19  22
ENDBRANCH  13  19
ENDBRANCH   1  16
TORSDOF 5
ENDMDL
MODEL 6
REMARK VINA RESULT:      -7.5      2.503      4.313
REMARK  Name = 
REMARK  7 active torsions:
REMARK  status: ('A' for Active; 'I' for Inactive)
REMARK    1  A    between atoms: C_1  and  C_2
REMARK    2  A    between atoms: C_2  and  N_3
REMARK    3  A    between atoms: N_3  and  C_4
REMARK    4  A    between atoms: N_3  and  C_6
REMARK    5  A    between atoms: C_4  and  C_5
REMARK    6  A    between atoms: C_9  and  C_10
REMARK    7  A    between atoms: C_11  and  C_12
REMARK                            x       y       z     vdW  Elec       q    Type
REMARK                         _______ _______ _______ _____ _____    ______ ____
ROOT
ATOM      1  C   UNL     1       1.096   8.021  21.163  0.00  0.00    +0.000 C 
ATOM      2  C   UNL     1       1.870   7.626  20.090  0.00  0.00    +0.000 C 
ENDROOT
BRANCH   2   3
ATOM      3  C   UNL     1       2.613   6.231  19.909  0.00  0.00    +0.000 A 
ATOM      4  C   UNL     1       3.529   6.277  18.876  0.00  0.00    +0.000 A 
ATOM      5  C   UNL     1       3.200   5.618  17.714  0.00  0.00    +0.000 A 
ATOM      6  N   UNL     1       2.227   4.704  17.648  0.00  0.00    +0.000 NA
ATOM      7  C   UNL     1       1.770   4.230  18.810  0.00  0.00    +0.000 A 
ATOM      8  C   UNL     1       1.367   2.902  18.762  0.00  0.00    +0.000 A 
ATOM      9  C   UNL     1       1.332   2.118  19.910  0.00  0.00    +0.000 A 
ATOM     10  C   UNL     1       1.691   2.685  21.122  0.00  0.00    +0.000 A 
ATOM     11  C   UNL     1       1.990   4.068  21.189  0.00  0.00    +0.000 A 
ATOM     12  C   UNL     1       2.003   4.917  20.020  0.00  0.00    +0.000 A 
ENDBRANCH   2   3
BRANCH   1  16
ATOM     13  C   UNL     1      -1.195  11.759  22.460  0.00  0.00    +0.000 A 
ATOM     14  C   UNL     1      -0.475  11.654  21.267  0.00  0.00    +0.000 A 
ATOM     15  C   UNL     1       0.277  10.489  20.836  0.00  0.00    +0.000 A 
ATOM     16  C   UNL     1       0.370   9.321  21.590  0.00  0.00    +0.000 A 
ATOM     17  C   UNL     1      -0.326   9.420  22.824  0.00  0.00    +0.000 A 
ATOM     18  C   UNL     1      -1.072  10.590  23.255  0.00  0.00    +0.000 A 
BRANCH  13  19
ATOM     19  N   UNL     1      -1.935  12.905  22.865  0.00  0.00    +0.000 N 
BRANCH  19  21
ATOM     20  C   UNL     1      -1.234  14.841  24.288  0.00  0.00    +0.000 C 
ATOM     21  C   UNL     1      -1.287  14.238  22.887  0.00  0.00    +0.000 C 
ENDBRANCH  19  21
BRANCH  19  22
ATOM     22  C   UNL     1      -3.423  12.863  22.966  0.00  0.00    +0.000 C 
ATOM     23  C   UNL     1      -4.042  12.502  24.330  0.00  0.00    +0.000 C 
ENDBRANCH  19  22
ENDBRANCH  13  19
ENDBRANCH   1  16
TORSDOF 5
ENDMDL
MODEL 7
REMARK VINA RESULT:      -7.5      0.851      1.588
REMARK  Name = 
REMARK  7 active torsions:
REMARK  status: ('A' for Active; 'I' for Inactive)
REMARK    1  A    between atoms: C_1  and  C_2
REMARK    2  A    between atoms: C_2  and  N_3
REMARK    3  A    between atoms: N_3  and  C_4
REMARK    4  A    between atoms: N_3  and  C_6
REMARK    5  A    between atoms: C_4  and  C_5
REMARK    6  A    between atoms: C_9  and  C_10
REMARK    7  A    between atoms: C_11  and  C_12
REMARK                            x       y       z     vdW  Elec       q    Type
REMARK                         _______ _______ _______ _____ _____    ______ ____
ROOT
ATOM      1  C   UNL     1       2.748   6.927  18.529  0.00  0.00    +0.000 C 
ATOM      2  C   UNL     1       2.432   5.671  18.049  0.00  0.00    +0.000 C 
ENDROOT
BRANCH   2   3
ATOM      3  C   UNL     1       3.452   4.534  17.603  0.00  0.00    +0.000 A 
ATOM      4  C   UNL     1       3.552   3.542  18.559  0.00  0.00    +0.000 A 
ATOM      5  C   UNL     1       4.705   3.505  19.309  0.00  0.00    +0.000 A 
ATOM      6  N   UNL     1       5.821   4.149  18.955  0.00  0.00    +0.000 NA
ATOM      7  C   UNL     1       5.883   4.597  17.699  0.00  0.00    +0.000 A 
ATOM      8  C   UNL     1       7.159   4.583  17.152  0.00  0.00    +0.000 A 
ATOM      9  C   UNL     1       7.353   4.539  15.776  0.00  0.00    +0.000 A 
ATOM     10  C   UNL     1       6.247   4.528  14.942  0.00  0.00    +0.000 A 
ATOM     11  C   UNL     1       4.949   4.660  15.495  0.00  0.00    +0.000 A 
ATOM     12  C   UNL     1       4.716   4.741  16.918  0.00  0.00    +0.000 A 
ENDBRANCH   2   3
BRANCH   1  16
ATOM     13  C   UNL     1       0.539  10.772  19.644  0.00  0.00    +0.000 A 
ATOM     14  C   UNL     1       0.721   9.691  20.511  0.00  0.00    +0.000 A 
ATOM     15  C   UNL     1       1.399   8.451  20.182  0.00  0.00    +0.000 A 
ATOM     16  C   UNL     1       1.953   8.195  18.928  0.00  0.00    +0.000 A 
ATOM     17  C   UNL     1       1.748   9.268  18.021  0.00  0.00    +0.000 A 
ATOM     18  C   UNL     1       1.062  10.505  18.352  0.00  0.00    +0.000 A 
BRANCH  13  19
ATOM     19  N   UNL     1      -0.121  11.985  19.984  0.00  0.00    +0.000 N 
BRANCH  19  21
ATOM     20  C   UNL     1       0.223  14.171  18.815  0.00  0.00    +0.000 C 
ATOM     21  C   UNL     1       0.626  13.265  19.976  0.00  0.00    +0.000 C 
ENDBRANCH  19  21
BRANCH  19  22
ATOM     22  C   UNL     1      -1.610  12.060  20.043  0.00  0.00    +0.000 C 
ATOM     23  C   UNL     1      -2.405  11.563  18.820  0.00  0.00    +0.000 C 
ENDBRANCH  19  22
ENDBRANCH  13  19
ENDBRANCH   1  16
TORSDOF 5
ENDMDL
MODEL 8
REMARK VINA RESULT:      -7.5      1.856      2.892
REMARK  Name = 
REMARK  7 active torsions:
REMARK  status: ('A' for Active; 'I' for Inactive)
REMARK    1  A    between atoms: C_1  and  C_2
REMARK    2  A    between atoms: C_2  and  N_3
REMARK    3  A    between atoms: N_3  and  C_4
REMARK    4  A    between atoms: N_3  and  C_6
REMARK    5  A    between atoms: C_4  and  C_5
REMARK    6  A    between atoms: C_9  and  C_10
REMARK    7  A    between atoms: C_11  and  C_12
REMARK                            x       y       z     vdW  Elec       q    Type
REMARK                         _______ _______ _______ _____ _____    ______ ____
ROOT
ATOM      1  C   UNL     1       4.011   5.807  17.729  0.00  0.00    +0.000 C 
ATOM      2  C   UNL     1       4.036   5.273  16.456  0.00  0.00    +0.000 C 
ENDROOT
BRANCH   2   3
ATOM      3  C   UNL     1       5.158   4.330  15.836  0.00  0.00    +0.000 A 
ATOM      4  C   UNL     1       6.196   4.131  16.724  0.00  0.00    +0.000 A 
ATOM      5  C   UNL     1       7.382   4.777  16.461  0.00  0.00    +0.000 A 
ATOM      6  N   UNL     1       7.671   5.306  15.268  0.00  0.00    +0.000 NA
ATOM      7  C   UNL     1       6.896   4.937  14.245  0.00  0.00    +0.000 A 
ATOM      8  C   UNL     1       7.558   4.869  13.025  0.00  0.00    +0.000 A 
ATOM      9  C   UNL     1       7.083   4.070  11.992  0.00  0.00    +0.000 A 
ATOM     10  C   UNL     1       5.918   3.347  12.183  0.00  0.00    +0.000 A 
ATOM     11  C   UNL     1       5.180   3.506  13.382  0.00  0.00    +0.000 A 
ATOM     12  C   UNL     1       5.630   4.353  14.463  0.00  0.00    +0.000 A 
ENDBRANCH   2   3
BRANCH   1  16
ATOM     13  C   UNL     1       1.208   8.579  20.045  0.00  0.00    +0.000 A 
ATOM     14  C   UNL     1       1.725   8.865  18.778  0.00  0.00    +0.000 A 
ATOM     15  C   UNL     1       2.630   8.015  18.026  0.00  0.00    +0.000 A 
ATOM     16  C   UNL     1       3.100   6.793  18.503  0.00  0.00    +0.000 A 
ATOM     17  C   UNL     1       2.615   6.501  19.805  0.00  0.00    +0.000 A 
ATOM     18  C   UNL     1       1.714   7.357  20.558  0.00  0.00    +0.000 A 
BRANCH  13  19
ATOM     19  N   UNL     1       0.314   9.419  20.766  0.00  0.00    +0.000 N 
BRANCH  19  21
ATOM     20  C   UNL     1      -0.072   9.556  23.235  0.00  0.00    +0.000 C 
ATOM     21  C   UNL     1      -0.445   8.879  21.919  0.00  0.00    +0.000 C 
ENDBRANCH  19  21
BRANCH  19  22
ATOM     22  C   UNL     1       0.349  10.901  20.601  0.00  0.00    +0.000 C 
ATOM     23  C   UNL     1      -0.744  11.555  19.733  0.00  0.00    +0.000 C 
ENDBRANCH  19  22
ENDBRANCH  13  19
ENDBRANCH   1  16
TORSDOF 5
ENDMDL
MODEL 9
REMARK VINA RESULT:      -7.5      6.327      9.431
REMARK  Name = 
REMARK  7 active torsions:
REMARK  status: ('A' for Active; 'I' for Inactive)
REMARK    1  A    between atoms: C_1  and  C_2
REMARK    2  A    between atoms: C_2  and  N_3
REMARK    3  A    between atoms: N_3  and  C_4
REMARK    4  A    between atoms: N_3  and  C_6
REMARK    5  A    between atoms: C_4  and  C_5
REMARK    6  A    between atoms: C_9  and  C_10
REMARK    7  A    between atoms: C_11  and  C_12
REMARK                            x       y       z     vdW  Elec       q    Type
REMARK                         _______ _______ _______ _____ _____    ______ ____
ROOT
ATOM      1  C   UNL     1       8.631   8.654  18.389  0.00  0.00    +0.000 C 
ATOM      2  C   UNL     1       8.667  10.022  18.203  0.00  0.00    +0.000 C 
ENDROOT
BRANCH   2   3
ATOM      3  C   UNL     1       9.734  11.040  18.802  0.00  0.00    +0.000 A 
ATOM      4  C   UNL     1       9.673  11.081  20.181  0.00  0.00    +0.000 A 
ATOM      5  C   UNL     1       9.113  12.199  20.754  0.00  0.00    +0.000 A 
ATOM      6  N   UNL     1       8.927  13.342  20.085  0.00  0.00    +0.000 NA
ATOM      7  C   UNL     1       9.569  13.465  18.920  0.00  0.00    +0.000 A 
ATOM      8  C   UNL     1       9.961  14.764  18.623  0.00  0.00    +0.000 A 
ATOM      9  C   UNL     1      11.015  15.016  17.753  0.00  0.00    +0.000 A 
ATOM     10  C   UNL     1      11.670  13.949  17.163  0.00  0.00    +0.000 A 
ATOM     11  C   UNL     1      11.196  12.630  17.375  0.00  0.00    +0.000 A 
ATOM     12  C   UNL     1      10.082  12.337  18.247  0.00  0.00    +0.000 A 
ENDBRANCH   2   3
BRANCH   1  16
ATOM     13  C   UNL     1       5.939   5.163  17.176  0.00  0.00    +0.000 A 
ATOM     14  C   UNL     1       5.739   6.486  16.773  0.00  0.00    +0.000 A 
ATOM     15  C   UNL     1       6.563   7.618  17.156  0.00  0.00    +0.000 A 
ATOM     16  C   UNL     1       7.670   7.504  17.995  0.00  0.00    +0.000 A 
ATOM     17  C   UNL     1       7.870   6.173  18.445  0.00  0.00    +0.000 A 
ATOM     18  C   UNL     1       7.039   5.043  18.065  0.00  0.00    +0.000 A 
BRANCH  13  19
ATOM     19  N   UNL     1       5.127   4.062  16.785  0.00  0.00    +0.000 N 
BRANCH  19  21
ATOM     20  C   UNL     1       3.682   2.641  18.253  0.00  0.00    +0.000 C 
ATOM     21  C   UNL     1       3.779   3.887  17.376  0.00  0.00    +0.000 C 
ENDBRANCH  19  21
BRANCH  19  22
ATOM     22  C   UNL     1       5.455   3.257  15.573  0.00  0.00    +0.000 C 
ATOM     23  C   UNL     1       6.240   3.947  14.441  0.00  0.00    +0.000 C 
ENDBRANCH  19  22
ENDBRANCH  13  19
ENDBRANCH   1  16
TORSDOF 5
ENDMDL
