MODEL 1
REMARK VINA RESULT:      -7.4      0.000      0.000
REMARK  Name = 
REMARK  4 active torsions:
REMARK  status: ('A' for Active; 'I' for Inactive)
REMARK    1  A    between atoms: C_4  and  C_5
REMARK    2  A    between atoms: C_10  and  O_11
REMARK    3  A    between atoms: O_11  and  C_12
REMARK    4  A    between atoms: C_12  and  C_13
REMARK                            x       y       z     vdW  Elec       q    Type
REMARK                         _______ _______ _______ _____ _____    ______ ____
ROOT
ATOM      1  C   UNL     1       3.561   4.982  17.895  0.00  0.00    +0.000 A 
ATOM      2  C   UNL     1       4.348   4.152  17.057  0.00  0.00    +0.000 A 
ATOM      3  C   UNL     1       5.176   4.662  16.055  0.00  0.00    +0.000 A 
ATOM      4  C   UNL     1       5.289   6.032  15.893  0.00  0.00    +0.000 A 
ATOM      5  C   UNL     1       4.551   6.883  16.712  0.00  0.00    +0.000 A 
ATOM      6  C   UNL     1       3.656   6.381  17.679  0.00  0.00    +0.000 A 
ENDROOT
BRANCH   1  10
ATOM      7  C   UNL     1       1.034   3.053  20.843  0.00  0.00    +0.000 A 
ATOM      8  C   UNL     1       2.113   3.829  21.251  0.00  0.00    +0.000 A 
ATOM      9  C   UNL     1       2.935   4.455  20.303  0.00  0.00    +0.000 A 
ATOM     10  C   UNL     1       2.688   4.339  18.923  0.00  0.00    +0.000 A 
ATOM     11  C   UNL     1       1.588   3.541  18.545  0.00  0.00    +0.000 A 
ATOM     12  C   UNL     1       0.776   2.899  19.487  0.00  0.00    +0.000 A 
ENDBRANCH   1  10
BRANCH   6  13
ATOM     13  O   UNL     1       2.835   7.216  18.415  0.00  0.00    +0.000 OA
BRANCH  13  14
ATOM     14  C   UNL     1       2.514   8.459  17.799  0.00  0.00    +0.000 C 
BRANCH  14  15
ATOM     15  C   UNL     1       1.386   9.205  18.487  0.00  0.00    +0.000 C 
ATOM     16  N   UNL     1       1.224   9.112  19.786  0.00  0.00    +0.000 NA
ATOM     17  C   UNL     1       0.057   9.997  20.066  0.00  0.00    +0.000 C 
ATOM     18  C   UNL     1      -0.145  10.845  18.804  0.00  0.00    +0.000 C 
ATOM     19  N   UNL     1       0.512  10.024  17.815  0.00  0.00    +0.000 N 
ATOM     20  H   UNL     1       0.870  10.462  16.972  0.00  0.00    +0.000 HD
ENDBRANCH  14  15
ENDBRANCH  13  14
ENDBRANCH   6  13
TORSDOF 4
ENDMDL
MODEL 2
REMARK VINA RESULT:      -7.4      0.397      1.170
REMARK  Name = 
REMARK  4 active torsions:
REMARK  status: ('A' for Active; 'I' for Inactive)
REMARK    1  A    between atoms: C_4  and  C_5
REMARK    2  A    between atoms: C_10  and  O_11
REMARK    3  A    between atoms: O_11  and  C_12
REMARK    4  A    between atoms: C_12  and  C_13
REMARK                            x       y       z     vdW  Elec       q    Type
REMARK                         _______ _______ _______ _____ _____    ______ ____
ROOT
ATOM      1  C   UNL     1       3.669   4.842  17.740  0.00  0.00    +0.000 A 
ATOM      2  C   UNL     1       4.380   3.967  16.879  0.00  0.00    +0.000 A 
ATOM      3  C   UNL     1       5.229   4.429  15.871  0.00  0.00    +0.000 A 
ATOM      4  C   UNL     1       5.441   5.788  15.725  0.00  0.00    +0.000 A 
ATOM      5  C   UNL     1       4.780   6.680  16.566  0.00  0.00    +0.000 A 
ATOM      6  C   UNL     1       3.865   6.233  17.540  0.00  0.00    +0.000 A 
ENDROOT
BRANCH   1  10
ATOM      7  C   UNL     1       1.043   3.195  20.772  0.00  0.00    +0.000 A 
ATOM      8  C   UNL     1       0.779   2.971  19.426  0.00  0.00    +0.000 A 
ATOM      9  C   UNL     1       1.624   3.502  18.439  0.00  0.00    +0.000 A 
ATOM     10  C   UNL     1       2.766   4.251  18.773  0.00  0.00    +0.000 A 
ATOM     11  C   UNL     1       3.001   4.463  20.149  0.00  0.00    +0.000 A 
ATOM     12  C   UNL     1       2.150   3.952  21.136  0.00  0.00    +0.000 A 
ENDBRANCH   1  10
BRANCH   6  13
ATOM     13  O   UNL     1       3.120   7.116  18.299  0.00  0.00    +0.000 OA
BRANCH  13  14
ATOM     14  C   UNL     1       2.549   8.208  17.586  0.00  0.00    +0.000 C 
BRANCH  14  15
ATOM     15  C   UNL     1       1.686   9.113  18.446  0.00  0.00    +0.000 C 
ATOM     16  N   UNL     1       1.414   8.786  19.688  0.00  0.00    +0.000 NA
ATOM     17  C   UNL     1       0.587   9.922  20.185  0.00  0.00    +0.000 C 
ATOM     18  C   UNL     1       0.762  11.053  19.164  0.00  0.00    +0.000 C 
ATOM     19  N   UNL     1       1.178  10.308  17.999  0.00  0.00    +0.000 N 
ATOM     20  H   UNL     1       1.717  10.780  17.280  0.00  0.00    +0.000 HD
ENDBRANCH  14  15
ENDBRANCH  13  14
ENDBRANCH   6  13
TORSDOF 4
ENDMDL
MODEL 3
REMARK VINA RESULT:      -7.3      1.898      3.908
REMARK  Name = 
REMARK  4 active torsions:
REMARK  status: ('A' for Active; 'I' for Inactive)
REMARK    1  A    between atoms: C_4  and  C_5
REMARK    2  A    between atoms: C_10  and  O_11
REMARK    3  A    between atoms: O_11  and  C_12
REMARK    4  A    between atoms: C_12  and  C_13
REMARK                            x       y       z     vdW  Elec       q    Type
REMARK                         _______ _______ _______ _____ _____    ______ ____
ROOT
ATOM      1  C   UNL     1       4.117   5.076  17.999  0.00  0.00    +0.000 A 
ATOM      2  C   UNL     1       4.055   3.714  17.609  0.00  0.00    +0.000 A 
ATOM      3  C   UNL     1       2.847   3.027  17.467  0.00  0.00    +0.000 A 
ATOM      4  C   UNL     1       1.652   3.698  17.657  0.00  0.00    +0.000 A 
ATOM      5  C   UNL     1       1.670   5.043  18.017  0.00  0.00    +0.000 A 
ATOM      6  C   UNL     1       2.881   5.731  18.235  0.00  0.00    +0.000 A 
ENDROOT
BRANCH   1  10
ATOM      7  C   UNL     1       8.041   6.870  18.432  0.00  0.00    +0.000 A 
ATOM      8  C   UNL     1       7.202   7.271  17.399  0.00  0.00    +0.000 A 
ATOM      9  C   UNL     1       5.932   6.694  17.252  0.00  0.00    +0.000 A 
ATOM     10  C   UNL     1       5.459   5.717  18.146  0.00  0.00    +0.000 A 
ATOM     11  C   UNL     1       6.339   5.331  19.180  0.00  0.00    +0.000 A 
ATOM     12  C   UNL     1       7.614   5.890  19.319  0.00  0.00    +0.000 A 
ENDBRANCH   1  10
BRANCH   6  13
ATOM     13  O   UNL     1       2.906   7.031  18.705  0.00  0.00    +0.000 OA
BRANCH  13  14
ATOM     14  C   UNL     1       2.503   8.028  17.772  0.00  0.00    +0.000 C 
BRANCH  14  15
ATOM     15  C   UNL     1       1.792   9.207  18.410  0.00  0.00    +0.000 C 
ATOM     16  N   UNL     1       1.235   9.086  19.591  0.00  0.00    +0.000 NA
ATOM     17  C   UNL     1       0.684  10.443  19.869  0.00  0.00    +0.000 C 
ATOM     18  C   UNL     1       1.335  11.383  18.847  0.00  0.00    +0.000 C 
ATOM     19  N   UNL     1       1.718  10.445  17.818  0.00  0.00    +0.000 N 
ATOM     20  H   UNL     1       2.480  10.686  17.192  0.00  0.00    +0.000 HD
ENDBRANCH  14  15
ENDBRANCH  13  14
ENDBRANCH   6  13
TORSDOF 4
ENDMDL
MODEL 4
REMARK VINA RESULT:      -7.2      2.772      4.947
REMARK  Name = 
REMARK  4 active torsions:
REMARK  status: ('A' for Active; 'I' for Inactive)
REMARK    1  A    between atoms: C_4  and  C_5
REMARK    2  A    between atoms: C_10  and  O_11
REMARK    3  A    between atoms: O_11  and  C_12
REMARK    4  A    between atoms: C_12  and  C_13
REMARK                            x       y       z     vdW  Elec       q    Type
REMARK                         _______ _______ _______ _____ _____    ______ ____
ROOT
ATOM      1  C   UNL     1       4.590   5.815  17.391  0.00  0.00    +0.000 A 
ATOM      2  C   UNL     1       5.876   6.379  17.202  0.00  0.00    +0.000 A 
ATOM      3  C   UNL     1       6.909   5.698  16.553  0.00  0.00    +0.000 A 
ATOM      4  C   UNL     1       6.671   4.445  16.019  0.00  0.00    +0.000 A 
ATOM      5  C   UNL     1       5.412   3.865  16.162  0.00  0.00    +0.000 A 
ATOM      6  C   UNL     1       4.382   4.509  16.877  0.00  0.00    +0.000 A 
ENDROOT
BRANCH   1  10
ATOM      7  C   UNL     1       1.638   8.131  19.565  0.00  0.00    +0.000 A 
ATOM      8  C   UNL     1       2.065   8.549  18.310  0.00  0.00    +0.000 A 
ATOM      9  C   UNL     1       3.020   7.805  17.601  0.00  0.00    +0.000 A 
ATOM     10  C   UNL     1       3.558   6.613  18.120  0.00  0.00    +0.000 A 
ATOM     11  C   UNL     1       3.106   6.222  19.398  0.00  0.00    +0.000 A 
ATOM     12  C   UNL     1       2.167   6.971  20.117  0.00  0.00    +0.000 A 
ENDBRANCH   1  10
BRANCH   6  13
ATOM     13  O   UNL     1       3.170   3.891  17.122  0.00  0.00    +0.000 OA
BRANCH  13  14
ATOM     14  C   UNL     1       3.244   2.646  17.810  0.00  0.00    +0.000 C 
BRANCH  14  15
ATOM     15  C   UNL     1       2.668   2.691  19.213  0.00  0.00    +0.000 C 
ATOM     16  N   UNL     1       3.462   2.659  20.257  0.00  0.00    +0.000 NA
ATOM     17  C   UNL     1       2.532   2.752  21.418  0.00  0.00    +0.000 C 
ATOM     18  C   UNL     1       1.181   3.199  20.846  0.00  0.00    +0.000 C 
ATOM     19  N   UNL     1       1.322   2.796  19.467  0.00  0.00    +0.000 N 
ATOM     20  H   UNL     1       0.771   3.268  18.757  0.00  0.00    +0.000 HD
ENDBRANCH  14  15
ENDBRANCH  13  14
ENDBRANCH   6  13
TORSDOF 4
ENDMDL
MODEL 5
REMARK VINA RESULT:      -7.2      2.762      4.909
REMARK  Name = 
REMARK  4 active torsions:
REMARK  status: ('A' for Active; 'I' for Inactive)
REMARK    1  A    between atoms: C_4  and  C_5
REMARK    2  A    between atoms: C_10  and  O_11
REMARK    3  A    between atoms: O_11  and  C_12
REMARK    4  A    between atoms: C_12  and  C_13
REMARK                            x       y       z     vdW  Elec       q    Type
REMARK                         _______ _______ _______ _____ _____    ______ ____
ROOT
ATOM      1  C   UNL     1       4.625   5.806  17.373  0.00  0.00    +0.000 A 
ATOM      2  C   UNL     1       5.909   6.364  17.151  0.00  0.00    +0.000 A 
ATOM      3  C   UNL     1       6.921   5.678  16.476  0.00  0.00    +0.000 A 
ATOM      4  C   UNL     1       6.664   4.425  15.948  0.00  0.00    +0.000 A 
ATOM      5  C   UNL     1       5.407   3.851  16.124  0.00  0.00    +0.000 A 
ATOM      6  C   UNL     1       4.398   4.500  16.865  0.00  0.00    +0.000 A 
ENDROOT
BRANCH   1  10
ATOM      7  C   UNL     1       1.652   8.139  19.500  0.00  0.00    +0.000 A 
ATOM      8  C   UNL     1       2.171   6.983  20.072  0.00  0.00    +0.000 A 
ATOM      9  C   UNL     1       3.132   6.223  19.389  0.00  0.00    +0.000 A 
ATOM     10  C   UNL     1       3.615   6.610  18.127  0.00  0.00    +0.000 A 
ATOM     11  C   UNL     1       3.064   7.786  17.574  0.00  0.00    +0.000 A 
ATOM     12  C   UNL     1       2.091   8.536  18.243  0.00  0.00    +0.000 A 
ENDBRANCH   1  10
BRANCH   6  13
ATOM     13  O   UNL     1       3.190   3.888  17.141  0.00  0.00    +0.000 OA
BRANCH  13  14
ATOM     14  C   UNL     1       3.274   2.651  17.840  0.00  0.00    +0.000 C 
BRANCH  14  15
ATOM     15  C   UNL     1       2.678   2.697  19.235  0.00  0.00    +0.000 C 
ATOM     16  N   UNL     1       3.454   2.620  20.290  0.00  0.00    +0.000 NA
ATOM     17  C   UNL     1       2.508   2.731  21.438  0.00  0.00    +0.000 C 
ATOM     18  C   UNL     1       1.185   3.237  20.851  0.00  0.00    +0.000 C 
ATOM     19  N   UNL     1       1.333   2.848  19.469  0.00  0.00    +0.000 N 
ATOM     20  H   UNL     1       0.811   3.351  18.758  0.00  0.00    +0.000 HD
ENDBRANCH  14  15
ENDBRANCH  13  14
ENDBRANCH   6  13
TORSDOF 4
ENDMDL
MODEL 6
REMARK VINA RESULT:      -7.1      1.505      4.271
REMARK  Name = 
REMARK  4 active torsions:
REMARK  status: ('A' for Active; 'I' for Inactive)
REMARK    1  A    between atoms: C_4  and  C_5
REMARK    2  A    between atoms: C_10  and  O_11
REMARK    3  A    between atoms: O_11  and  C_12
REMARK    4  A    between atoms: C_12  and  C_13
REMARK                            x       y       z     vdW  Elec       q    Type
REMARK                         _______ _______ _______ _____ _____    ______ ____
ROOT
ATOM      1  C   UNL     1       3.394   3.776  18.549  0.00  0.00    +0.000 A 
ATOM      2  C   UNL     1       2.867   2.462  18.480  0.00  0.00    +0.000 A 
ATOM      3  C   UNL     1       1.722   2.073  19.177  0.00  0.00    +0.000 A 
ATOM      4  C   UNL     1       1.028   3.005  19.928  0.00  0.00    +0.000 A 
ATOM      5  C   UNL     1       1.499   4.314  20.003  0.00  0.00    +0.000 A 
ATOM      6  C   UNL     1       2.694   4.704  19.364  0.00  0.00    +0.000 A 
ENDROOT
BRANCH   1  10
ATOM      7  C   UNL     1       7.044   4.638  16.372  0.00  0.00    +0.000 A 
ATOM      8  C   UNL     1       5.871   4.353  15.681  0.00  0.00    +0.000 A 
ATOM      9  C   UNL     1       4.687   4.072  16.379  0.00  0.00    +0.000 A 
ATOM     10  C   UNL     1       4.639   4.090  17.785  0.00  0.00    +0.000 A 
ATOM     11  C   UNL     1       5.849   4.378  18.453  0.00  0.00    +0.000 A 
ATOM     12  C   UNL     1       7.036   4.640  17.761  0.00  0.00    +0.000 A 
ENDBRANCH   1  10
BRANCH   6  13
ATOM     13  O   UNL     1       3.228   5.968  19.528  0.00  0.00    +0.000 OA
BRANCH  13  14
ATOM     14  C   UNL     1       2.556   7.013  18.834  0.00  0.00    +0.000 C 
BRANCH  14  15
ATOM     15  C   UNL     1       1.870   8.010  19.750  0.00  0.00    +0.000 C 
ATOM     16  N   UNL     1       1.325   9.097  19.258  0.00  0.00    +0.000 NA
ATOM     17  C   UNL     1       0.743   9.778  20.450  0.00  0.00    +0.000 C 
ATOM     18  C   UNL     1       0.737   8.734  21.574  0.00  0.00    +0.000 C 
ATOM     19  N   UNL     1       1.755   7.823  21.106  0.00  0.00    +0.000 N 
ATOM     20  H   UNL     1       1.735   6.859  21.422  0.00  0.00    +0.000 HD
ENDBRANCH  14  15
ENDBRANCH  13  14
ENDBRANCH   6  13
TORSDOF 4
ENDMDL
MODEL 7
REMARK VINA RESULT:      -7.1      2.582      5.124
REMARK  Name = 
REMARK  4 active torsions:
REMARK  status: ('A' for Active; 'I' for Inactive)
REMARK    1  A    between atoms: C_4  and  C_5
REMARK    2  A    between atoms: C_10  and  O_11
REMARK    3  A    between atoms: O_11  and  C_12
REMARK    4  A    between atoms: C_12  and  C_13
REMARK                            x       y       z     vdW  Elec       q    Type
REMARK                         _______ _______ _______ _____ _____    ______ ____
ROOT
ATOM      1  C   UNL     1       3.568   6.166  17.845  0.00  0.00    +0.000 A 
ATOM      2  C   UNL     1       4.938   6.469  17.642  0.00  0.00    +0.000 A 
ATOM      3  C   UNL     1       5.838   5.551  17.097  0.00  0.00    +0.000 A 
ATOM      4  C   UNL     1       5.385   4.312  16.682  0.00  0.00    +0.000 A 
ATOM      5  C   UNL     1       4.041   3.984  16.842  0.00  0.00    +0.000 A 
ATOM      6  C   UNL     1       3.134   4.872  17.457  0.00  0.00    +0.000 A 
ENDROOT
BRANCH   1  10
ATOM      7  C   UNL     1       1.061   9.192  19.679  0.00  0.00    +0.000 A 
ATOM      8  C   UNL     1       1.428   9.307  18.343  0.00  0.00    +0.000 A 
ATOM      9  C   UNL     1       2.240   8.332  17.744  0.00  0.00    +0.000 A 
ATOM     10  C   UNL     1       2.688   7.207  18.458  0.00  0.00    +0.000 A 
ATOM     11  C   UNL     1       2.300   7.125  19.812  0.00  0.00    +0.000 A 
ATOM     12  C   UNL     1       1.507   8.104  20.420  0.00  0.00    +0.000 A 
ENDBRANCH   1  10
BRANCH   6  13
ATOM     13  O   UNL     1       1.827   4.509  17.724  0.00  0.00    +0.000 OA
BRANCH  13  14
ATOM     14  C   UNL     1       1.630   3.146  18.084  0.00  0.00    +0.000 C 
BRANCH  14  15
ATOM     15  C   UNL     1       1.824   2.873  19.564  0.00  0.00    +0.000 C 
ATOM     16  N   UNL     1       3.012   2.571  20.032  0.00  0.00    +0.000 NA
ATOM     17  C   UNL     1       2.790   2.412  21.498  0.00  0.00    +0.000 C 
ATOM     18  C   UNL     1       1.413   3.021  21.787  0.00  0.00    +0.000 C 
ATOM     19  N   UNL     1       0.804   2.953  20.480  0.00  0.00    +0.000 N 
ATOM     20  H   UNL     1       0.052   3.596  20.253  0.00  0.00    +0.000 HD
ENDBRANCH  14  15
ENDBRANCH  13  14
ENDBRANCH   6  13
TORSDOF 4
ENDMDL
MODEL 8
REMARK VINA RESULT:      -7.1      4.259      6.090
REMARK  Name = 
REMARK  4 active torsions:
REMARK  status: ('A' for Active; 'I' for Inactive)
REMARK    1  A    between atoms: C_4  and  C_5
REMARK    2  A    between atoms: C_10  and  O_11
REMARK    3  A    between atoms: O_11  and  C_12
REMARK    4  A    between atoms: C_12  and  C_13
REMARK                            x       y       z     vdW  Elec       q    Type
REMARK                         _______ _______ _______ _____ _____    ______ ____
ROOT
ATOM      1  C   UNL     1       5.282   4.973  18.175  0.00  0.00    +0.000 A 
ATOM      2  C   UNL     1       5.977   5.132  19.400  0.00  0.00    +0.000 A 
ATOM      3  C   UNL     1       7.213   5.775  19.486  0.00  0.00    +0.000 A 
ATOM      4  C   UNL     1       7.774   6.334  18.352  0.00  0.00    +0.000 A 
ATOM      5  C   UNL     1       7.112   6.221  17.132  0.00  0.00    +0.000 A 
ATOM      6  C   UNL     1       5.899   5.511  17.016  0.00  0.00    +0.000 A 
ENDROOT
BRANCH   1  10
ATOM      7  C   UNL     1       1.510   2.835  18.256  0.00  0.00    +0.000 A 
ATOM      8  C   UNL     1       1.525   4.216  18.096  0.00  0.00    +0.000 A 
ATOM      9  C   UNL     1       2.742   4.914  18.070  0.00  0.00    +0.000 A 
ATOM     10  C   UNL     1       3.976   4.248  18.181  0.00  0.00    +0.000 A 
ATOM     11  C   UNL     1       3.923   2.847  18.347  0.00  0.00    +0.000 A 
ATOM     12  C   UNL     1       2.711   2.149  18.393  0.00  0.00    +0.000 A 
ENDBRANCH   1  10
BRANCH   6  13
ATOM     13  O   UNL     1       5.296   5.295  15.790  0.00  0.00    +0.000 OA
BRANCH  13  14
ATOM     14  C   UNL     1       5.586   4.045  15.175  0.00  0.00    +0.000 C 
BRANCH  14  15
ATOM     15  C   UNL     1       6.274   4.174  13.829  0.00  0.00    +0.000 C 
ATOM     16  N   UNL     1       7.170   5.112  13.629  0.00  0.00    +0.000 NA
ATOM     17  C   UNL     1       7.618   4.885  12.225  0.00  0.00    +0.000 C 
ATOM     18  C   UNL     1       7.111   3.491  11.836  0.00  0.00    +0.000 C 
ATOM     19  N   UNL     1       6.031   3.322  12.779  0.00  0.00    +0.000 N 
ATOM     20  H   UNL     1       5.737   2.382  13.028  0.00  0.00    +0.000 HD
ENDBRANCH  14  15
ENDBRANCH  13  14
ENDBRANCH   6  13
TORSDOF 4
ENDMDL
MODEL 9
REMARK VINA RESULT:      -7.1      0.982      1.754
REMARK  Name = 
REMARK  4 active torsions:
REMARK  status: ('A' for Active; 'I' for Inactive)
REMARK    1  A    between atoms: C_4  and  C_5
REMARK    2  A    between atoms: C_10  and  O_11
REMARK    3  A    between atoms: O_11  and  C_12
REMARK    4  A    between atoms: C_12  and  C_13
REMARK                            x       y       z     vdW  Elec       q    Type
REMARK                         _______ _______ _______ _____ _____    ______ ____
ROOT
ATOM      1  C   UNL     1       3.851   4.537  17.604  0.00  0.00    +0.000 A 
ATOM      2  C   UNL     1       4.364   3.764  16.532  0.00  0.00    +0.000 A 
ATOM      3  C   UNL     1       5.163   4.311  15.525  0.00  0.00    +0.000 A 
ATOM      4  C   UNL     1       5.524   5.646  15.588  0.00  0.00    +0.000 A 
ATOM      5  C   UNL     1       5.060   6.434  16.638  0.00  0.00    +0.000 A 
ATOM      6  C   UNL     1       4.194   5.914  17.622  0.00  0.00    +0.000 A 
ENDROOT
BRANCH   1  10
ATOM      7  C   UNL     1       1.364   2.635  20.604  0.00  0.00    +0.000 A 
ATOM      8  C   UNL     1       0.817   3.012  19.382  0.00  0.00    +0.000 A 
ATOM      9  C   UNL     1       1.616   3.629  18.408  0.00  0.00    +0.000 A 
ATOM     10  C   UNL     1       2.986   3.865  18.620  0.00  0.00    +0.000 A 
ATOM     11  C   UNL     1       3.505   3.475  19.873  0.00  0.00    +0.000 A 
ATOM     12  C   UNL     1       2.709   2.877  20.855  0.00  0.00    +0.000 A 
ENDBRANCH   1  10
BRANCH   6  13
ATOM     13  O   UNL     1       3.638   6.717  18.600  0.00  0.00    +0.000 OA
BRANCH  13  14
ATOM     14  C   UNL     1       2.524   7.502  18.189  0.00  0.00    +0.000 C 
BRANCH  14  15
ATOM     15  C   UNL     1       1.852   8.247  19.328  0.00  0.00    +0.000 C 
ATOM     16  N   UNL     1       1.205   9.366  19.098  0.00  0.00    +0.000 NA
ATOM     17  C   UNL     1       0.677   9.755  20.436  0.00  0.00    +0.000 C 
ATOM     18  C   UNL     1       0.821   8.516  21.328  0.00  0.00    +0.000 C 
ATOM     19  N   UNL     1       1.853   7.792  20.624  0.00  0.00    +0.000 N 
ATOM     20  H   UNL     1       1.917   6.786  20.742  0.00  0.00    +0.000 HD
ENDBRANCH  14  15
ENDBRANCH  13  14
ENDBRANCH   6  13
TORSDOF 4
ENDMDL
