MODEL 1
REMARK VINA RESULT:      -8.2      0.000      0.000
REMARK  Name = 
REMARK  9 active torsions:
REMARK  status: ('A' for Active; 'I' for Inactive)
REMARK    1  A    between atoms: O_1  and  C_2
REMARK    2  A    between atoms: C_7  and  C_8
REMARK    3  A    between atoms: C_8  and  C_9
REMARK    4  A    between atoms: C_9  and  C_10
REMARK    5  A    between atoms: C_10  and  S_11
REMARK    6  A    between atoms: S_11  and  C_12
REMARK    7  A    between atoms: C_22  and  C_23
REMARK    8  A    between atoms: C_23  and  C_24
REMARK    9  A    between atoms: C_24  and  C_25
REMARK                            x       y       z     vdW  Elec       q    Type
REMARK                         _______ _______ _______ _____ _____    ______ ____
ROOT
ATOM      1  C   UNL     1       2.397   7.499  18.791  0.00  0.00    +0.000 A 
ATOM      2  C   UNL     1       1.960   8.756  18.329  0.00  0.00    +0.000 A 
ATOM      3  C   UNL     1       1.117   9.495  19.146  0.00  0.00    +0.000 A 
ATOM      4  C   UNL     1       0.770   9.002  20.392  0.00  0.00    +0.000 A 
ATOM      5  C   UNL     1       1.217   7.796  20.874  0.00  0.00    +0.000 A 
ATOM      6  C   UNL     1       2.033   6.998  20.059  0.00  0.00    +0.000 A 
ATOM      7  O   UNL     1      -0.092   9.803  21.087  0.00  0.00    +0.000 OA
ATOM      8  C   UNL     1      -0.631  10.676  20.060  0.00  0.00    +0.000 C 
ATOM      9  C   UNL     1       0.455  10.821  18.971  0.00  0.00    +0.000 C 
ENDROOT
BRANCH   1  10
ATOM     10  O   UNL     1       3.187   6.730  17.979  0.00  0.00    +0.000 OA
ATOM     11  H   UNL     1       2.828   5.828  17.946  0.00  0.00    +0.000 HD
ENDBRANCH   1  10
BRANCH   6  12
ATOM     12  C   UNL     1       2.315   5.617  20.601  0.00  0.00    +0.000 C 
BRANCH  12  13
ATOM     13  C   UNL     1       1.273   4.507  20.535  0.00  0.00    +0.000 C 
BRANCH  13  14
ATOM     14  C   UNL     1       1.234   3.769  19.198  0.00  0.00    +0.000 C 
BRANCH  14  15
ATOM     15  S   UNL     1       2.595   2.567  19.231  0.00  0.00    +0.000 S 
BRANCH  15  16
ATOM     16  C   UNL     1       3.824   3.361  18.283  0.00  0.00    +0.000 A 
ATOM     17  N   UNL     1       3.751   3.495  16.980  0.00  0.00    +0.000 NA
ATOM     18  C   UNL     1       4.928   4.060  16.510  0.00  0.00    +0.000 A 
ATOM     19  C   UNL     1       5.255   4.301  15.161  0.00  0.00    +0.000 A 
ATOM     20  C   UNL     1       6.505   4.838  14.832  0.00  0.00    +0.000 A 
ATOM     21  C   UNL     1       7.415   5.174  15.830  0.00  0.00    +0.000 A 
ATOM     22  C   UNL     1       7.106   4.970  17.177  0.00  0.00    +0.000 A 
ATOM     23  C   UNL     1       5.866   4.393  17.491  0.00  0.00    +0.000 A 
ATOM     24  S   UNL     1       5.241   3.962  19.031  0.00  0.00    +0.000 S 
ENDBRANCH  15  16
ENDBRANCH  14  15
ENDBRANCH  13  14
ENDBRANCH  12  13
ENDBRANCH   6  12
BRANCH   8  25
ATOM     25  C   UNL     1      -1.102  11.942  20.781  0.00  0.00    +0.000 C 
BRANCH  25  26
ATOM     26  C   UNL     1      -0.607  12.062  22.217  0.00  0.00    +0.000 C 
BRANCH  26  27
ATOM     27  C   UNL     1      -1.608  12.794  23.085  0.00  0.00    +0.000 A 
ATOM     28  C   UNL     1      -2.863  12.232  23.352  0.00  0.00    +0.000 A 
ATOM     29  C   UNL     1      -3.789  12.909  24.150  0.00  0.00    +0.000 A 
ATOM     30  C   UNL     1      -3.476  14.157  24.682  0.00  0.00    +0.000 A 
ATOM     31  C   UNL     1      -2.238  14.735  24.412  0.00  0.00    +0.000 A 
ATOM     32  C   UNL     1      -1.309  14.059  23.615  0.00  0.00    +0.000 A 
ENDBRANCH  26  27
ENDBRANCH  25  26
ENDBRANCH   8  25
TORSDOF 9
ENDMDL
MODEL 2
REMARK VINA RESULT:      -8.1      0.994      1.452
REMARK  Name = 
REMARK  9 active torsions:
REMARK  status: ('A' for Active; 'I' for Inactive)
REMARK    1  A    between atoms: O_1  and  C_2
REMARK    2  A    between atoms: C_7  and  C_8
REMARK    3  A    between atoms: C_8  and  C_9
REMARK    4  A    between atoms: C_9  and  C_10
REMARK    5  A    between atoms: C_10  and  S_11
REMARK    6  A    between atoms: S_11  and  C_12
REMARK    7  A    between atoms: C_22  and  C_23
REMARK    8  A    between atoms: C_23  and  C_24
REMARK    9  A    between atoms: C_24  and  C_25
REMARK                            x       y       z     vdW  Elec       q    Type
REMARK                         _______ _______ _______ _____ _____    ______ ____
ROOT
ATOM      1  C   UNL     1       2.267   7.430  18.922  0.00  0.00    +0.000 A 
ATOM      2  C   UNL     1       1.903   8.699  18.433  0.00  0.00    +0.000 A 
ATOM      3  C   UNL     1       1.118   9.510  19.239  0.00  0.00    +0.000 A 
ATOM      4  C   UNL     1       0.756   9.071  20.500  0.00  0.00    +0.000 A 
ATOM      5  C   UNL     1       1.132   7.852  21.009  0.00  0.00    +0.000 A 
ATOM      6  C   UNL     1       1.888   6.984  20.206  0.00  0.00    +0.000 A 
ATOM      7  O   UNL     1      -0.047   9.941  21.183  0.00  0.00    +0.000 OA
ATOM      8  C   UNL     1      -0.543  10.821  20.140  0.00  0.00    +0.000 C 
ATOM      9  C   UNL     1       0.537  10.870  19.036  0.00  0.00    +0.000 C 
ENDROOT
BRANCH   1  10
ATOM     10  O   UNL     1       2.998   6.593  18.122  0.00  0.00    +0.000 OA
ATOM     11  H   UNL     1       3.890   6.494  18.493  0.00  0.00    +0.000 HD
ENDBRANCH   1  10
BRANCH   6  12
ATOM     12  C   UNL     1       2.090   5.602  20.781  0.00  0.00    +0.000 C 
BRANCH  12  13
ATOM     13  C   UNL     1       1.423   4.378  20.166  0.00  0.00    +0.000 C 
BRANCH  13  14
ATOM     14  C   UNL     1       2.175   3.071  20.407  0.00  0.00    +0.000 C 
BRANCH  14  15
ATOM     15  S   UNL     1       2.647   2.437  18.772  0.00  0.00    +0.000 S 
BRANCH  15  16
ATOM     16  C   UNL     1       4.044   3.403  18.380  0.00  0.00    +0.000 A 
ATOM     17  N   UNL     1       4.834   3.925  19.288  0.00  0.00    +0.000 NA
ATOM     18  C   UNL     1       5.778   4.730  18.667  0.00  0.00    +0.000 A 
ATOM     19  C   UNL     1       6.758   5.512  19.311  0.00  0.00    +0.000 A 
ATOM     20  C   UNL     1       7.618   6.315  18.553  0.00  0.00    +0.000 A 
ATOM     21  C   UNL     1       7.540   6.319  17.163  0.00  0.00    +0.000 A 
ATOM     22  C   UNL     1       6.595   5.533  16.498  0.00  0.00    +0.000 A 
ATOM     23  C   UNL     1       5.712   4.764  17.272  0.00  0.00    +0.000 A 
ATOM     24  S   UNL     1       4.416   3.767  16.749  0.00  0.00    +0.000 S 
ENDBRANCH  15  16
ENDBRANCH  14  15
ENDBRANCH  13  14
ENDBRANCH  12  13
ENDBRANCH   6  12
BRANCH   8  25
ATOM     25  C   UNL     1      -0.925  12.131  20.832  0.00  0.00    +0.000 C 
BRANCH  25  26
ATOM     26  C   UNL     1      -0.570  12.180  22.313  0.00  0.00    +0.000 C 
BRANCH  26  27
ATOM     27  C   UNL     1      -1.693  12.782  23.130  0.00  0.00    +0.000 A 
ATOM     28  C   UNL     1      -2.864  12.052  23.375  0.00  0.00    +0.000 A 
ATOM     29  C   UNL     1      -3.903  12.608  24.125  0.00  0.00    +0.000 A 
ATOM     30  C   UNL     1      -3.789  13.900  24.631  0.00  0.00    +0.000 A 
ATOM     31  C   UNL     1      -2.638  14.643  24.382  0.00  0.00    +0.000 A 
ATOM     32  C   UNL     1      -1.595  14.088  23.633  0.00  0.00    +0.000 A 
ENDBRANCH  26  27
ENDBRANCH  25  26
ENDBRANCH   8  25
TORSDOF 9
ENDMDL
MODEL 3
REMARK VINA RESULT:      -8.1      1.326      2.020
REMARK  Name = 
REMARK  9 active torsions:
REMARK  status: ('A' for Active; 'I' for Inactive)
REMARK    1  A    between atoms: O_1  and  C_2
REMARK    2  A    between atoms: C_7  and  C_8
REMARK    3  A    between atoms: C_8  and  C_9
REMARK    4  A    between atoms: C_9  and  C_10
REMARK    5  A    between atoms: C_10  and  S_11
REMARK    6  A    between atoms: S_11  and  C_12
REMARK    7  A    between atoms: C_22  and  C_23
REMARK    8  A    between atoms: C_23  and  C_24
REMARK    9  A    between atoms: C_24  and  C_25
REMARK                            x       y       z     vdW  Elec       q    Type
REMARK                         _______ _______ _______ _____ _____    ______ ____
ROOT
ATOM      1  C   UNL     1       1.787   8.777  18.607  0.00  0.00    +0.000 A 
ATOM      2  C   UNL     1       1.060   9.964  18.828  0.00  0.00    +0.000 A 
ATOM      3  C   UNL     1       0.482  10.154  20.074  0.00  0.00    +0.000 A 
ATOM      4  C   UNL     1       0.670   9.205  21.064  0.00  0.00    +0.000 A 
ATOM      5  C   UNL     1       1.406   8.061  20.880  0.00  0.00    +0.000 A 
ATOM      6  C   UNL     1       1.968   7.809  19.618  0.00  0.00    +0.000 A 
ATOM      7  O   UNL     1       0.022   9.487  22.234  0.00  0.00    +0.000 OA
ATOM      8  C   UNL     1      -0.954  10.486  21.839  0.00  0.00    +0.000 C 
ATOM      9  C   UNL     1      -0.358  11.251  20.636  0.00  0.00    +0.000 C 
ENDROOT
BRANCH   1  10
ATOM     10  O   UNL     1       2.321   8.545  17.368  0.00  0.00    +0.000 OA
ATOM     11  H   UNL     1       3.238   8.863  17.351  0.00  0.00    +0.000 HD
ENDBRANCH   1  10
BRANCH   6  12
ATOM     12  C   UNL     1       2.595   6.445  19.463  0.00  0.00    +0.000 C 
BRANCH  12  13
ATOM     13  C   UNL     1       1.847   5.176  19.853  0.00  0.00    +0.000 C 
BRANCH  13  14
ATOM     14  C   UNL     1       2.442   4.446  21.055  0.00  0.00    +0.000 C 
BRANCH  14  15
ATOM     15  S   UNL     1       3.103   2.873  20.430  0.00  0.00    +0.000 S 
BRANCH  15  16
ATOM     16  C   UNL     1       4.085   3.383  19.084  0.00  0.00    +0.000 A 
ATOM     17  N   UNL     1       5.245   3.977  19.226  0.00  0.00    +0.000 NA
ATOM     18  C   UNL     1       5.720   4.361  17.980  0.00  0.00    +0.000 A 
ATOM     19  C   UNL     1       6.904   5.084  17.726  0.00  0.00    +0.000 A 
ATOM     20  C   UNL     1       7.233   5.442  16.414  0.00  0.00    +0.000 A 
ATOM     21  C   UNL     1       6.422   5.057  15.351  0.00  0.00    +0.000 A 
ATOM     22  C   UNL     1       5.258   4.318  15.572  0.00  0.00    +0.000 A 
ATOM     23  C   UNL     1       4.917   4.000  16.896  0.00  0.00    +0.000 A 
ATOM     24  S   UNL     1       3.529   3.174  17.479  0.00  0.00    +0.000 S 
ENDBRANCH  15  16
ENDBRANCH  14  15
ENDBRANCH  13  14
ENDBRANCH  12  13
ENDBRANCH   6  12
BRANCH   8  25
ATOM     25  C   UNL     1      -1.287  11.281  23.104  0.00  0.00    +0.000 C 
BRANCH  25  26
ATOM     26  C   UNL     1      -1.845  12.673  22.836  0.00  0.00    +0.000 C 
BRANCH  26  27
ATOM     27  C   UNL     1      -3.339  12.724  23.075  0.00  0.00    +0.000 A 
ATOM     28  C   UNL     1      -4.214  13.069  22.036  0.00  0.00    +0.000 A 
ATOM     29  C   UNL     1      -5.593  13.121  22.257  0.00  0.00    +0.000 A 
ATOM     30  C   UNL     1      -6.112  12.836  23.517  0.00  0.00    +0.000 A 
ATOM     31  C   UNL     1      -5.253  12.506  24.563  0.00  0.00    +0.000 A 
ATOM     32  C   UNL     1      -3.873  12.453  24.344  0.00  0.00    +0.000 A 
ENDBRANCH  26  27
ENDBRANCH  25  26
ENDBRANCH   8  25
TORSDOF 9
ENDMDL
MODEL 4
REMARK VINA RESULT:      -8.0      2.900      4.161
REMARK  Name = 
REMARK  9 active torsions:
REMARK  status: ('A' for Active; 'I' for Inactive)
REMARK    1  A    between atoms: O_1  and  C_2
REMARK    2  A    between atoms: C_7  and  C_8
REMARK    3  A    between atoms: C_8  and  C_9
REMARK    4  A    between atoms: C_9  and  C_10
REMARK    5  A    between atoms: C_10  and  S_11
REMARK    6  A    between atoms: S_11  and  C_12
REMARK    7  A    between atoms: C_22  and  C_23
REMARK    8  A    between atoms: C_23  and  C_24
REMARK    9  A    between atoms: C_24  and  C_25
REMARK                            x       y       z     vdW  Elec       q    Type
REMARK                         _______ _______ _______ _____ _____    ______ ____
ROOT
ATOM      1  C   UNL     1       1.906   6.948  20.249  0.00  0.00    +0.000 A 
ATOM      2  C   UNL     1       1.208   7.858  21.066  0.00  0.00    +0.000 A 
ATOM      3  C   UNL     1       0.907   9.108  20.544  0.00  0.00    +0.000 A 
ATOM      4  C   UNL     1       1.259   9.404  19.239  0.00  0.00    +0.000 A 
ATOM      5  C   UNL     1       1.907   8.516  18.415  0.00  0.00    +0.000 A 
ATOM      6  C   UNL     1       2.270   7.258  18.921  0.00  0.00    +0.000 A 
ATOM      7  O   UNL     1       0.943  10.676  18.853  0.00  0.00    +0.000 OA
ATOM      8  C   UNL     1       0.722  11.359  20.114  0.00  0.00    +0.000 C 
ATOM      9  C   UNL     1       0.221  10.300  21.122  0.00  0.00    +0.000 C 
ENDROOT
BRANCH   1  10
ATOM     10  O   UNL     1       2.259   5.728  20.762  0.00  0.00    +0.000 OA
ATOM     11  H   UNL     1       2.238   5.065  20.052  0.00  0.00    +0.000 HD
ENDBRANCH   1  10
BRANCH   6  12
ATOM     12  C   UNL     1       3.138   6.431  18.003  0.00  0.00    +0.000 C 
BRANCH  12  13
ATOM     13  C   UNL     1       4.649   6.622  17.951  0.00  0.00    +0.000 C 
BRANCH  13  14
ATOM     14  C   UNL     1       5.442   5.505  18.625  0.00  0.00    +0.000 C 
BRANCH  14  15
ATOM     15  S   UNL     1       7.140   5.618  17.988  0.00  0.00    +0.000 S 
BRANCH  15  16
ATOM     16  C   UNL     1       6.973   5.019  16.359  0.00  0.00    +0.000 A 
ATOM     17  N   UNL     1       7.699   5.453  15.357  0.00  0.00    +0.000 NA
ATOM     18  C   UNL     1       7.250   4.871  14.179  0.00  0.00    +0.000 A 
ATOM     19  C   UNL     1       7.734   5.137  12.882  0.00  0.00    +0.000 A 
ATOM     20  C   UNL     1       7.150   4.505  11.778  0.00  0.00    +0.000 A 
ATOM     21  C   UNL     1       6.120   3.585  11.953  0.00  0.00    +0.000 A 
ATOM     22  C   UNL     1       5.639   3.284  13.229  0.00  0.00    +0.000 A 
ATOM     23  C   UNL     1       6.206   3.955  14.324  0.00  0.00    +0.000 A 
ATOM     24  S   UNL     1       5.781   3.849  15.985  0.00  0.00    +0.000 S 
ENDBRANCH  15  16
ENDBRANCH  14  15
ENDBRANCH  13  14
ENDBRANCH  12  13
ENDBRANCH   6  12
BRANCH   8  25
ATOM     25  C   UNL     1      -0.193  12.546  19.803  0.00  0.00    +0.000 C 
BRANCH  25  26
ATOM     26  C   UNL     1      -0.656  12.611  18.352  0.00  0.00    +0.000 C 
BRANCH  26  27
ATOM     27  C   UNL     1      -1.995  11.931  18.170  0.00  0.00    +0.000 A 
ATOM     28  C   UNL     1      -2.206  11.049  17.102  0.00  0.00    +0.000 A 
ATOM     29  C   UNL     1      -3.444  10.424  16.930  0.00  0.00    +0.000 A 
ATOM     30  C   UNL     1      -4.486  10.677  17.818  0.00  0.00    +0.000 A 
ATOM     31  C   UNL     1      -4.296  11.563  18.875  0.00  0.00    +0.000 A 
ATOM     32  C   UNL     1      -3.058  12.190  19.050  0.00  0.00    +0.000 A 
ENDBRANCH  26  27
ENDBRANCH  25  26
ENDBRANCH   8  25
TORSDOF 9
ENDMDL
MODEL 5
REMARK VINA RESULT:      -7.9      1.134      1.617
REMARK  Name = 
REMARK  9 active torsions:
REMARK  status: ('A' for Active; 'I' for Inactive)
REMARK    1  A    between atoms: O_1  and  C_2
REMARK    2  A    between atoms: C_7  and  C_8
REMARK    3  A    between atoms: C_8  and  C_9
REMARK    4  A    between atoms: C_9  and  C_10
REMARK    5  A    between atoms: C_10  and  S_11
REMARK    6  A    between atoms: S_11  and  C_12
REMARK    7  A    between atoms: C_22  and  C_23
REMARK    8  A    between atoms: C_23  and  C_24
REMARK    9  A    between atoms: C_24  and  C_25
REMARK                            x       y       z     vdW  Elec       q    Type
REMARK                         _______ _______ _______ _____ _____    ______ ____
ROOT
ATOM      1  C   UNL     1       2.314   7.138  18.933  0.00  0.00    +0.000 A 
ATOM      2  C   UNL     1       2.023   8.476  18.603  0.00  0.00    +0.000 A 
ATOM      3  C   UNL     1       1.316   9.237  19.522  0.00  0.00    +0.000 A 
ATOM      4  C   UNL     1       0.960   8.680  20.737  0.00  0.00    +0.000 A 
ATOM      5  C   UNL     1       1.267   7.390  21.093  0.00  0.00    +0.000 A 
ATOM      6  C   UNL     1       1.941   6.573  20.171  0.00  0.00    +0.000 A 
ATOM      7  O   UNL     1       0.236   9.516  21.542  0.00  0.00    +0.000 OA
ATOM      8  C   UNL     1      -0.228  10.538  20.622  0.00  0.00    +0.000 C 
ATOM      9  C   UNL     1       0.822  10.645  19.494  0.00  0.00    +0.000 C 
ENDROOT
BRANCH   1  10
ATOM     10  O   UNL     1       2.965   6.354  18.019  0.00  0.00    +0.000 OA
ATOM     11  H   UNL     1       2.310   5.870  17.489  0.00  0.00    +0.000 HD
ENDBRANCH   1  10
BRANCH   6  12
ATOM     12  C   UNL     1       2.065   5.124  20.579  0.00  0.00    +0.000 C 
BRANCH  12  13
ATOM     13  C   UNL     1       1.058   4.078  20.120  0.00  0.00    +0.000 C 
BRANCH  13  14
ATOM     14  C   UNL     1       1.676   2.721  19.789  0.00  0.00    +0.000 C 
BRANCH  14  15
ATOM     15  S   UNL     1       3.376   2.757  20.428  0.00  0.00    +0.000 S 
BRANCH  15  16
ATOM     16  C   UNL     1       4.289   3.297  19.045  0.00  0.00    +0.000 A 
ATOM     17  N   UNL     1       5.461   3.879  19.140  0.00  0.00    +0.000 NA
ATOM     18  C   UNL     1       5.872   4.294  17.882  0.00  0.00    +0.000 A 
ATOM     19  C   UNL     1       7.046   5.015  17.585  0.00  0.00    +0.000 A 
ATOM     20  C   UNL     1       7.308   5.406  16.267  0.00  0.00    +0.000 A 
ATOM     21  C   UNL     1       6.438   5.056  15.239  0.00  0.00    +0.000 A 
ATOM     22  C   UNL     1       5.280   4.320  15.501  0.00  0.00    +0.000 A 
ATOM     23  C   UNL     1       5.008   3.968  16.833  0.00  0.00    +0.000 A 
ATOM     24  S   UNL     1       3.646   3.137  17.467  0.00  0.00    +0.000 S 
ENDBRANCH  15  16
ENDBRANCH  14  15
ENDBRANCH  13  14
ENDBRANCH  12  13
ENDBRANCH   6  12
BRANCH   8  25
ATOM     25  C   UNL     1      -0.502  11.782  21.470  0.00  0.00    +0.000 C 
BRANCH  25  26
ATOM     26  C   UNL     1      -1.633  12.658  20.944  0.00  0.00    +0.000 C 
BRANCH  26  27
ATOM     27  C   UNL     1      -2.801  12.686  21.907  0.00  0.00    +0.000 A 
ATOM     28  C   UNL     1      -4.080  13.045  21.462  0.00  0.00    +0.000 A 
ATOM     29  C   UNL     1      -5.159  13.077  22.350  0.00  0.00    +0.000 A 
ATOM     30  C   UNL     1      -4.970  12.756  23.693  0.00  0.00    +0.000 A 
ATOM     31  C   UNL     1      -3.702  12.413  24.152  0.00  0.00    +0.000 A 
ATOM     32  C   UNL     1      -2.621  12.380  23.265  0.00  0.00    +0.000 A 
ENDBRANCH  26  27
ENDBRANCH  25  26
ENDBRANCH   8  25
TORSDOF 9
ENDMDL
MODEL 6
REMARK VINA RESULT:      -7.9      2.572      4.909
REMARK  Name = 
REMARK  9 active torsions:
REMARK  status: ('A' for Active; 'I' for Inactive)
REMARK    1  A    between atoms: O_1  and  C_2
REMARK    2  A    between atoms: C_7  and  C_8
REMARK    3  A    between atoms: C_8  and  C_9
REMARK    4  A    between atoms: C_9  and  C_10
REMARK    5  A    between atoms: C_10  and  S_11
REMARK    6  A    between atoms: S_11  and  C_12
REMARK    7  A    between atoms: C_22  and  C_23
REMARK    8  A    between atoms: C_23  and  C_24
REMARK    9  A    between atoms: C_24  and  C_25
REMARK                            x       y       z     vdW  Elec       q    Type
REMARK                         _______ _______ _______ _____ _____    ______ ____
ROOT
ATOM      1  C   UNL     1       2.348   7.560  19.631  0.00  0.00    +0.000 A 
ATOM      2  C   UNL     1       1.374   8.177  20.442  0.00  0.00    +0.000 A 
ATOM      3  C   UNL     1       0.801   9.357  19.992  0.00  0.00    +0.000 A 
ATOM      4  C   UNL     1       1.166   9.864  18.757  0.00  0.00    +0.000 A 
ATOM      5  C   UNL     1       2.085   9.258  17.937  0.00  0.00    +0.000 A 
ATOM      6  C   UNL     1       2.722   8.087  18.377  0.00  0.00    +0.000 A 
ATOM      7  O   UNL     1       0.561  11.048  18.442  0.00  0.00    +0.000 OA
ATOM      8  C   UNL     1       0.071  11.521  19.724  0.00  0.00    +0.000 C 
ATOM      9  C   UNL     1      -0.215  10.272  20.588  0.00  0.00    +0.000 C 
ENDROOT
BRANCH   1  10
ATOM     10  O   UNL     1       2.964   6.423  20.080  0.00  0.00    +0.000 OA
ATOM     11  H   UNL     1       3.535   6.071  19.378  0.00  0.00    +0.000 HD
ENDBRANCH   1  10
BRANCH   6  12
ATOM     12  C   UNL     1       3.845   7.604  17.491  0.00  0.00    +0.000 C 
BRANCH  12  13
ATOM     13  C   UNL     1       3.923   6.156  17.022  0.00  0.00    +0.000 C 
BRANCH  13  14
ATOM     14  C   UNL     1       5.262   5.776  16.392  0.00  0.00    +0.000 C 
BRANCH  14  15
ATOM     15  S   UNL     1       5.307   3.961  16.328  0.00  0.00    +0.000 S 
BRANCH  15  16
ATOM     16  C   UNL     1       4.231   3.510  17.623  0.00  0.00    +0.000 A 
ATOM     17  N   UNL     1       2.949   3.293  17.448  0.00  0.00    +0.000 NA
ATOM     18  C   UNL     1       2.349   3.070  18.679  0.00  0.00    +0.000 A 
ATOM     19  C   UNL     1       0.974   2.864  18.911  0.00  0.00    +0.000 A 
ATOM     20  C   UNL     1       0.505   2.697  20.219  0.00  0.00    +0.000 A 
ATOM     21  C   UNL     1       1.390   2.693  21.292  0.00  0.00    +0.000 A 
ATOM     22  C   UNL     1       2.761   2.868  21.089  0.00  0.00    +0.000 A 
ATOM     23  C   UNL     1       3.214   3.076  19.777  0.00  0.00    +0.000 A 
ATOM     24  S   UNL     1       4.811   3.387  19.228  0.00  0.00    +0.000 S 
ENDBRANCH  15  16
ENDBRANCH  14  15
ENDBRANCH  13  14
ENDBRANCH  12  13
ENDBRANCH   6  12
BRANCH   8  25
ATOM     25  C   UNL     1      -1.094  12.464  19.414  0.00  0.00    +0.000 C 
BRANCH  25  26
ATOM     26  C   UNL     1      -2.468  11.817  19.533  0.00  0.00    +0.000 C 
BRANCH  26  27
ATOM     27  C   UNL     1      -2.976  11.350  18.186  0.00  0.00    +0.000 A 
ATOM     28  C   UNL     1      -4.171  11.860  17.661  0.00  0.00    +0.000 A 
ATOM     29  C   UNL     1      -4.643  11.426  16.419  0.00  0.00    +0.000 A 
ATOM     30  C   UNL     1      -3.932  10.475  15.692  0.00  0.00    +0.000 A 
ATOM     31  C   UNL     1      -2.751   9.948  16.209  0.00  0.00    +0.000 A 
ATOM     32  C   UNL     1      -2.276  10.381  17.451  0.00  0.00    +0.000 A 
ENDBRANCH  26  27
ENDBRANCH  25  26
ENDBRANCH   8  25
TORSDOF 9
ENDMDL
MODEL 7
REMARK VINA RESULT:      -7.9      2.677      5.104
REMARK  Name = 
REMARK  9 active torsions:
REMARK  status: ('A' for Active; 'I' for Inactive)
REMARK    1  A    between atoms: O_1  and  C_2
REMARK    2  A    between atoms: C_7  and  C_8
REMARK    3  A    between atoms: C_8  and  C_9
REMARK    4  A    between atoms: C_9  and  C_10
REMARK    5  A    between atoms: C_10  and  S_11
REMARK    6  A    between atoms: S_11  and  C_12
REMARK    7  A    between atoms: C_22  and  C_23
REMARK    8  A    between atoms: C_23  and  C_24
REMARK    9  A    between atoms: C_24  and  C_25
REMARK                            x       y       z     vdW  Elec       q    Type
REMARK                         _______ _______ _______ _____ _____    ______ ____
ROOT
ATOM      1  C   UNL     1       2.688   7.236  19.496  0.00  0.00    +0.000 A 
ATOM      2  C   UNL     1       1.747   7.844  20.350  0.00  0.00    +0.000 A 
ATOM      3  C   UNL     1       1.110   8.994  19.908  0.00  0.00    +0.000 A 
ATOM      4  C   UNL     1       1.382   9.480  18.642  0.00  0.00    +0.000 A 
ATOM      5  C   UNL     1       2.268   8.881  17.780  0.00  0.00    +0.000 A 
ATOM      6  C   UNL     1       2.968   7.742  18.208  0.00  0.00    +0.000 A 
ATOM      7  O   UNL     1       0.722  10.637  18.336  0.00  0.00    +0.000 OA
ATOM      8  C   UNL     1       0.296  11.127  19.635  0.00  0.00    +0.000 C 
ATOM      9  C   UNL     1       0.103   9.893  20.545  0.00  0.00    +0.000 C 
ENDROOT
BRANCH   1  10
ATOM     10  O   UNL     1       3.366   6.130  19.932  0.00  0.00    +0.000 OA
ATOM     11  H   UNL     1       3.715   6.301  20.822  0.00  0.00    +0.000 HD
ENDBRANCH   1  10
BRANCH   6  12
ATOM     12  C   UNL     1       4.049   7.270  17.266  0.00  0.00    +0.000 C 
BRANCH  12  13
ATOM     13  C   UNL     1       4.922   6.066  17.594  0.00  0.00    +0.000 C 
BRANCH  13  14
ATOM     14  C   UNL     1       5.653   5.478  16.388  0.00  0.00    +0.000 C 
BRANCH  14  15
ATOM     15  S   UNL     1       5.210   3.717  16.323  0.00  0.00    +0.000 S 
BRANCH  15  16
ATOM     16  C   UNL     1       4.093   3.558  17.651  0.00  0.00    +0.000 A 
ATOM     17  N   UNL     1       4.471   3.299  18.881  0.00  0.00    +0.000 NA
ATOM     18  C   UNL     1       3.350   3.118  19.677  0.00  0.00    +0.000 A 
ATOM     19  C   UNL     1       3.346   2.759  21.041  0.00  0.00    +0.000 A 
ATOM     20  C   UNL     1       2.131   2.566  21.707  0.00  0.00    +0.000 A 
ATOM     21  C   UNL     1       0.922   2.762  21.045  0.00  0.00    +0.000 A 
ATOM     22  C   UNL     1       0.897   3.142  19.701  0.00  0.00    +0.000 A 
ATOM     23  C   UNL     1       2.123   3.294  19.033  0.00  0.00    +0.000 A 
ATOM     24  S   UNL     1       2.407   3.680  17.384  0.00  0.00    +0.000 S 
ENDBRANCH  15  16
ENDBRANCH  14  15
ENDBRANCH  13  14
ENDBRANCH  12  13
ENDBRANCH   6  12
BRANCH   8  25
ATOM     25  C   UNL     1      -0.915  12.027  19.376  0.00  0.00    +0.000 C 
BRANCH  25  26
ATOM     26  C   UNL     1      -2.254  11.305  19.448  0.00  0.00    +0.000 C 
BRANCH  26  27
ATOM     27  C   UNL     1      -2.802  11.020  18.066  0.00  0.00    +0.000 A 
ATOM     28  C   UNL     1      -3.921  11.713  17.588  0.00  0.00    +0.000 A 
ATOM     29  C   UNL     1      -4.431  11.448  16.314  0.00  0.00    +0.000 A 
ATOM     30  C   UNL     1      -3.833  10.483  15.507  0.00  0.00    +0.000 A 
ATOM     31  C   UNL     1      -2.729   9.775  15.975  0.00  0.00    +0.000 A 
ATOM     32  C   UNL     1      -2.217  10.039  17.249  0.00  0.00    +0.000 A 
ENDBRANCH  26  27
ENDBRANCH  25  26
ENDBRANCH   8  25
TORSDOF 9
ENDMDL
MODEL 8
REMARK VINA RESULT:      -7.8      2.061      2.869
REMARK  Name = 
REMARK  9 active torsions:
REMARK  status: ('A' for Active; 'I' for Inactive)
REMARK    1  A    between atoms: O_1  and  C_2
REMARK    2  A    between atoms: C_7  and  C_8
REMARK    3  A    between atoms: C_8  and  C_9
REMARK    4  A    between atoms: C_9  and  C_10
REMARK    5  A    between atoms: C_10  and  S_11
REMARK    6  A    between atoms: S_11  and  C_12
REMARK    7  A    between atoms: C_22  and  C_23
REMARK    8  A    between atoms: C_23  and  C_24
REMARK    9  A    between atoms: C_24  and  C_25
REMARK                            x       y       z     vdW  Elec       q    Type
REMARK                         _______ _______ _______ _____ _____    ______ ____
ROOT
ATOM      1  C   UNL     1       2.443   8.035  18.385  0.00  0.00    +0.000 A 
ATOM      2  C   UNL     1       1.831   9.245  18.003  0.00  0.00    +0.000 A 
ATOM      3  C   UNL     1       0.960   9.848  18.898  0.00  0.00    +0.000 A 
ATOM      4  C   UNL     1       0.753   9.273  20.139  0.00  0.00    +0.000 A 
ATOM      5  C   UNL     1       1.369   8.114  20.544  0.00  0.00    +0.000 A 
ATOM      6  C   UNL     1       2.222   7.449  19.649  0.00  0.00    +0.000 A 
ATOM      7  O   UNL     1      -0.153   9.939  20.916  0.00  0.00    +0.000 OA
ATOM      8  C   UNL     1      -0.856  10.775  19.960  0.00  0.00    +0.000 C 
ATOM      9  C   UNL     1       0.135  11.088  18.817  0.00  0.00    +0.000 C 
ENDROOT
BRANCH   1  10
ATOM     10  O   UNL     1       3.266   7.396  17.497  0.00  0.00    +0.000 OA
ATOM     11  H   UNL     1       2.738   6.793  16.949  0.00  0.00    +0.000 HD
ENDBRANCH   1  10
BRANCH   6  12
ATOM     12  C   UNL     1       2.699   6.095  20.116  0.00  0.00    +0.000 C 
BRANCH  12  13
ATOM     13  C   UNL     1       1.724   5.032  20.607  0.00  0.00    +0.000 C 
BRANCH  13  14
ATOM     14  C   UNL     1       2.391   3.853  21.312  0.00  0.00    +0.000 C 
BRANCH  14  15
ATOM     15  S   UNL     1       2.567   2.540  20.069  0.00  0.00    +0.000 S 
BRANCH  15  16
ATOM     16  C   UNL     1       3.713   3.229  18.950  0.00  0.00    +0.000 A 
ATOM     17  N   UNL     1       4.926   3.589  19.296  0.00  0.00    +0.000 NA
ATOM     18  C   UNL     1       5.546   4.207  18.219  0.00  0.00    +0.000 A 
ATOM     19  C   UNL     1       6.830   4.788  18.219  0.00  0.00    +0.000 A 
ATOM     20  C   UNL     1       7.308   5.420  17.065  0.00  0.00    +0.000 A 
ATOM     21  C   UNL     1       6.542   5.446  15.904  0.00  0.00    +0.000 A 
ATOM     22  C   UNL     1       5.276   4.856  15.869  0.00  0.00    +0.000 A 
ATOM     23  C   UNL     1       4.792   4.261  17.044  0.00  0.00    +0.000 A 
ATOM     24  S   UNL     1       3.265   3.527  17.325  0.00  0.00    +0.000 S 
ENDBRANCH  15  16
ENDBRANCH  14  15
ENDBRANCH  13  14
ENDBRANCH  12  13
ENDBRANCH   6  12
BRANCH   8  25
ATOM     25  C   UNL     1      -1.428  11.949  20.760  0.00  0.00    +0.000 C 
BRANCH  25  26
ATOM     26  C   UNL     1      -2.245  12.930  19.927  0.00  0.00    +0.000 C 
BRANCH  26  27
ATOM     27  C   UNL     1      -3.614  12.371  19.605  0.00  0.00    +0.000 A 
ATOM     28  C   UNL     1      -3.823  11.632  18.433  0.00  0.00    +0.000 A 
ATOM     29  C   UNL     1      -5.087  11.120  18.132  0.00  0.00    +0.000 A 
ATOM     30  C   UNL     1      -6.158  11.344  18.993  0.00  0.00    +0.000 A 
ATOM     31  C   UNL     1      -5.969  12.090  20.154  0.00  0.00    +0.000 A 
ATOM     32  C   UNL     1      -4.704  12.603  20.458  0.00  0.00    +0.000 A 
ENDBRANCH  26  27
ENDBRANCH  25  26
ENDBRANCH   8  25
TORSDOF 9
ENDMDL
MODEL 9
REMARK VINA RESULT:      -7.8      2.926      4.458
REMARK  Name = 
REMARK  9 active torsions:
REMARK  status: ('A' for Active; 'I' for Inactive)
REMARK    1  A    between atoms: O_1  and  C_2
REMARK    2  A    between atoms: C_7  and  C_8
REMARK    3  A    between atoms: C_8  and  C_9
REMARK    4  A    between atoms: C_9  and  C_10
REMARK    5  A    between atoms: C_10  and  S_11
REMARK    6  A    between atoms: S_11  and  C_12
REMARK    7  A    between atoms: C_22  and  C_23
REMARK    8  A    between atoms: C_23  and  C_24
REMARK    9  A    between atoms: C_24  and  C_25
REMARK                            x       y       z     vdW  Elec       q    Type
REMARK                         _______ _______ _______ _____ _____    ______ ____
ROOT
ATOM      1  C   UNL     1       1.993   6.837  20.304  0.00  0.00    +0.000 A 
ATOM      2  C   UNL     1       1.314   7.857  20.998  0.00  0.00    +0.000 A 
ATOM      3  C   UNL     1       1.067   9.048  20.332  0.00  0.00    +0.000 A 
ATOM      4  C   UNL     1       1.452   9.182  19.010  0.00  0.00    +0.000 A 
ATOM      5  C   UNL     1       2.082   8.186  18.305  0.00  0.00    +0.000 A 
ATOM      6  C   UNL     1       2.391   6.982  18.958  0.00  0.00    +0.000 A 
ATOM      7  O   UNL     1       1.188  10.412  18.475  0.00  0.00    +0.000 OA
ATOM      8  C   UNL     1       0.970  11.241  19.646  0.00  0.00    +0.000 C 
ATOM      9  C   UNL     1       0.414  10.321  20.757  0.00  0.00    +0.000 C 
ENDROOT
BRANCH   1  10
ATOM     10  O   UNL     1       2.293   5.672  20.958  0.00  0.00    +0.000 OA
ATOM     11  H   UNL     1       3.200   5.406  20.737  0.00  0.00    +0.000 HD
ENDBRANCH   1  10
BRANCH   6  12
ATOM     12  C   UNL     1       3.245   6.028  18.158  0.00  0.00    +0.000 C 
BRANCH  12  13
ATOM     13  C   UNL     1       4.310   6.531  17.192  0.00  0.00    +0.000 C 
BRANCH  13  14
ATOM     14  C   UNL     1       5.625   6.921  17.863  0.00  0.00    +0.000 C 
BRANCH  14  15
ATOM     15  S   UNL     1       6.629   5.410  17.952  0.00  0.00    +0.000 S 
BRANCH  15  16
ATOM     16  C   UNL     1       6.713   4.912  16.284  0.00  0.00    +0.000 A 
ATOM     17  N   UNL     1       7.517   5.466  15.409  0.00  0.00    +0.000 NA
ATOM     18  C   UNL     1       7.265   4.934  14.152  0.00  0.00    +0.000 A 
ATOM     19  C   UNL     1       7.880   5.322  12.945  0.00  0.00    +0.000 A 
ATOM     20  C   UNL     1       7.490   4.725  11.741  0.00  0.00    +0.000 A 
ATOM     21  C   UNL     1       6.526   3.720  11.729  0.00  0.00    +0.000 A 
ATOM     22  C   UNL     1       5.919   3.298  12.915  0.00  0.00    +0.000 A 
ATOM     23  C   UNL     1       6.290   3.934  14.110  0.00  0.00    +0.000 A 
ATOM     24  S   UNL     1       5.676   3.684  15.694  0.00  0.00    +0.000 S 
ENDBRANCH  15  16
ENDBRANCH  14  15
ENDBRANCH  13  14
ENDBRANCH  12  13
ENDBRANCH   6  12
BRANCH   8  25
ATOM     25  C   UNL     1       0.104  12.415  19.183  0.00  0.00    +0.000 C 
BRANCH  25  26
ATOM     26  C   UNL     1      -1.388  12.225  19.432  0.00  0.00    +0.000 C 
BRANCH  26  27
ATOM     27  C   UNL     1      -2.028  11.400  18.336  0.00  0.00    +0.000 A 
ATOM     28  C   UNL     1      -2.650  10.181  18.635  0.00  0.00    +0.000 A 
ATOM     29  C   UNL     1      -3.237   9.416  17.624  0.00  0.00    +0.000 A 
ATOM     30  C   UNL     1      -3.204   9.856  16.303  0.00  0.00    +0.000 A 
ATOM     31  C   UNL     1      -2.576  11.059  15.989  0.00  0.00    +0.000 A 
ATOM     32  C   UNL     1      -1.988  11.826  16.999  0.00  0.00    +0.000 A 
ENDBRANCH  26  27
ENDBRANCH  25  26
ENDBRANCH   8  25
TORSDOF 9
ENDMDL
