MODEL 1
REMARK VINA RESULT:      -7.7      0.000      0.000
REMARK  Name = 
REMARK  0 active torsions:
REMARK  status: ('A' for Active; 'I' for Inactive)
REMARK                            x       y       z     vdW  Elec       q    Type
REMARK                         _______ _______ _______ _____ _____    ______ ____
ROOT
ATOM      1  O   UNL     1       7.974   5.641  18.648  0.00  0.00    +0.000 OA
ATOM      2  C   UNL     1       6.845   5.340  18.248  0.00  0.00    +0.000 C 
ATOM      3  C   UNL     1       6.113   6.285  17.318  0.00  0.00    +0.000 C 
ATOM      4  C   UNL     1       4.630   6.512  17.541  0.00  0.00    +0.000 C 
ATOM      5  C   UNL     1       3.832   5.247  17.298  0.00  0.00    +0.000 C 
ATOM      6  N   UNL     1       3.931   4.360  18.432  0.00  0.00    +0.000 N 
ATOM      7  C   UNL     1       5.092   3.822  18.922  0.00  0.00    +0.000 A 
ATOM      8  N   UNL     1       4.844   2.987  19.905  0.00  0.00    +0.000 NA
ATOM      9  C   UNL     1       3.506   3.111  20.164  0.00  0.00    +0.000 A 
ATOM     10  C   UNL     1       2.749   2.541  21.199  0.00  0.00    +0.000 A 
ATOM     11  C   UNL     1       1.379   2.833  21.262  0.00  0.00    +0.000 A 
ATOM     12  C   UNL     1       0.778   3.655  20.308  0.00  0.00    +0.000 A 
ATOM     13  C   UNL     1       1.522   4.231  19.270  0.00  0.00    +0.000 A 
ATOM     14  C   UNL     1       2.892   3.952  19.240  0.00  0.00    +0.000 A 
ATOM     15  N   UNL     1       6.377   4.095  18.539  0.00  0.00    +0.000 N 
ATOM     16  H   UNL     1       7.038   3.566  19.097  0.00  0.00    +0.000 HD
ENDROOT
TORSDOF 0
ENDMDL
MODEL 2
REMARK VINA RESULT:      -7.5      2.406      4.882
REMARK  Name = 
REMARK  0 active torsions:
REMARK  status: ('A' for Active; 'I' for Inactive)
REMARK                            x       y       z     vdW  Elec       q    Type
REMARK                         _______ _______ _______ _____ _____    ______ ____
ROOT
ATOM      1  O   UNL     1       2.047   3.302  22.183  0.00  0.00    +0.000 OA
ATOM      2  C   UNL     1       2.094   3.707  21.017  0.00  0.00    +0.000 C 
ATOM      3  C   UNL     1       1.073   3.206  20.018  0.00  0.00    +0.000 C 
ATOM      4  C   UNL     1       1.542   2.863  18.617  0.00  0.00    +0.000 C 
ATOM      5  C   UNL     1       2.035   4.093  17.881  0.00  0.00    +0.000 C 
ATOM      6  N   UNL     1       3.369   4.439  18.311  0.00  0.00    +0.000 N 
ATOM      7  C   UNL     1       3.733   4.763  19.592  0.00  0.00    +0.000 A 
ATOM      8  N   UNL     1       4.997   5.114  19.646  0.00  0.00    +0.000 NA
ATOM      9  C   UNL     1       5.505   4.856  18.401  0.00  0.00    +0.000 A 
ATOM     10  C   UNL     1       6.833   4.928  17.955  0.00  0.00    +0.000 A 
ATOM     11  C   UNL     1       7.107   4.596  16.621  0.00  0.00    +0.000 A 
ATOM     12  C   UNL     1       6.081   4.220  15.751  0.00  0.00    +0.000 A 
ATOM     13  C   UNL     1       4.751   4.143  16.185  0.00  0.00    +0.000 A 
ATOM     14  C   UNL     1       4.501   4.449  17.525  0.00  0.00    +0.000 A 
ATOM     15  N   UNL     1       2.969   4.709  20.726  0.00  0.00    +0.000 N 
ATOM     16  H   UNL     1       3.512   4.982  21.538  0.00  0.00    +0.000 HD
ENDROOT
TORSDOF 0
ENDMDL
MODEL 3
REMARK VINA RESULT:      -7.4      1.047      1.157
REMARK  Name = 
REMARK  0 active torsions:
REMARK  status: ('A' for Active; 'I' for Inactive)
REMARK                            x       y       z     vdW  Elec       q    Type
REMARK                         _______ _______ _______ _____ _____    ______ ____
ROOT
ATOM      1  O   UNL     1       8.136   6.448  19.026  0.00  0.00    +0.000 OA
ATOM      2  C   UNL     1       7.265   5.930  18.319  0.00  0.00    +0.000 C 
ATOM      3  C   UNL     1       6.785   6.659  17.083  0.00  0.00    +0.000 C 
ATOM      4  C   UNL     1       5.301   6.652  16.770  0.00  0.00    +0.000 C 
ATOM      5  C   UNL     1       4.809   5.255  16.449  0.00  0.00    +0.000 C 
ATOM      6  N   UNL     1       4.622   4.493  17.661  0.00  0.00    +0.000 N 
ATOM      7  C   UNL     1       5.600   4.199  18.574  0.00  0.00    +0.000 A 
ATOM      8  N   UNL     1       5.137   3.417  19.522  0.00  0.00    +0.000 NA
ATOM      9  C   UNL     1       3.788   3.335  19.306  0.00  0.00    +0.000 A 
ATOM     10  C   UNL     1       2.800   2.733  20.099  0.00  0.00    +0.000 A 
ATOM     11  C   UNL     1       1.468   2.795  19.666  0.00  0.00    +0.000 A 
ATOM     12  C   UNL     1       1.134   3.424  18.465  0.00  0.00    +0.000 A 
ATOM     13  C   UNL     1       2.111   4.030  17.665  0.00  0.00    +0.000 A 
ATOM     14  C   UNL     1       3.429   3.983  18.127  0.00  0.00    +0.000 A 
ATOM     15  N   UNL     1       6.892   4.652  18.604  0.00  0.00    +0.000 N 
ATOM     16  H   UNL     1       7.381   4.289  19.415  0.00  0.00    +0.000 HD
ENDROOT
TORSDOF 0
ENDMDL
MODEL 4
REMARK VINA RESULT:      -7.3      1.449      1.457
REMARK  Name = 
REMARK  0 active torsions:
REMARK  status: ('A' for Active; 'I' for Inactive)
REMARK                            x       y       z     vdW  Elec       q    Type
REMARK                         _______ _______ _______ _____ _____    ______ ____
ROOT
ATOM      1  O   UNL     1       7.865   4.155  16.688  0.00  0.00    +0.000 OA
ATOM      2  C   UNL     1       6.713   4.596  16.752  0.00  0.00    +0.000 C 
ATOM      3  C   UNL     1       6.495   6.093  16.804  0.00  0.00    +0.000 C 
ATOM      4  C   UNL     1       5.439   6.637  17.748  0.00  0.00    +0.000 C 
ATOM      5  C   UNL     1       4.050   6.191  17.341  0.00  0.00    +0.000 C 
ATOM      6  N   UNL     1       3.812   4.830  17.757  0.00  0.00    +0.000 N 
ATOM      7  C   UNL     1       4.539   3.738  17.362  0.00  0.00    +0.000 A 
ATOM      8  N   UNL     1       4.023   2.631  17.843  0.00  0.00    +0.000 NA
ATOM      9  C   UNL     1       3.034   3.028  18.701  0.00  0.00    +0.000 A 
ATOM     10  C   UNL     1       2.255   2.252  19.573  0.00  0.00    +0.000 A 
ATOM     11  C   UNL     1       1.303   2.901  20.373  0.00  0.00    +0.000 A 
ATOM     12  C   UNL     1       1.121   4.282  20.290  0.00  0.00    +0.000 A 
ATOM     13  C   UNL     1       1.892   5.069  19.425  0.00  0.00    +0.000 A 
ATOM     14  C   UNL     1       2.856   4.408  18.657  0.00  0.00    +0.000 A 
ATOM     15  N   UNL     1       5.686   3.713  16.615  0.00  0.00    +0.000 N 
ATOM     16  H   UNL     1       6.019   2.762  16.501  0.00  0.00    +0.000 HD
ENDROOT
TORSDOF 0
ENDMDL
MODEL 5
REMARK VINA RESULT:      -7.1      1.566      1.882
REMARK  Name = 
REMARK  0 active torsions:
REMARK  status: ('A' for Active; 'I' for Inactive)
REMARK                            x       y       z     vdW  Elec       q    Type
REMARK                         _______ _______ _______ _____ _____    ______ ____
ROOT
ATOM      1  O   UNL     1       8.396   4.095  17.670  0.00  0.00    +0.000 OA
ATOM      2  C   UNL     1       7.321   4.660  17.441  0.00  0.00    +0.000 C 
ATOM      3  C   UNL     1       7.329   6.045  16.830  0.00  0.00    +0.000 C 
ATOM      4  C   UNL     1       6.345   7.072  17.356  0.00  0.00    +0.000 C 
ATOM      5  C   UNL     1       4.914   6.671  17.061  0.00  0.00    +0.000 C 
ATOM      6  N   UNL     1       4.465   5.668  17.998  0.00  0.00    +0.000 N 
ATOM      7  C   UNL     1       5.030   4.432  18.171  0.00  0.00    +0.000 A 
ATOM      8  N   UNL     1       4.343   3.719  19.033  0.00  0.00    +0.000 NA
ATOM      9  C   UNL     1       3.405   4.570  19.551  0.00  0.00    +0.000 A 
ATOM     10  C   UNL     1       2.500   4.355  20.601  0.00  0.00    +0.000 A 
ATOM     11  C   UNL     1       1.637   5.401  20.962  0.00  0.00    +0.000 A 
ATOM     12  C   UNL     1       1.666   6.619  20.281  0.00  0.00    +0.000 A 
ATOM     13  C   UNL     1       2.566   6.847  19.233  0.00  0.00    +0.000 A 
ATOM     14  C   UNL     1       3.437   5.804  18.906  0.00  0.00    +0.000 A 
ATOM     15  N   UNL     1       6.177   3.941  17.607  0.00  0.00    +0.000 N 
ATOM     16  H   UNL     1       6.367   3.002  17.940  0.00  0.00    +0.000 HD
ENDROOT
TORSDOF 0
ENDMDL
MODEL 6
REMARK VINA RESULT:      -7.0      2.545      4.991
REMARK  Name = 
REMARK  0 active torsions:
REMARK  status: ('A' for Active; 'I' for Inactive)
REMARK                            x       y       z     vdW  Elec       q    Type
REMARK                         _______ _______ _______ _____ _____    ______ ____
ROOT
ATOM      1  O   UNL     1       1.230   2.732  21.417  0.00  0.00    +0.000 OA
ATOM      2  C   UNL     1       1.603   3.145  20.314  0.00  0.00    +0.000 C 
ATOM      3  C   UNL     1       1.146   2.428  19.062  0.00  0.00    +0.000 C 
ATOM      4  C   UNL     1       2.149   2.214  17.945  0.00  0.00    +0.000 C 
ATOM      5  C   UNL     1       2.593   3.529  17.338  0.00  0.00    +0.000 C 
ATOM      6  N   UNL     1       3.572   4.171  18.181  0.00  0.00    +0.000 N 
ATOM      7  C   UNL     1       3.372   4.562  19.478  0.00  0.00    +0.000 A 
ATOM      8  N   UNL     1       4.423   5.195  19.946  0.00  0.00    +0.000 NA
ATOM      9  C   UNL     1       5.387   5.069  18.983  0.00  0.00    +0.000 A 
ATOM     10  C   UNL     1       6.737   5.451  19.027  0.00  0.00    +0.000 A 
ATOM     11  C   UNL     1       7.538   5.200  17.903  0.00  0.00    +0.000 A 
ATOM     12  C   UNL     1       7.001   4.604  16.761  0.00  0.00    +0.000 A 
ATOM     13  C   UNL     1       5.656   4.217  16.704  0.00  0.00    +0.000 A 
ATOM     14  C   UNL     1       4.880   4.449  17.844  0.00  0.00    +0.000 A 
ATOM     15  N   UNL     1       2.283   4.324  20.273  0.00  0.00    +0.000 N 
ATOM     16  H   UNL     1       2.425   4.709  21.201  0.00  0.00    +0.000 HD
ENDROOT
TORSDOF 0
ENDMDL
MODEL 7
REMARK VINA RESULT:      -7.0      1.622      1.863
REMARK  Name = 
REMARK  0 active torsions:
REMARK  status: ('A' for Active; 'I' for Inactive)
REMARK                            x       y       z     vdW  Elec       q    Type
REMARK                         _______ _______ _______ _____ _____    ______ ____
ROOT
ATOM      1  O   UNL     1       7.230   7.370  17.058  0.00  0.00    +0.000 OA
ATOM      2  C   UNL     1       6.678   6.265  17.089  0.00  0.00    +0.000 C 
ATOM      3  C   UNL     1       6.539   5.470  15.808  0.00  0.00    +0.000 C 
ATOM      4  C   UNL     1       5.235   4.741  15.549  0.00  0.00    +0.000 C 
ATOM      5  C   UNL     1       5.006   3.637  16.560  0.00  0.00    +0.000 C 
ATOM      6  N   UNL     1       4.527   4.182  17.807  0.00  0.00    +0.000 N 
ATOM      7  C   UNL     1       5.194   5.088  18.588  0.00  0.00    +0.000 A 
ATOM      8  N   UNL     1       4.537   5.323  19.700  0.00  0.00    +0.000 NA
ATOM      9  C   UNL     1       3.338   4.678  19.563  0.00  0.00    +0.000 A 
ATOM     10  C   UNL     1       2.215   4.709  20.404  0.00  0.00    +0.000 A 
ATOM     11  C   UNL     1       1.085   3.965  20.036  0.00  0.00    +0.000 A 
ATOM     12  C   UNL     1       1.083   3.196  18.870  0.00  0.00    +0.000 A 
ATOM     13  C   UNL     1       2.197   3.158  18.021  0.00  0.00    +0.000 A 
ATOM     14  C   UNL     1       3.303   3.929  18.390  0.00  0.00    +0.000 A 
ATOM     15  N   UNL     1       6.361   5.747  18.308  0.00  0.00    +0.000 N 
ATOM     16  H   UNL     1       6.605   6.381  19.061  0.00  0.00    +0.000 HD
ENDROOT
TORSDOF 0
ENDMDL
MODEL 8
REMARK VINA RESULT:      -6.9      3.150      5.726
REMARK  Name = 
REMARK  0 active torsions:
REMARK  status: ('A' for Active; 'I' for Inactive)
REMARK                            x       y       z     vdW  Elec       q    Type
REMARK                         _______ _______ _______ _____ _____    ______ ____
ROOT
ATOM      1  O   UNL     1       7.152   5.296  19.887  0.00  0.00    +0.000 OA
ATOM      2  C   UNL     1       6.368   5.246  18.934  0.00  0.00    +0.000 C 
ATOM      3  C   UNL     1       5.069   4.483  19.085  0.00  0.00    +0.000 C 
ATOM      4  C   UNL     1       4.597   3.625  17.927  0.00  0.00    +0.000 C 
ATOM      5  C   UNL     1       4.258   4.467  16.714  0.00  0.00    +0.000 C 
ATOM      6  N   UNL     1       5.460   4.858  16.017  0.00  0.00    +0.000 N 
ATOM      7  C   UNL     1       6.481   5.601  16.547  0.00  0.00    +0.000 A 
ATOM      8  N   UNL     1       7.392   5.864  15.639  0.00  0.00    +0.000 NA
ATOM      9  C   UNL     1       7.032   5.137  14.536  0.00  0.00    +0.000 A 
ATOM     10  C   UNL     1       7.727   4.956  13.331  0.00  0.00    +0.000 A 
ATOM     11  C   UNL     1       7.150   4.144  12.344  0.00  0.00    +0.000 A 
ATOM     12  C   UNL     1       5.905   3.546  12.548  0.00  0.00    +0.000 A 
ATOM     13  C   UNL     1       5.201   3.718  13.746  0.00  0.00    +0.000 A 
ATOM     14  C   UNL     1       5.806   4.507  14.729  0.00  0.00    +0.000 A 
ATOM     15  N   UNL     1       6.641   6.013  17.843  0.00  0.00    +0.000 N 
ATOM     16  H   UNL     1       7.509   6.527  17.952  0.00  0.00    +0.000 HD
ENDROOT
TORSDOF 0
ENDMDL
MODEL 9
REMARK VINA RESULT:      -6.9      2.455      4.781
REMARK  Name = 
REMARK  0 active torsions:
REMARK  status: ('A' for Active; 'I' for Inactive)
REMARK                            x       y       z     vdW  Elec       q    Type
REMARK                         _______ _______ _______ _____ _____    ______ ____
ROOT
ATOM      1  O   UNL     1       3.811   0.689  18.654  0.00  0.00    +0.000 OA
ATOM      2  C   UNL     1       3.623   1.909  18.601  0.00  0.00    +0.000 C 
ATOM      3  C   UNL     1       2.482   2.447  17.765  0.00  0.00    +0.000 C 
ATOM      4  C   UNL     1       2.721   3.691  16.931  0.00  0.00    +0.000 C 
ATOM      5  C   UNL     1       2.990   4.900  17.804  0.00  0.00    +0.000 C 
ATOM      6  N   UNL     1       4.350   4.884  18.287  0.00  0.00    +0.000 N 
ATOM      7  C   UNL     1       4.909   3.902  19.060  0.00  0.00    +0.000 A 
ATOM      8  N   UNL     1       6.134   4.218  19.408  0.00  0.00    +0.000 NA
ATOM      9  C   UNL     1       6.433   5.356  18.710  0.00  0.00    +0.000 A 
ATOM     10  C   UNL     1       7.654   6.041  18.616  0.00  0.00    +0.000 A 
ATOM     11  C   UNL     1       7.714   7.191  17.816  0.00  0.00    +0.000 A 
ATOM     12  C   UNL     1       6.581   7.655  17.144  0.00  0.00    +0.000 A 
ATOM     13  C   UNL     1       5.356   6.980  17.229  0.00  0.00    +0.000 A 
ATOM     14  C   UNL     1       5.324   5.820  18.008  0.00  0.00    +0.000 A 
ATOM     15  N   UNL     1       4.360   2.701  19.427  0.00  0.00    +0.000 N 
ATOM     16  H   UNL     1       5.017   2.161  19.980  0.00  0.00    +0.000 HD
ENDROOT
TORSDOF 0
ENDMDL
