MODEL 1
REMARK VINA RESULT:      -7.8      0.000      0.000
REMARK  Name = 
REMARK  6 active torsions:
REMARK  status: ('A' for Active; 'I' for Inactive)
REMARK    1  A    between atoms: C_1  and  C_2
REMARK    2  A    between atoms: C_5  and  N_6
REMARK    3  A    between atoms: C_7  and  C_9
REMARK    4  A    between atoms: C_9  and  S_10
REMARK    5  A    between atoms: S_10  and  C_11
REMARK    6  A    between atoms: C_15  and  C_16
REMARK                            x       y       z     vdW  Elec       q    Type
REMARK                         _______ _______ _______ _____ _____    ______ ____
ROOT
ATOM      1  S   UNL     1       2.159   5.553  18.249  0.00  0.00    +0.000 S 
ENDROOT
BRANCH   1   2
ATOM      2  C   UNL     1       3.203   4.337  18.995  0.00  0.00    +0.000 A 
ATOM      3  S   UNL     1       2.728   3.416  20.379  0.00  0.00    +0.000 S 
ATOM      4  N   UNL     1       4.149   2.560  20.442  0.00  0.00    +0.000 NA
ATOM      5  N   UNL     1       4.984   2.886  19.474  0.00  0.00    +0.000 NA
ATOM      6  C   UNL     1       4.459   3.852  18.612  0.00  0.00    +0.000 A 
BRANCH   6   7
ATOM      7  C   UNL     1       5.232   4.255  17.429  0.00  0.00    +0.000 A 
ATOM      8  C   UNL     1       4.806   3.873  16.143  0.00  0.00    +0.000 A 
ATOM      9  C   UNL     1       5.567   4.168  15.006  0.00  0.00    +0.000 A 
ATOM     10  C   UNL     1       6.734   4.903  15.129  0.00  0.00    +0.000 A 
ATOM     11 CL   UNL     1       7.684   5.245  13.735  0.00  0.00    +0.000 Cl
ATOM     12  C   UNL     1       7.147   5.361  16.376  0.00  0.00    +0.000 A 
ATOM     13  C   UNL     1       6.407   5.034  17.522  0.00  0.00    +0.000 A 
ATOM     14 CL   UNL     1       7.055   5.620  19.019  0.00  0.00    +0.000 Cl
ENDBRANCH   6   7
ENDBRANCH   1   2
BRANCH   1  15
ATOM     15  C   UNL     1       3.135   7.076  18.435  0.00  0.00    +0.000 C 
BRANCH  15  17
ATOM     16  N   UNL     1       1.478   8.575  19.424  0.00  0.00    +0.000 N 
ATOM     17  C   UNL     1       2.262   8.314  18.311  0.00  0.00    +0.000 C 
ATOM     18  O   UNL     1       2.263   8.961  17.265  0.00  0.00    +0.000 OA
ATOM     19  H   UNL     1       1.703   8.071  20.276  0.00  0.00    +0.000 HD
BRANCH  16  24
ATOM     20  C   UNL     1      -2.220  12.923  20.124  0.00  0.00    +0.000 C 
ATOM     21  C   UNL     1      -1.289  11.761  19.936  0.00  0.00    +0.000 A 
ATOM     22  C   UNL     1      -0.985  11.294  18.657  0.00  0.00    +0.000 A 
ATOM     23  C   UNL     1      -0.088  10.233  18.478  0.00  0.00    +0.000 A 
ATOM     24  C   UNL     1       0.531   9.620  19.570  0.00  0.00    +0.000 A 
ATOM     25  C   UNL     1       0.187  10.064  20.859  0.00  0.00    +0.000 A 
ATOM     26 BR   UNL     1       0.947   9.271  22.413  0.00  0.00    +0.000 Br
ATOM     27  C   UNL     1      -0.708  11.129  21.041  0.00  0.00    +0.000 A 
ENDBRANCH  16  24
ENDBRANCH  15  17
ENDBRANCH   1  15
TORSDOF 5
ENDMDL
MODEL 2
REMARK VINA RESULT:      -7.8      1.557      1.873
REMARK  Name = 
REMARK  6 active torsions:
REMARK  status: ('A' for Active; 'I' for Inactive)
REMARK    1  A    between atoms: C_1  and  C_2
REMARK    2  A    between atoms: C_5  and  N_6
REMARK    3  A    between atoms: C_7  and  C_9
REMARK    4  A    between atoms: C_9  and  S_10
REMARK    5  A    between atoms: S_10  and  C_11
REMARK    6  A    between atoms: C_15  and  C_16
REMARK                            x       y       z     vdW  Elec       q    Type
REMARK                         _______ _______ _______ _____ _____    ______ ____
ROOT
ATOM      1  S   UNL     1       2.001   5.290  18.195  0.00  0.00    +0.000 S 
ENDROOT
BRANCH   1   2
ATOM      2  C   UNL     1       3.095   4.158  19.000  0.00  0.00    +0.000 A 
ATOM      3  S   UNL     1       2.634   3.231  20.384  0.00  0.00    +0.000 S 
ATOM      4  N   UNL     1       4.105   2.473  20.512  0.00  0.00    +0.000 NA
ATOM      5  N   UNL     1       4.950   2.837  19.567  0.00  0.00    +0.000 NA
ATOM      6  C   UNL     1       4.394   3.751  18.669  0.00  0.00    +0.000 A 
BRANCH   6   7
ATOM      7  C   UNL     1       5.180   4.185  17.506  0.00  0.00    +0.000 A 
ATOM      8  C   UNL     1       4.792   3.802  16.208  0.00  0.00    +0.000 A 
ATOM      9  C   UNL     1       5.567   4.127  15.090  0.00  0.00    +0.000 A 
ATOM     10  C   UNL     1       6.711   4.893  15.242  0.00  0.00    +0.000 A 
ATOM     11 CL   UNL     1       7.680   5.272  13.872  0.00  0.00    +0.000 Cl
ATOM     12  C   UNL     1       7.085   5.351  16.502  0.00  0.00    +0.000 A 
ATOM     13  C   UNL     1       6.330   4.996  17.629  0.00  0.00    +0.000 A 
ATOM     14 CL   UNL     1       6.931   5.586  19.144  0.00  0.00    +0.000 Cl
ENDBRANCH   6   7
ENDBRANCH   1   2
BRANCH   1  15
ATOM     15  C   UNL     1       2.673   6.906  18.690  0.00  0.00    +0.000 C 
BRANCH  15  17
ATOM     16  N   UNL     1       1.422   8.774  19.645  0.00  0.00    +0.000 N 
ATOM     17  C   UNL     1       1.903   7.493  19.862  0.00  0.00    +0.000 C 
ATOM     18  O   UNL     1       1.793   6.850  20.904  0.00  0.00    +0.000 OA
ATOM     19  H   UNL     1       1.429   9.116  18.689  0.00  0.00    +0.000 HD
BRANCH  16  24
ATOM     20  C   UNL     1      -1.537  12.136  23.253  0.00  0.00    +0.000 C 
ATOM     21  C   UNL     1      -0.730  11.261  22.339  0.00  0.00    +0.000 A 
ATOM     22  C   UNL     1      -0.604   9.895  22.593  0.00  0.00    +0.000 A 
ATOM     23  C   UNL     1       0.117   9.070  21.721  0.00  0.00    +0.000 A 
ATOM     24  C   UNL     1       0.723   9.587  20.573  0.00  0.00    +0.000 A 
ATOM     25  C   UNL     1       0.631  10.972  20.345  0.00  0.00    +0.000 A 
ATOM     26 BR   UNL     1       1.450  11.781  18.830  0.00  0.00    +0.000 Br
ATOM     27  C   UNL     1      -0.095  11.800  21.216  0.00  0.00    +0.000 A 
ENDBRANCH  16  24
ENDBRANCH  15  17
ENDBRANCH   1  15
TORSDOF 5
ENDMDL
MODEL 3
REMARK VINA RESULT:      -7.6      4.680      9.408
REMARK  Name = 
REMARK  6 active torsions:
REMARK  status: ('A' for Active; 'I' for Inactive)
REMARK    1  A    between atoms: C_1  and  C_2
REMARK    2  A    between atoms: C_5  and  N_6
REMARK    3  A    between atoms: C_7  and  C_9
REMARK    4  A    between atoms: C_9  and  S_10
REMARK    5  A    between atoms: S_10  and  C_11
REMARK    6  A    between atoms: C_15  and  C_16
REMARK                            x       y       z     vdW  Elec       q    Type
REMARK                         _______ _______ _______ _____ _____    ______ ____
ROOT
ATOM      1  S   UNL     1       0.743   9.958  19.331  0.00  0.00    +0.000 S 
ENDROOT
BRANCH   1   2
ATOM      2  C   UNL     1       0.220  10.466  20.941  0.00  0.00    +0.000 A 
ATOM      3  S   UNL     1      -0.031   9.354  22.241  0.00  0.00    +0.000 S 
ATOM      4  N   UNL     1      -0.465  10.536  23.323  0.00  0.00    +0.000 NA
ATOM      5  N   UNL     1      -0.421  11.746  22.801  0.00  0.00    +0.000 NA
ATOM      6  C   UNL     1       0.009  11.745  21.472  0.00  0.00    +0.000 A 
BRANCH   6   7
ATOM      7  C   UNL     1       0.198  13.026  20.777  0.00  0.00    +0.000 A 
ATOM      8  C   UNL     1       1.490  13.566  20.632  0.00  0.00    +0.000 A 
ATOM      9  C   UNL     1       1.693  14.824  20.052  0.00  0.00    +0.000 A 
ATOM     10  C   UNL     1       0.614  15.534  19.552  0.00  0.00    +0.000 A 
ATOM     11 CL   UNL     1       0.858  17.091  18.861  0.00  0.00    +0.000 Cl
ATOM     12  C   UNL     1      -0.668  14.998  19.612  0.00  0.00    +0.000 A 
ATOM     13  C   UNL     1      -0.879  13.755  20.226  0.00  0.00    +0.000 A 
ATOM     14 CL   UNL     1      -2.528  13.222  20.282  0.00  0.00    +0.000 Cl
ENDBRANCH   6   7
ENDBRANCH   1   2
BRANCH   1  15
ATOM     15  C   UNL     1       1.655   8.424  19.680  0.00  0.00    +0.000 C 
BRANCH  15  17
ATOM     16  N   UNL     1       3.082   6.736  18.638  0.00  0.00    +0.000 N 
ATOM     17  C   UNL     1       2.371   7.910  18.441  0.00  0.00    +0.000 C 
ATOM     18  O   UNL     1       2.321   8.554  17.395  0.00  0.00    +0.000 OA
ATOM     19  H   UNL     1       2.896   6.220  19.491  0.00  0.00    +0.000 HD
BRANCH  16  24
ATOM     20  C   UNL     1       6.174   3.955  14.665  0.00  0.00    +0.000 C 
ATOM     21  C   UNL     1       5.399   4.673  15.731  0.00  0.00    +0.000 A 
ATOM     22  C   UNL     1       5.692   6.000  16.050  0.00  0.00    +0.000 A 
ATOM     23  C   UNL     1       4.945   6.683  17.018  0.00  0.00    +0.000 A 
ATOM     24  C   UNL     1       3.887   6.061  17.685  0.00  0.00    +0.000 A 
ATOM     25  C   UNL     1       3.625   4.711  17.393  0.00  0.00    +0.000 A 
ATOM     26 BR   UNL     1       2.228   3.763  18.271  0.00  0.00    +0.000 Br
ATOM     27  C   UNL     1       4.368   4.026  16.420  0.00  0.00    +0.000 A 
ENDBRANCH  16  24
ENDBRANCH  15  17
ENDBRANCH   1  15
TORSDOF 5
ENDMDL
MODEL 4
REMARK VINA RESULT:      -7.5      4.587      9.369
REMARK  Name = 
REMARK  6 active torsions:
REMARK  status: ('A' for Active; 'I' for Inactive)
REMARK    1  A    between atoms: C_1  and  C_2
REMARK    2  A    between atoms: C_5  and  N_6
REMARK    3  A    between atoms: C_7  and  C_9
REMARK    4  A    between atoms: C_9  and  S_10
REMARK    5  A    between atoms: S_10  and  C_11
REMARK    6  A    between atoms: C_15  and  C_16
REMARK                            x       y       z     vdW  Elec       q    Type
REMARK                         _______ _______ _______ _____ _____    ______ ____
ROOT
ATOM      1  S   UNL     1       1.055  10.780  19.027  0.00  0.00    +0.000 S 
ENDROOT
BRANCH   1   2
ATOM      2  C   UNL     1       0.420  11.392  20.559  0.00  0.00    +0.000 A 
ATOM      3  S   UNL     1       0.012  10.360  21.885  0.00  0.00    +0.000 S 
ATOM      4  N   UNL     1      -0.461  11.612  22.865  0.00  0.00    +0.000 NA
ATOM      5  N   UNL     1      -0.321  12.791  22.291  0.00  0.00    +0.000 NA
ATOM      6  C   UNL     1       0.220  12.704  21.006  0.00  0.00    +0.000 A 
BRANCH   6   7
ATOM      7  C   UNL     1       0.523  13.938  20.268  0.00  0.00    +0.000 A 
ATOM      8  C   UNL     1      -0.500  14.621  19.584  0.00  0.00    +0.000 A 
ATOM      9  C   UNL     1      -0.227  15.749  18.802  0.00  0.00    +0.000 A 
ATOM     10  C   UNL     1       1.063  16.250  18.741  0.00  0.00    +0.000 A 
ATOM     11 CL   UNL     1       1.406  17.622  17.761  0.00  0.00    +0.000 Cl
ATOM     12  C   UNL     1       2.086  15.644  19.464  0.00  0.00    +0.000 A 
ATOM     13  C   UNL     1       1.822  14.491  20.218  0.00  0.00    +0.000 A 
ATOM     14 CL   UNL     1       3.191  13.802  21.028  0.00  0.00    +0.000 Cl
ENDBRANCH   6   7
ENDBRANCH   1   2
BRANCH   1  15
ATOM     15  C   UNL     1       1.341   9.022  19.393  0.00  0.00    +0.000 C 
BRANCH  15  17
ATOM     16  N   UNL     1       2.749   7.164  18.663  0.00  0.00    +0.000 N 
ATOM     17  C   UNL     1       2.130   8.345  18.285  0.00  0.00    +0.000 C 
ATOM     18  O   UNL     1       2.211   8.876  17.179  0.00  0.00    +0.000 OA
ATOM     19  H   UNL     1       2.458   6.750  19.543  0.00  0.00    +0.000 HD
BRANCH  16  24
ATOM     20  C   UNL     1       6.004   3.824  15.297  0.00  0.00    +0.000 C 
ATOM     21  C   UNL     1       5.183   4.690  16.208  0.00  0.00    +0.000 A 
ATOM     22  C   UNL     1       5.520   6.029  16.408  0.00  0.00    +0.000 A 
ATOM     23  C   UNL     1       4.735   6.848  17.229  0.00  0.00    +0.000 A 
ATOM     24  C   UNL     1       3.592   6.352  17.863  0.00  0.00    +0.000 A 
ATOM     25  C   UNL     1       3.282   4.991  17.693  0.00  0.00    +0.000 A 
ATOM     26 BR   UNL     1       1.768   4.210  18.541  0.00  0.00    +0.000 Br
ATOM     27  C   UNL     1       4.066   4.169  16.868  0.00  0.00    +0.000 A 
ENDBRANCH  16  24
ENDBRANCH  15  17
ENDBRANCH   1  15
TORSDOF 5
ENDMDL
MODEL 5
REMARK VINA RESULT:      -7.4      4.995      9.743
REMARK  Name = 
REMARK  6 active torsions:
REMARK  status: ('A' for Active; 'I' for Inactive)
REMARK    1  A    between atoms: C_1  and  C_2
REMARK    2  A    between atoms: C_5  and  N_6
REMARK    3  A    between atoms: C_7  and  C_9
REMARK    4  A    between atoms: C_9  and  S_10
REMARK    5  A    between atoms: S_10  and  C_11
REMARK    6  A    between atoms: C_15  and  C_16
REMARK                            x       y       z     vdW  Elec       q    Type
REMARK                         _______ _______ _______ _____ _____    ______ ____
ROOT
ATOM      1  S   UNL     1       0.509   9.950  19.597  0.00  0.00    +0.000 S 
ENDROOT
BRANCH   1   2
ATOM      2  C   UNL     1       0.493  11.652  19.120  0.00  0.00    +0.000 A 
ATOM      3  S   UNL     1       1.934  12.594  18.955  0.00  0.00    +0.000 S 
ATOM      4  N   UNL     1       1.123  13.970  18.504  0.00  0.00    +0.000 NA
ATOM      5  N   UNL     1      -0.182  13.793  18.435  0.00  0.00    +0.000 NA
ATOM      6  C   UNL     1      -0.565  12.482  18.730  0.00  0.00    +0.000 A 
BRANCH   6   7
ATOM      7  C   UNL     1      -1.980  12.102  18.608  0.00  0.00    +0.000 A 
ATOM      8  C   UNL     1      -2.426  11.399  17.474  0.00  0.00    +0.000 A 
ATOM      9  C   UNL     1      -3.781  11.099  17.289  0.00  0.00    +0.000 A 
ATOM     10  C   UNL     1      -4.702  11.443  18.264  0.00  0.00    +0.000 A 
ATOM     11 CL   UNL     1      -6.371  11.098  18.027  0.00  0.00    +0.000 Cl
ATOM     12  C   UNL     1      -4.286  12.073  19.432  0.00  0.00    +0.000 A 
ATOM     13  C   UNL     1      -2.935  12.408  19.603  0.00  0.00    +0.000 A 
ATOM     14 CL   UNL     1      -2.554  13.237  21.077  0.00  0.00    +0.000 Cl
ENDBRANCH   6   7
ENDBRANCH   1   2
BRANCH   1  15
ATOM     15  C   UNL     1       1.757   9.241  18.481  0.00  0.00    +0.000 C 
BRANCH  15  17
ATOM     16  N   UNL     1       2.337   6.958  17.829  0.00  0.00    +0.000 N 
ATOM     17  C   UNL     1       2.127   7.824  18.891  0.00  0.00    +0.000 C 
ATOM     18  O   UNL     1       2.174   7.525  20.083  0.00  0.00    +0.000 OA
ATOM     19  H   UNL     1       2.440   7.372  16.908  0.00  0.00    +0.000 HD
BRANCH  16  24
ATOM     20  C   UNL     1       3.682   1.387  18.301  0.00  0.00    +0.000 C 
ATOM     21  C   UNL     1       3.318   2.833  18.136  0.00  0.00    +0.000 A 
ATOM     22  C   UNL     1       1.993   3.251  18.268  0.00  0.00    +0.000 A 
ATOM     23  C   UNL     1       1.657   4.606  18.151  0.00  0.00    +0.000 A 
ATOM     24  C   UNL     1       2.635   5.574  17.908  0.00  0.00    +0.000 A 
ATOM     25  C   UNL     1       3.961   5.143  17.732  0.00  0.00    +0.000 A 
ATOM     26 BR   UNL     1       5.361   6.378  17.361  0.00  0.00    +0.000 Br
ATOM     27  C   UNL     1       4.301   3.787  17.852  0.00  0.00    +0.000 A 
ENDBRANCH  16  24
ENDBRANCH  15  17
ENDBRANCH   1  15
TORSDOF 5
ENDMDL
MODEL 6
REMARK VINA RESULT:      -7.4      2.060      2.256
REMARK  Name = 
REMARK  6 active torsions:
REMARK  status: ('A' for Active; 'I' for Inactive)
REMARK    1  A    between atoms: C_1  and  C_2
REMARK    2  A    between atoms: C_5  and  N_6
REMARK    3  A    between atoms: C_7  and  C_9
REMARK    4  A    between atoms: C_9  and  S_10
REMARK    5  A    between atoms: S_10  and  C_11
REMARK    6  A    between atoms: C_15  and  C_16
REMARK                            x       y       z     vdW  Elec       q    Type
REMARK                         _______ _______ _______ _____ _____    ______ ____
ROOT
ATOM      1  S   UNL     1       2.636   6.923  19.376  0.00  0.00    +0.000 S 
ENDROOT
BRANCH   1   2
ATOM      2  C   UNL     1       3.003   5.244  19.786  0.00  0.00    +0.000 A 
ATOM      3  S   UNL     1       2.191   4.387  21.049  0.00  0.00    +0.000 S 
ATOM      4  N   UNL     1       3.041   2.983  20.803  0.00  0.00    +0.000 NA
ATOM      5  N   UNL     1       3.901   3.075  19.808  0.00  0.00    +0.000 NA
ATOM      6  C   UNL     1       3.870   4.324  19.182  0.00  0.00    +0.000 A 
BRANCH   6   7
ATOM      7  C   UNL     1       4.707   4.555  17.996  0.00  0.00    +0.000 A 
ATOM      8  C   UNL     1       4.209   4.262  16.713  0.00  0.00    +0.000 A 
ATOM      9  C   UNL     1       5.011   4.390  15.573  0.00  0.00    +0.000 A 
ATOM     10  C   UNL     1       6.305   4.871  15.691  0.00  0.00    +0.000 A 
ATOM     11 CL   UNL     1       7.301   5.005  14.295  0.00  0.00    +0.000 Cl
ATOM     12  C   UNL     1       6.805   5.240  16.936  0.00  0.00    +0.000 A 
ATOM     13  C   UNL     1       6.016   5.078  18.084  0.00  0.00    +0.000 A 
ATOM     14 CL   UNL     1       6.774   5.525  19.578  0.00  0.00    +0.000 Cl
ENDBRANCH   6   7
ENDBRANCH   1   2
BRANCH   1  15
ATOM     15  C   UNL     1       1.347   7.351  20.585  0.00  0.00    +0.000 C 
BRANCH  15  17
ATOM     16  N   UNL     1       0.860   9.464  19.458  0.00  0.00    +0.000 N 
ATOM     17  C   UNL     1       1.143   8.855  20.671  0.00  0.00    +0.000 C 
ATOM     18  O   UNL     1       1.278   9.430  21.749  0.00  0.00    +0.000 OA
ATOM     19  H   UNL     1       0.604   8.858  18.685  0.00  0.00    +0.000 HD
BRANCH  16  24
ATOM     20  C   UNL     1      -0.043  15.083  18.629  0.00  0.00    +0.000 C 
ATOM     21  C   UNL     1       0.216  13.615  18.808  0.00  0.00    +0.000 A 
ATOM     22  C   UNL     1       1.420  13.169  19.353  0.00  0.00    +0.000 A 
ATOM     23  C   UNL     1       1.649  11.801  19.555  0.00  0.00    +0.000 A 
ATOM     24  C   UNL     1       0.680  10.851  19.225  0.00  0.00    +0.000 A 
ATOM     25  C   UNL     1      -0.513  11.303  18.635  0.00  0.00    +0.000 A 
ATOM     26 BR   UNL     1      -1.882  10.086  18.117  0.00  0.00    +0.000 Br
ATOM     27  C   UNL     1      -0.747  12.672  18.435  0.00  0.00    +0.000 A 
ENDBRANCH  16  24
ENDBRANCH  15  17
ENDBRANCH   1  15
TORSDOF 5
ENDMDL
MODEL 7
REMARK VINA RESULT:      -7.4      4.717      9.801
REMARK  Name = 
REMARK  6 active torsions:
REMARK  status: ('A' for Active; 'I' for Inactive)
REMARK    1  A    between atoms: C_1  and  C_2
REMARK    2  A    between atoms: C_5  and  N_6
REMARK    3  A    between atoms: C_7  and  C_9
REMARK    4  A    between atoms: C_9  and  S_10
REMARK    5  A    between atoms: S_10  and  C_11
REMARK    6  A    between atoms: C_15  and  C_16
REMARK                            x       y       z     vdW  Elec       q    Type
REMARK                         _______ _______ _______ _____ _____    ______ ____
ROOT
ATOM      1  S   UNL     1      -0.283   9.532  19.294  0.00  0.00    +0.000 S 
ENDROOT
BRANCH   1   2
ATOM      2  C   UNL     1      -0.138  11.264  18.971  0.00  0.00    +0.000 A 
ATOM      3  S   UNL     1       1.386  12.066  18.819  0.00  0.00    +0.000 S 
ATOM      4  N   UNL     1       0.706  13.553  18.532  0.00  0.00    +0.000 NA
ATOM      5  N   UNL     1      -0.612  13.516  18.512  0.00  0.00    +0.000 NA
ATOM      6  C   UNL     1      -1.119  12.229  18.708  0.00  0.00    +0.000 A 
BRANCH   6   7
ATOM      7  C   UNL     1      -2.569  12.007  18.623  0.00  0.00    +0.000 A 
ATOM      8  C   UNL     1      -3.413  12.447  19.659  0.00  0.00    +0.000 A 
ATOM      9  C   UNL     1      -4.785  12.174  19.647  0.00  0.00    +0.000 A 
ATOM     10  C   UNL     1      -5.347  11.509  18.570  0.00  0.00    +0.000 A 
ATOM     11 CL   UNL     1      -7.029  11.149  18.565  0.00  0.00    +0.000 Cl
ATOM     12  C   UNL     1      -4.554  11.123  17.493  0.00  0.00    +0.000 A 
ATOM     13  C   UNL     1      -3.172  11.363  17.520  0.00  0.00    +0.000 A 
ATOM     14 CL   UNL     1      -2.290  10.788  16.143  0.00  0.00    +0.000 Cl
ENDBRANCH   6   7
ENDBRANCH   1   2
BRANCH   1  15
ATOM     15  C   UNL     1       1.429   9.060  19.685  0.00  0.00    +0.000 C 
BRANCH  15  17
ATOM     16  N   UNL     1       2.827   7.242  18.843  0.00  0.00    +0.000 N 
ATOM     17  C   UNL     1       2.099   8.373  18.507  0.00  0.00    +0.000 C 
ATOM     18  O   UNL     1       2.002   8.857  17.381  0.00  0.00    +0.000 OA
ATOM     19  H   UNL     1       2.680   6.855  19.769  0.00  0.00    +0.000 HD
BRANCH  16  24
ATOM     20  C   UNL     1       5.784   3.933  15.185  0.00  0.00    +0.000 C 
ATOM     21  C   UNL     1       5.044   4.790  16.170  0.00  0.00    +0.000 A 
ATOM     22  C   UNL     1       5.398   6.128  16.353  0.00  0.00    +0.000 A 
ATOM     23  C   UNL     1       4.685   6.939  17.244  0.00  0.00    +0.000 A 
ATOM     24  C   UNL     1       3.599   6.437  17.967  0.00  0.00    +0.000 A 
ATOM     25  C   UNL     1       3.275   5.078  17.812  0.00  0.00    +0.000 A 
ATOM     26 BR   UNL     1       1.837   4.289  18.777  0.00  0.00    +0.000 Br
ATOM     27  C   UNL     1       3.985   4.264  16.917  0.00  0.00    +0.000 A 
ENDBRANCH  16  24
ENDBRANCH  15  17
ENDBRANCH   1  15
TORSDOF 5
ENDMDL
MODEL 8
REMARK VINA RESULT:      -7.4      4.757      9.116
REMARK  Name = 
REMARK  6 active torsions:
REMARK  status: ('A' for Active; 'I' for Inactive)
REMARK    1  A    between atoms: C_1  and  C_2
REMARK    2  A    between atoms: C_5  and  N_6
REMARK    3  A    between atoms: C_7  and  C_9
REMARK    4  A    between atoms: C_9  and  S_10
REMARK    5  A    between atoms: S_10  and  C_11
REMARK    6  A    between atoms: C_15  and  C_16
REMARK                            x       y       z     vdW  Elec       q    Type
REMARK                         _______ _______ _______ _____ _____    ______ ____
ROOT
ATOM      1  S   UNL     1       0.319  10.203  19.094  0.00  0.00    +0.000 S 
ENDROOT
BRANCH   1   2
ATOM      2  C   UNL     1       0.050  11.117  20.583  0.00  0.00    +0.000 A 
ATOM      3  S   UNL     1      -0.610  10.406  22.014  0.00  0.00    +0.000 S 
ATOM      4  N   UNL     1      -0.535  11.815  22.889  0.00  0.00    +0.000 NA
ATOM      5  N   UNL     1      -0.020  12.815  22.201  0.00  0.00    +0.000 NA
ATOM      6  C   UNL     1       0.365  12.442  20.911  0.00  0.00    +0.000 A 
BRANCH   6   7
ATOM      7  C   UNL     1       1.040  13.423  20.050  0.00  0.00    +0.000 A 
ATOM      8  C   UNL     1       2.367  13.205  19.637  0.00  0.00    +0.000 A 
ATOM      9  C   UNL     1       3.064  14.161  18.889  0.00  0.00    +0.000 A 
ATOM     10  C   UNL     1       2.425  15.323  18.489  0.00  0.00    +0.000 A 
ATOM     11 CL   UNL     1       3.287  16.511  17.591  0.00  0.00    +0.000 Cl
ATOM     12  C   UNL     1       1.090  15.538  18.816  0.00  0.00    +0.000 A 
ATOM     13  C   UNL     1       0.401  14.599  19.597  0.00  0.00    +0.000 A 
ATOM     14 CL   UNL     1      -1.239  15.009  19.980  0.00  0.00    +0.000 Cl
ENDBRANCH   6   7
ENDBRANCH   1   2
BRANCH   1  15
ATOM     15  C   UNL     1       1.471   8.904  19.632  0.00  0.00    +0.000 C 
BRANCH  15  17
ATOM     16  N   UNL     1       2.861   7.095  18.755  0.00  0.00    +0.000 N 
ATOM     17  C   UNL     1       2.173   8.259  18.448  0.00  0.00    +0.000 C 
ATOM     18  O   UNL     1       2.134   8.801  17.345  0.00  0.00    +0.000 OA
ATOM     19  H   UNL     1       2.667   6.667  19.655  0.00  0.00    +0.000 HD
BRANCH  16  24
ATOM     20  C   UNL     1       5.887   3.889  15.062  0.00  0.00    +0.000 C 
ATOM     21  C   UNL     1       5.128   4.719  16.056  0.00  0.00    +0.000 A 
ATOM     22  C   UNL     1       5.470   6.054  16.274  0.00  0.00    +0.000 A 
ATOM     23  C   UNL     1       4.740   6.841  17.174  0.00  0.00    +0.000 A 
ATOM     24  C   UNL     1       3.650   6.316  17.871  0.00  0.00    +0.000 A 
ATOM     25  C   UNL     1       3.337   4.958  17.682  0.00  0.00    +0.000 A 
ATOM     26 BR   UNL     1       1.893   4.138  18.611  0.00  0.00    +0.000 Br
ATOM     27  C   UNL     1       4.064   4.169  16.778  0.00  0.00    +0.000 A 
ENDBRANCH  16  24
ENDBRANCH  15  17
ENDBRANCH   1  15
TORSDOF 5
ENDMDL
MODEL 9
REMARK VINA RESULT:      -7.4      4.852      9.876
REMARK  Name = 
REMARK  6 active torsions:
REMARK  status: ('A' for Active; 'I' for Inactive)
REMARK    1  A    between atoms: C_1  and  C_2
REMARK    2  A    between atoms: C_5  and  N_6
REMARK    3  A    between atoms: C_7  and  C_9
REMARK    4  A    between atoms: C_9  and  S_10
REMARK    5  A    between atoms: S_10  and  C_11
REMARK    6  A    between atoms: C_15  and  C_16
REMARK                            x       y       z     vdW  Elec       q    Type
REMARK                         _______ _______ _______ _____ _____    ______ ____
ROOT
ATOM      1  S   UNL     1       0.152  10.509  18.751  0.00  0.00    +0.000 S 
ENDROOT
BRANCH   1   2
ATOM      2  C   UNL     1       0.994  11.959  19.309  0.00  0.00    +0.000 A 
ATOM      3  S   UNL     1       2.339  12.647  18.468  0.00  0.00    +0.000 S 
ATOM      4  N   UNL     1       2.529  13.892  19.549  0.00  0.00    +0.000 NA
ATOM      5  N   UNL     1       1.634  13.867  20.517  0.00  0.00    +0.000 NA
ATOM      6  C   UNL     1       0.723  12.817  20.383  0.00  0.00    +0.000 A 
BRANCH   6   7
ATOM      7  C   UNL     1      -0.393  12.706  21.334  0.00  0.00    +0.000 A 
ATOM      8  C   UNL     1      -0.431  11.646  22.258  0.00  0.00    +0.000 A 
ATOM      9  C   UNL     1      -1.522  11.466  23.116  0.00  0.00    +0.000 A 
ATOM     10  C   UNL     1      -2.564  12.378  23.107  0.00  0.00    +0.000 A 
ATOM     11 CL   UNL     1      -3.918  12.145  24.143  0.00  0.00    +0.000 Cl
ATOM     12  C   UNL     1      -2.525  13.479  22.258  0.00  0.00    +0.000 A 
ATOM     13  C   UNL     1      -1.451  13.642  21.371  0.00  0.00    +0.000 A 
ATOM     14 CL   UNL     1      -1.547  15.025  20.330  0.00  0.00    +0.000 Cl
ENDBRANCH   6   7
ENDBRANCH   1   2
BRANCH   1  15
ATOM     15  C   UNL     1       1.188   9.171  19.419  0.00  0.00    +0.000 C 
BRANCH  15  17
ATOM     16  N   UNL     1       2.543   7.279  18.675  0.00  0.00    +0.000 N 
ATOM     17  C   UNL     1       2.017   8.514  18.328  0.00  0.00    +0.000 C 
ATOM     18  O   UNL     1       2.207   9.103  17.265  0.00  0.00    +0.000 OA
ATOM     19  H   UNL     1       2.168   6.834  19.506  0.00  0.00    +0.000 HD
BRANCH  16  24
ATOM     20  C   UNL     1       5.839   3.919  15.371  0.00  0.00    +0.000 C 
ATOM     21  C   UNL     1       5.010   4.795  16.264  0.00  0.00    +0.000 A 
ATOM     22  C   UNL     1       5.265   6.163  16.352  0.00  0.00    +0.000 A 
ATOM     23  C   UNL     1       4.469   6.988  17.158  0.00  0.00    +0.000 A 
ATOM     24  C   UNL     1       3.397   6.467  17.887  0.00  0.00    +0.000 A 
ATOM     25  C   UNL     1       3.172   5.081  17.829  0.00  0.00    +0.000 A 
ATOM     26 BR   UNL     1       1.760   4.268  18.813  0.00  0.00    +0.000 Br
ATOM     27  C   UNL     1       3.965   4.253  17.021  0.00  0.00    +0.000 A 
ENDBRANCH  16  24
ENDBRANCH  15  17
ENDBRANCH   1  15
TORSDOF 5
ENDMDL
