MODEL 1
REMARK VINA RESULT:      -8.3      0.000      0.000
REMARK  Name = 
REMARK  7 active torsions:
REMARK  status: ('A' for Active; 'I' for Inactive)
REMARK    1  A    between atoms: C_1  and  O_2
REMARK    2  A    between atoms: O_2  and  C_3
REMARK    3  A    between atoms: C_5  and  C_6
REMARK    4  A    between atoms: N_12  and  C_13
REMARK    5  A    between atoms: N_16  and  C_17
REMARK    6  A    between atoms: C_22  and  O_23
REMARK    7  A    between atoms: O_23  and  C_24
REMARK                            x       y       z     vdW  Elec       q    Type
REMARK                         _______ _______ _______ _____ _____    ______ ____
ROOT
ATOM      1  C   UNL     1       3.060   6.940  18.231  0.00  0.00    +0.000 A 
ATOM      2  C   UNL     1       2.762   8.148  17.547  0.00  0.00    +0.000 A 
ATOM      3  C   UNL     1       1.915   9.089  18.141  0.00  0.00    +0.000 A 
ATOM      4  N   UNL     1       1.454  10.300  17.710  0.00  0.00    +0.000 N 
ATOM      5  N   UNL     1       0.661  10.934  18.586  0.00  0.00    +0.000 NA
ATOM      6  C   UNL     1       0.573  10.086  19.611  0.00  0.00    +0.000 A 
ATOM      7  N   UNL     1      -0.182  10.265  20.715  0.00  0.00    +0.000 N 
ATOM      8  C   UNL     1       1.363   8.919  19.395  0.00  0.00    +0.000 A 
ATOM      9  C   UNL     1       1.677   7.748  20.110  0.00  0.00    +0.000 A 
ATOM     10  C   UNL     1       2.497   6.757  19.523  0.00  0.00    +0.000 A 
ATOM     11  H   UNL     1       1.641  10.756  16.820  0.00  0.00    +0.000 HD
ATOM     12  H   UNL     1      -0.151   9.568  21.452  0.00  0.00    +0.000 HD
ENDROOT
BRANCH   7  13
ATOM     13  C   UNL     1      -0.565  11.596  21.180  0.00  0.00    +0.000 C 
ATOM     14  C   UNL     1      -0.862  11.526  22.681  0.00  0.00    +0.000 C 
ATOM     15  C   UNL     1      -1.581  12.772  23.187  0.00  0.00    +0.000 C 
ATOM     16  N   UNL     1      -2.790  13.035  22.398  0.00  0.00    +0.000 NA
ATOM     17  C   UNL     1      -3.531  14.166  22.956  0.00  0.00    +0.000 C 
ATOM     18  C   UNL     1      -2.441  13.289  20.995  0.00  0.00    +0.000 C 
ATOM     19  C   UNL     1      -1.783  12.059  20.376  0.00  0.00    +0.000 C 
ENDBRANCH   7  13
BRANCH   1  22
ATOM     20  C   UNL     1       5.806   5.344  16.121  0.00  0.00    +0.000 A 
ATOM     21  C   UNL     1       5.089   6.315  16.815  0.00  0.00    +0.000 A 
ATOM     22  C   UNL     1       3.947   5.949  17.542  0.00  0.00    +0.000 A 
ATOM     23  C   UNL     1       3.624   4.579  17.535  0.00  0.00    +0.000 A 
ATOM     24  C   UNL     1       4.393   3.684  16.808  0.00  0.00    +0.000 A 
ATOM     25  N   UNL     1       5.478   4.036  16.100  0.00  0.00    +0.000 NA
BRANCH  20  27
ATOM     26  C   UNL     1       7.169   4.952  14.261  0.00  0.00    +0.000 C 
ATOM     27  O   UNL     1       6.891   5.782  15.387  0.00  0.00    +0.000 OA
ENDBRANCH  20  27
ENDBRANCH   1  22
BRANCH  10  28
ATOM     28  O   UNL     1       2.783   5.580  20.181  0.00  0.00    +0.000 OA
ATOM     29  C   UNL     1       1.685   4.878  20.758  0.00  0.00    +0.000 C 
ENDBRANCH  10  28
TORSDOF 4
ENDMDL
MODEL 2
REMARK VINA RESULT:      -8.3      0.965      1.134
REMARK  Name = 
REMARK  7 active torsions:
REMARK  status: ('A' for Active; 'I' for Inactive)
REMARK    1  A    between atoms: C_1  and  O_2
REMARK    2  A    between atoms: O_2  and  C_3
REMARK    3  A    between atoms: C_5  and  C_6
REMARK    4  A    between atoms: N_12  and  C_13
REMARK    5  A    between atoms: N_16  and  C_17
REMARK    6  A    between atoms: C_22  and  O_23
REMARK    7  A    between atoms: O_23  and  C_24
REMARK                            x       y       z     vdW  Elec       q    Type
REMARK                         _______ _______ _______ _____ _____    ______ ____
ROOT
ATOM      1  C   UNL     1       2.948   6.848  18.665  0.00  0.00    +0.000 A 
ATOM      2  C   UNL     1       2.773   8.041  17.914  0.00  0.00    +0.000 A 
ATOM      3  C   UNL     1       1.922   9.041  18.394  0.00  0.00    +0.000 A 
ATOM      4  N   UNL     1       1.563  10.255  17.879  0.00  0.00    +0.000 N 
ATOM      5  N   UNL     1       0.724  10.958  18.654  0.00  0.00    +0.000 NA
ATOM      6  C   UNL     1       0.501  10.155  19.695  0.00  0.00    +0.000 A 
ATOM      7  N   UNL     1      -0.343  10.411  20.717  0.00  0.00    +0.000 N 
ATOM      8  C   UNL     1       1.249   8.946  19.595  0.00  0.00    +0.000 A 
ATOM      9  C   UNL     1       1.439   7.792  20.376  0.00  0.00    +0.000 A 
ATOM     10  C   UNL     1       2.260   6.742  19.904  0.00  0.00    +0.000 A 
ATOM     11  H   UNL     1       1.853  10.667  16.995  0.00  0.00    +0.000 HD
ATOM     12  H   UNL     1      -0.414   9.743  21.477  0.00  0.00    +0.000 HD
ENDROOT
BRANCH   7  13
ATOM     13  C   UNL     1      -0.701  11.776  21.097  0.00  0.00    +0.000 C 
ATOM     14  C   UNL     1      -0.859  11.836  22.619  0.00  0.00    +0.000 C 
ATOM     15  C   UNL     1      -1.548  13.117  23.080  0.00  0.00    +0.000 C 
ATOM     16  N   UNL     1      -2.827  13.301  22.385  0.00  0.00    +0.000 NA
ATOM     17  C   UNL     1      -3.532  14.471  22.909  0.00  0.00    +0.000 C 
ATOM     18  C   UNL     1      -2.612  13.433  20.939  0.00  0.00    +0.000 C 
ATOM     19  C   UNL     1      -1.994  12.158  20.372  0.00  0.00    +0.000 C 
ENDBRANCH   7  13
BRANCH   1  22
ATOM     20  C   UNL     1       6.011   4.881  17.529  0.00  0.00    +0.000 A 
ATOM     21  C   UNL     1       5.244   5.852  18.168  0.00  0.00    +0.000 A 
ATOM     22  C   UNL     1       3.846   5.792  18.097  0.00  0.00    +0.000 A 
ATOM     23  C   UNL     1       3.310   4.702  17.386  0.00  0.00    +0.000 A 
ATOM     24  C   UNL     1       4.152   3.785  16.775  0.00  0.00    +0.000 A 
ATOM     25  N   UNL     1       5.492   3.851  16.831  0.00  0.00    +0.000 NA
BRANCH  20  27
ATOM     26  C   UNL     1       7.811   5.646  18.811  0.00  0.00    +0.000 C 
ATOM     27  O   UNL     1       7.382   5.029  17.599  0.00  0.00    +0.000 OA
ENDBRANCH  20  27
ENDBRANCH   1  22
BRANCH  10  28
ATOM     28  O   UNL     1       2.427   5.580  20.626  0.00  0.00    +0.000 OA
ATOM     29  C   UNL     1       1.353   4.643  20.601  0.00  0.00    +0.000 C 
ENDBRANCH  10  28
TORSDOF 4
ENDMDL
MODEL 3
REMARK VINA RESULT:      -8.2      1.054      1.263
REMARK  Name = 
REMARK  7 active torsions:
REMARK  status: ('A' for Active; 'I' for Inactive)
REMARK    1  A    between atoms: C_1  and  O_2
REMARK    2  A    between atoms: O_2  and  C_3
REMARK    3  A    between atoms: C_5  and  C_6
REMARK    4  A    between atoms: N_12  and  C_13
REMARK    5  A    between atoms: N_16  and  C_17
REMARK    6  A    between atoms: C_22  and  O_23
REMARK    7  A    between atoms: O_23  and  C_24
REMARK                            x       y       z     vdW  Elec       q    Type
REMARK                         _______ _______ _______ _____ _____    ______ ____
ROOT
ATOM      1  C   UNL     1       2.597   7.229  18.476  0.00  0.00    +0.000 A 
ATOM      2  C   UNL     1       2.121   8.330  17.717  0.00  0.00    +0.000 A 
ATOM      3  C   UNL     1       1.282   9.274  18.320  0.00  0.00    +0.000 A 
ATOM      4  N   UNL     1       0.677  10.397  17.831  0.00  0.00    +0.000 N 
ATOM      5  N   UNL     1      -0.049  11.071  18.735  0.00  0.00    +0.000 NA
ATOM      6  C   UNL     1       0.058  10.339  19.844  0.00  0.00    +0.000 A 
ATOM      7  N   UNL     1      -0.566  10.589  21.014  0.00  0.00    +0.000 N 
ATOM      8  C   UNL     1       0.905   9.209  19.645  0.00  0.00    +0.000 A 
ATOM      9  C   UNL     1       1.398   8.149  20.428  0.00  0.00    +0.000 A 
ATOM     10  C   UNL     1       2.214   7.154  19.843  0.00  0.00    +0.000 A 
ATOM     11  H   UNL     1       0.716  10.763  16.883  0.00  0.00    +0.000 HD
ATOM     12  H   UNL     1      -0.389   9.982  21.807  0.00  0.00    +0.000 HD
ENDROOT
BRANCH   7  13
ATOM     13  C   UNL     1      -0.992  11.936  21.386  0.00  0.00    +0.000 C 
ATOM     14  C   UNL     1       0.251  12.809  21.583  0.00  0.00    +0.000 C 
ATOM     15  C   UNL     1      -0.069  14.123  22.287  0.00  0.00    +0.000 C 
ATOM     16  N   UNL     1      -0.776  13.881  23.549  0.00  0.00    +0.000 NA
ATOM     17  C   UNL     1      -0.984  15.137  24.270  0.00  0.00    +0.000 C 
ATOM     18  C   UNL     1      -2.059  13.212  23.298  0.00  0.00    +0.000 C 
ATOM     19  C   UNL     1      -1.833  11.844  22.662  0.00  0.00    +0.000 C 
ENDBRANCH   7  13
BRANCH   1  22
ATOM     20  C   UNL     1       5.371   5.595  16.433  0.00  0.00    +0.000 A 
ATOM     21  C   UNL     1       4.669   6.566  17.142  0.00  0.00    +0.000 A 
ATOM     22  C   UNL     1       3.468   6.228  17.780  0.00  0.00    +0.000 A 
ATOM     23  C   UNL     1       3.070   4.882  17.675  0.00  0.00    +0.000 A 
ATOM     24  C   UNL     1       3.831   3.984  16.941  0.00  0.00    +0.000 A 
ATOM     25  N   UNL     1       4.974   4.312  16.317  0.00  0.00    +0.000 NA
BRANCH  20  27
ATOM     26  C   UNL     1       7.056   5.014  14.920  0.00  0.00    +0.000 C 
ATOM     27  O   UNL     1       6.520   6.009  15.789  0.00  0.00    +0.000 OA
ENDBRANCH  20  27
ENDBRANCH   1  22
BRANCH  10  28
ATOM     28  O   UNL     1       2.672   6.079  20.574  0.00  0.00    +0.000 OA
ATOM     29  C   UNL     1       1.742   5.030  20.834  0.00  0.00    +0.000 C 
ENDBRANCH  10  28
TORSDOF 4
ENDMDL
MODEL 4
REMARK VINA RESULT:      -8.1      1.474      1.728
REMARK  Name = 
REMARK  7 active torsions:
REMARK  status: ('A' for Active; 'I' for Inactive)
REMARK    1  A    between atoms: C_1  and  O_2
REMARK    2  A    between atoms: O_2  and  C_3
REMARK    3  A    between atoms: C_5  and  C_6
REMARK    4  A    between atoms: N_12  and  C_13
REMARK    5  A    between atoms: N_16  and  C_17
REMARK    6  A    between atoms: C_22  and  O_23
REMARK    7  A    between atoms: O_23  and  C_24
REMARK                            x       y       z     vdW  Elec       q    Type
REMARK                         _______ _______ _______ _____ _____    ______ ____
ROOT
ATOM      1  C   UNL     1       2.895   6.824  18.813  0.00  0.00    +0.000 A 
ATOM      2  C   UNL     1       2.747   7.979  18.002  0.00  0.00    +0.000 A 
ATOM      3  C   UNL     1       1.896   9.010  18.414  0.00  0.00    +0.000 A 
ATOM      4  N   UNL     1       1.560  10.200  17.834  0.00  0.00    +0.000 N 
ATOM      5  N   UNL     1       0.712  10.947  18.557  0.00  0.00    +0.000 NA
ATOM      6  C   UNL     1       0.460  10.198  19.630  0.00  0.00    +0.000 A 
ATOM      7  N   UNL     1      -0.402  10.511  20.621  0.00  0.00    +0.000 N 
ATOM      8  C   UNL     1       1.198   8.979  19.604  0.00  0.00    +0.000 A 
ATOM      9  C   UNL     1       1.361   7.862  20.445  0.00  0.00    +0.000 A 
ATOM     10  C   UNL     1       2.180   6.784  20.041  0.00  0.00    +0.000 A 
ATOM     11  H   UNL     1       1.872  10.566  16.938  0.00  0.00    +0.000 HD
ATOM     12  H   UNL     1      -0.496   9.882  21.411  0.00  0.00    +0.000 HD
ENDROOT
BRANCH   7  13
ATOM     13  C   UNL     1      -0.755  11.896  20.926  0.00  0.00    +0.000 C 
ATOM     14  C   UNL     1       0.522  12.658  21.295  0.00  0.00    +0.000 C 
ATOM     15  C   UNL     1       0.225  14.006  21.944  0.00  0.00    +0.000 C 
ATOM     16  N   UNL     1      -0.673  13.846  23.093  0.00  0.00    +0.000 NA
ATOM     17  C   UNL     1      -0.867  15.125  23.775  0.00  0.00    +0.000 C 
ATOM     18  C   UNL     1      -1.962  13.289  22.665  0.00  0.00    +0.000 C 
ATOM     19  C   UNL     1      -1.772  11.897  22.070  0.00  0.00    +0.000 C 
ENDBRANCH   7  13
BRANCH   1  22
ATOM     20  C   UNL     1       5.927   4.613  18.136  0.00  0.00    +0.000 A 
ATOM     21  C   UNL     1       5.129   5.594  18.719  0.00  0.00    +0.000 A 
ATOM     22  C   UNL     1       3.794   5.733  18.316  0.00  0.00    +0.000 A 
ATOM     23  C   UNL     1       3.344   4.821  17.342  0.00  0.00    +0.000 A 
ATOM     24  C   UNL     1       4.214   3.880  16.812  0.00  0.00    +0.000 A 
ATOM     25  N   UNL     1       5.497   3.756  17.188  0.00  0.00    +0.000 NA
BRANCH  20  27
ATOM     26  C   UNL     1       7.720   5.814  19.039  0.00  0.00    +0.000 C 
ATOM     27  O   UNL     1       7.245   4.564  18.545  0.00  0.00    +0.000 OA
ENDBRANCH  20  27
ENDBRANCH   1  22
BRANCH  10  28
ATOM     28  O   UNL     1       2.321   5.657  20.822  0.00  0.00    +0.000 OA
ATOM     29  C   UNL     1       1.348   4.628  20.654  0.00  0.00    +0.000 C 
ENDBRANCH  10  28
TORSDOF 4
ENDMDL
MODEL 5
REMARK VINA RESULT:      -8.0      1.400      2.126
REMARK  Name = 
REMARK  7 active torsions:
REMARK  status: ('A' for Active; 'I' for Inactive)
REMARK    1  A    between atoms: C_1  and  O_2
REMARK    2  A    between atoms: O_2  and  C_3
REMARK    3  A    between atoms: C_5  and  C_6
REMARK    4  A    between atoms: N_12  and  C_13
REMARK    5  A    between atoms: N_16  and  C_17
REMARK    6  A    between atoms: C_22  and  O_23
REMARK    7  A    between atoms: O_23  and  C_24
REMARK                            x       y       z     vdW  Elec       q    Type
REMARK                         _______ _______ _______ _____ _____    ______ ____
ROOT
ATOM      1  C   UNL     1       2.684   7.315  18.462  0.00  0.00    +0.000 A 
ATOM      2  C   UNL     1       2.215   8.431  17.720  0.00  0.00    +0.000 A 
ATOM      3  C   UNL     1       1.350   9.349  18.324  0.00  0.00    +0.000 A 
ATOM      4  N   UNL     1       0.745  10.478  17.850  0.00  0.00    +0.000 N 
ATOM      5  N   UNL     1      -0.012  11.120  18.752  0.00  0.00    +0.000 NA
ATOM      6  C   UNL     1       0.076  10.360  19.844  0.00  0.00    +0.000 A 
ATOM      7  N   UNL     1      -0.580  10.573  21.004  0.00  0.00    +0.000 N 
ATOM      8  C   UNL     1       0.941   9.245  19.638  0.00  0.00    +0.000 A 
ATOM      9  C   UNL     1       1.426   8.170  20.405  0.00  0.00    +0.000 A 
ATOM     10  C   UNL     1       2.268   7.200  19.815  0.00  0.00    +0.000 A 
ATOM     11  H   UNL     1       0.803  10.868  16.913  0.00  0.00    +0.000 HD
ATOM     12  H   UNL     1      -0.416   9.948  21.786  0.00  0.00    +0.000 HD
ENDROOT
BRANCH   7  13
ATOM     13  C   UNL     1      -1.031  11.905  21.400  0.00  0.00    +0.000 C 
ATOM     14  C   UNL     1       0.195  12.804  21.588  0.00  0.00    +0.000 C 
ATOM     15  C   UNL     1      -0.144  14.101  22.313  0.00  0.00    +0.000 C 
ATOM     16  N   UNL     1      -0.826  13.827  23.583  0.00  0.00    +0.000 NA
ATOM     17  C   UNL     1      -1.052  15.069  24.323  0.00  0.00    +0.000 C 
ATOM     18  C   UNL     1      -2.097  13.132  23.344  0.00  0.00    +0.000 C 
ATOM     19  C   UNL     1      -1.850  11.777  22.687  0.00  0.00    +0.000 C 
ENDBRANCH   7  13
BRANCH   1  22
ATOM     20  C   UNL     1       4.240   4.118  17.085  0.00  0.00    +0.000 A 
ATOM     21  C   UNL     1       3.306   4.972  17.664  0.00  0.00    +0.000 A 
ATOM     22  C   UNL     1       3.584   6.342  17.762  0.00  0.00    +0.000 A 
ATOM     23  C   UNL     1       4.814   6.763  17.223  0.00  0.00    +0.000 A 
ATOM     24  C   UNL     1       5.687   5.838  16.669  0.00  0.00    +0.000 A 
ATOM     25  N   UNL     1       5.427   4.523  16.588  0.00  0.00    +0.000 NA
BRANCH  20  27
ATOM     26  C   UNL     1       2.720   2.478  17.771  0.00  0.00    +0.000 C 
ATOM     27  O   UNL     1       3.923   2.774  17.064  0.00  0.00    +0.000 OA
ENDBRANCH  20  27
ENDBRANCH   1  22
BRANCH  10  28
ATOM     28  O   UNL     1       2.720   6.111  20.530  0.00  0.00    +0.000 OA
ATOM     29  C   UNL     1       1.773   5.085  20.814  0.00  0.00    +0.000 C 
ENDBRANCH  10  28
TORSDOF 4
ENDMDL
MODEL 6
REMARK VINA RESULT:      -8.0      1.147      1.820
REMARK  Name = 
REMARK  7 active torsions:
REMARK  status: ('A' for Active; 'I' for Inactive)
REMARK    1  A    between atoms: C_1  and  O_2
REMARK    2  A    between atoms: O_2  and  C_3
REMARK    3  A    between atoms: C_5  and  C_6
REMARK    4  A    between atoms: N_12  and  C_13
REMARK    5  A    between atoms: N_16  and  C_17
REMARK    6  A    between atoms: C_22  and  O_23
REMARK    7  A    between atoms: O_23  and  C_24
REMARK                            x       y       z     vdW  Elec       q    Type
REMARK                         _______ _______ _______ _____ _____    ______ ____
ROOT
ATOM      1  C   UNL     1       2.835   7.089  18.455  0.00  0.00    +0.000 A 
ATOM      2  C   UNL     1       2.551   8.270  17.720  0.00  0.00    +0.000 A 
ATOM      3  C   UNL     1       1.717   9.247  18.275  0.00  0.00    +0.000 A 
ATOM      4  N   UNL     1       1.272  10.445  17.793  0.00  0.00    +0.000 N 
ATOM      5  N   UNL     1       0.488  11.125  18.643  0.00  0.00    +0.000 NA
ATOM      6  C   UNL     1       0.391  10.323  19.703  0.00  0.00    +0.000 A 
ATOM      7  N   UNL     1      -0.359  10.559  20.799  0.00  0.00    +0.000 N 
ATOM      8  C   UNL     1       1.165   9.138  19.535  0.00  0.00    +0.000 A 
ATOM      9  C   UNL     1       1.466   7.995  20.299  0.00  0.00    +0.000 A 
ATOM     10  C   UNL     1       2.271   6.969  19.754  0.00  0.00    +0.000 A 
ATOM     11  H   UNL     1       1.463  10.860  16.885  0.00  0.00    +0.000 HD
ATOM     12  H   UNL     1      -0.336   9.894  21.565  0.00  0.00    +0.000 HD
ENDROOT
BRANCH   7  13
ATOM     13  C   UNL     1      -0.724  11.914  21.207  0.00  0.00    +0.000 C 
ATOM     14  C   UNL     1      -0.891  11.940  22.730  0.00  0.00    +0.000 C 
ATOM     15  C   UNL     1      -1.585  13.208  23.214  0.00  0.00    +0.000 C 
ATOM     16  N   UNL     1      -2.861  13.404  22.516  0.00  0.00    +0.000 NA
ATOM     17  C   UNL     1      -3.572  14.561  23.061  0.00  0.00    +0.000 C 
ATOM     18  C   UNL     1      -2.638  13.568  21.075  0.00  0.00    +0.000 C 
ATOM     19  C   UNL     1      -2.014  12.308  20.483  0.00  0.00    +0.000 C 
ENDBRANCH   7  13
BRANCH   1  22
ATOM     20  C   UNL     1       4.298   3.787  17.235  0.00  0.00    +0.000 A 
ATOM     21  C   UNL     1       3.388   4.695  17.768  0.00  0.00    +0.000 A 
ATOM     22  C   UNL     1       3.708   6.058  17.807  0.00  0.00    +0.000 A 
ATOM     23  C   UNL     1       4.954   6.416  17.260  0.00  0.00    +0.000 A 
ATOM     24  C   UNL     1       5.801   5.441  16.755  0.00  0.00    +0.000 A 
ATOM     25  N   UNL     1       5.501   4.132  16.730  0.00  0.00    +0.000 NA
BRANCH  20  27
ATOM     26  C   UNL     1       2.635   2.247  17.811  0.00  0.00    +0.000 C 
ATOM     27  O   UNL     1       3.939   2.454  17.271  0.00  0.00    +0.000 OA
ENDBRANCH  20  27
ENDBRANCH   1  22
BRANCH  10  28
ATOM     28  O   UNL     1       2.543   5.817  20.461  0.00  0.00    +0.000 OA
ATOM     29  C   UNL     1       1.467   4.901  20.646  0.00  0.00    +0.000 C 
ENDBRANCH  10  28
TORSDOF 4
ENDMDL
MODEL 7
REMARK VINA RESULT:      -7.7      1.538      1.992
REMARK  Name = 
REMARK  7 active torsions:
REMARK  status: ('A' for Active; 'I' for Inactive)
REMARK    1  A    between atoms: C_1  and  O_2
REMARK    2  A    between atoms: O_2  and  C_3
REMARK    3  A    between atoms: C_5  and  C_6
REMARK    4  A    between atoms: N_12  and  C_13
REMARK    5  A    between atoms: N_16  and  C_17
REMARK    6  A    between atoms: C_22  and  O_23
REMARK    7  A    between atoms: O_23  and  C_24
REMARK                            x       y       z     vdW  Elec       q    Type
REMARK                         _______ _______ _______ _____ _____    ______ ____
ROOT
ATOM      1  C   UNL     1       3.377   6.633  18.482  0.00  0.00    +0.000 A 
ATOM      2  C   UNL     1       3.133   7.833  17.763  0.00  0.00    +0.000 A 
ATOM      3  C   UNL     1       2.188   8.747  18.243  0.00  0.00    +0.000 A 
ATOM      4  N   UNL     1       1.751   9.945  17.754  0.00  0.00    +0.000 N 
ATOM      5  N   UNL     1       0.832  10.552  18.519  0.00  0.00    +0.000 NA
ATOM      6  C   UNL     1       0.639   9.699  19.525  0.00  0.00    +0.000 A 
ATOM      7  N   UNL     1      -0.257   9.853  20.523  0.00  0.00    +0.000 N 
ATOM      8  C   UNL     1       1.485   8.557  19.414  0.00  0.00    +0.000 A 
ATOM      9  C   UNL     1       1.740   7.395  20.166  0.00  0.00    +0.000 A 
ATOM     10  C   UNL     1       2.657   6.430  19.691  0.00  0.00    +0.000 A 
ATOM     11  H   UNL     1       2.037  10.409  16.895  0.00  0.00    +0.000 HD
ATOM     12  H   UNL     1      -0.301   9.155  21.259  0.00  0.00    +0.000 HD
ENDROOT
BRANCH   7  13
ATOM     13  C   UNL     1      -0.737  11.171  20.932  0.00  0.00    +0.000 C 
ATOM     14  C   UNL     1      -1.675  11.710  19.848  0.00  0.00    +0.000 C 
ATOM     15  C   UNL     1      -1.963  13.198  20.019  0.00  0.00    +0.000 C 
ATOM     16  N   UNL     1      -0.715  13.966  20.100  0.00  0.00    +0.000 NA
ATOM     17  C   UNL     1      -0.997  15.400  20.155  0.00  0.00    +0.000 C 
ATOM     18  C   UNL     1       0.069  13.549  21.269  0.00  0.00    +0.000 C 
ATOM     19  C   UNL     1       0.474  12.083  21.147  0.00  0.00    +0.000 C 
ENDBRANCH   7  13
BRANCH   1  22
ATOM     20  C   UNL     1       6.584   4.705  17.749  0.00  0.00    +0.000 A 
ATOM     21  C   UNL     1       5.687   5.552  18.395  0.00  0.00    +0.000 A 
ATOM     22  C   UNL     1       4.375   5.671  17.914  0.00  0.00    +0.000 A 
ATOM     23  C   UNL     1       4.051   4.877  16.798  0.00  0.00    +0.000 A 
ATOM     24  C   UNL     1       5.014   4.066  16.216  0.00  0.00    +0.000 A 
ATOM     25  N   UNL     1       6.274   3.962  16.667  0.00  0.00    +0.000 NA
BRANCH  20  27
ATOM     26  C   UNL     1       8.085   5.614  19.295  0.00  0.00    +0.000 C 
ATOM     27  O   UNL     1       7.872   4.673  18.246  0.00  0.00    +0.000 OA
ENDBRANCH  20  27
ENDBRANCH   1  22
BRANCH  10  28
ATOM     28  O   UNL     1       2.892   5.261  20.382  0.00  0.00    +0.000 OA
ATOM     29  C   UNL     1       1.751   4.533  20.829  0.00  0.00    +0.000 C 
ENDBRANCH  10  28
TORSDOF 4
ENDMDL
MODEL 8
REMARK VINA RESULT:      -7.7      3.300      9.454
REMARK  Name = 
REMARK  7 active torsions:
REMARK  status: ('A' for Active; 'I' for Inactive)
REMARK    1  A    between atoms: C_1  and  O_2
REMARK    2  A    between atoms: O_2  and  C_3
REMARK    3  A    between atoms: C_5  and  C_6
REMARK    4  A    between atoms: N_12  and  C_13
REMARK    5  A    between atoms: N_16  and  C_17
REMARK    6  A    between atoms: C_22  and  O_23
REMARK    7  A    between atoms: O_23  and  C_24
REMARK                            x       y       z     vdW  Elec       q    Type
REMARK                         _______ _______ _______ _____ _____    ______ ____
ROOT
ATOM      1  C   UNL     1      -0.347  11.285  20.175  0.00  0.00    +0.000 A 
ATOM      2  C   UNL     1       0.304  11.209  18.915  0.00  0.00    +0.000 A 
ATOM      3  C   UNL     1       1.103  10.101  18.616  0.00  0.00    +0.000 A 
ATOM      4  N   UNL     1       1.843   9.783  17.513  0.00  0.00    +0.000 N 
ATOM      5  N   UNL     1       2.471   8.601  17.590  0.00  0.00    +0.000 NA
ATOM      6  C   UNL     1       2.156   8.148  18.803  0.00  0.00    +0.000 A 
ATOM      7  N   UNL     1       2.616   7.009  19.360  0.00  0.00    +0.000 N 
ATOM      8  C   UNL     1       1.277   9.042  19.484  0.00  0.00    +0.000 A 
ATOM      9  C   UNL     1       0.609   9.076  20.721  0.00  0.00    +0.000 A 
ATOM     10  C   UNL     1      -0.175  10.199  21.074  0.00  0.00    +0.000 A 
ATOM     11  H   UNL     1       1.967  10.335  16.667  0.00  0.00    +0.000 HD
ATOM     12  H   UNL     1       2.287   6.742  20.282  0.00  0.00    +0.000 HD
ENDROOT
BRANCH   7  13
ATOM     13  C   UNL     1       3.068   5.882  18.548  0.00  0.00    +0.000 C 
ATOM     14  C   UNL     1       1.861   4.997  18.219  0.00  0.00    +0.000 C 
ATOM     15  C   UNL     1       2.273   3.638  17.664  0.00  0.00    +0.000 C 
ATOM     16  N   UNL     1       3.216   2.969  18.567  0.00  0.00    +0.000 NA
ATOM     17  C   UNL     1       3.523   1.623  18.084  0.00  0.00    +0.000 C 
ATOM     18  C   UNL     1       4.445   3.761  18.704  0.00  0.00    +0.000 C 
ATOM     19  C   UNL     1       4.140   5.118  19.329  0.00  0.00    +0.000 C 
ENDBRANCH   7  13
BRANCH   1  22
ATOM     20  C   UNL     1      -3.264  13.678  20.727  0.00  0.00    +0.000 A 
ATOM     21  C   UNL     1      -2.567  12.485  20.556  0.00  0.00    +0.000 A 
ATOM     22  C   UNL     1      -1.169  12.505  20.462  0.00  0.00    +0.000 A 
ATOM     23  C   UNL     1      -0.559  13.768  20.581  0.00  0.00    +0.000 A 
ATOM     24  C   UNL     1      -1.336  14.905  20.743  0.00  0.00    +0.000 A 
ATOM     25  N   UNL     1      -2.677  14.888  20.819  0.00  0.00    +0.000 NA
BRANCH  20  27
ATOM     26  C   UNL     1      -5.161  13.570  22.092  0.00  0.00    +0.000 C 
ATOM     27  O   UNL     1      -4.642  13.591  20.764  0.00  0.00    +0.000 OA
ENDBRANCH  20  27
ENDBRANCH   1  22
BRANCH  10  28
ATOM     28  O   UNL     1      -0.802  10.281  22.299  0.00  0.00    +0.000 OA
ATOM     29  C   UNL     1      -0.203   9.574  23.382  0.00  0.00    +0.000 C 
ENDBRANCH  10  28
TORSDOF 4
ENDMDL
MODEL 9
REMARK VINA RESULT:      -7.6      3.294      9.297
REMARK  Name = 
REMARK  7 active torsions:
REMARK  status: ('A' for Active; 'I' for Inactive)
REMARK    1  A    between atoms: C_1  and  O_2
REMARK    2  A    between atoms: O_2  and  C_3
REMARK    3  A    between atoms: C_5  and  C_6
REMARK    4  A    between atoms: N_12  and  C_13
REMARK    5  A    between atoms: N_16  and  C_17
REMARK    6  A    between atoms: C_22  and  O_23
REMARK    7  A    between atoms: O_23  and  C_24
REMARK                            x       y       z     vdW  Elec       q    Type
REMARK                         _______ _______ _______ _____ _____    ______ ____
ROOT
ATOM      1  C   UNL     1      -0.434  11.296  20.161  0.00  0.00    +0.000 A 
ATOM      2  C   UNL     1       0.180  11.213  18.883  0.00  0.00    +0.000 A 
ATOM      3  C   UNL     1       1.008  10.126  18.583  0.00  0.00    +0.000 A 
ATOM      4  N   UNL     1       1.724   9.809  17.464  0.00  0.00    +0.000 N 
ATOM      5  N   UNL     1       2.394   8.650  17.547  0.00  0.00    +0.000 NA
ATOM      6  C   UNL     1       2.133   8.216  18.779  0.00  0.00    +0.000 A 
ATOM      7  N   UNL     1       2.649   7.105  19.346  0.00  0.00    +0.000 N 
ATOM      8  C   UNL     1       1.245   9.094  19.468  0.00  0.00    +0.000 A 
ATOM      9  C   UNL     1       0.615   9.134  20.725  0.00  0.00    +0.000 A 
ATOM     10  C   UNL     1      -0.195  10.237  21.078  0.00  0.00    +0.000 A 
ATOM     11  H   UNL     1       1.802  10.344  16.603  0.00  0.00    +0.000 HD
ATOM     12  H   UNL     1       2.358   6.848  20.284  0.00  0.00    +0.000 HD
ENDROOT
BRANCH   7  13
ATOM     13  C   UNL     1       3.115   5.976  18.545  0.00  0.00    +0.000 C 
ATOM     14  C   UNL     1       1.908   5.112  18.165  0.00  0.00    +0.000 C 
ATOM     15  C   UNL     1       2.320   3.750  17.618  0.00  0.00    +0.000 C 
ATOM     16  N   UNL     1       3.217   3.062  18.552  0.00  0.00    +0.000 NA
ATOM     17  C   UNL     1       3.522   1.713  18.072  0.00  0.00    +0.000 C 
ATOM     18  C   UNL     1       4.452   3.833  18.740  0.00  0.00    +0.000 C 
ATOM     19  C   UNL     1       4.144   5.192  19.362  0.00  0.00    +0.000 C 
ENDBRANCH   7  13
BRANCH   1  22
ATOM     20  C   UNL     1      -1.655  14.724  21.301  0.00  0.00    +0.000 A 
ATOM     21  C   UNL     1      -0.781  13.691  20.971  0.00  0.00    +0.000 A 
ATOM     22  C   UNL     1      -1.288  12.494  20.447  0.00  0.00    +0.000 A 
ATOM     23  C   UNL     1      -2.682  12.440  20.265  0.00  0.00    +0.000 A 
ATOM     24  C   UNL     1      -3.476  13.517  20.629  0.00  0.00    +0.000 A 
ATOM     25  N   UNL     1      -2.993  14.659  21.144  0.00  0.00    +0.000 NA
BRANCH  20  27
ATOM     26  C   UNL     1      -0.046  15.561  22.778  0.00  0.00    +0.000 C 
ATOM     27  O   UNL     1      -1.093  15.857  21.857  0.00  0.00    +0.000 OA
ENDBRANCH  20  27
ENDBRANCH   1  22
BRANCH  10  28
ATOM     28  O   UNL     1      -0.787  10.326  22.320  0.00  0.00    +0.000 OA
ATOM     29  C   UNL     1      -0.187   9.582  23.377  0.00  0.00    +0.000 C 
ENDBRANCH  10  28
TORSDOF 4
ENDMDL
