MODEL 1
REMARK VINA RESULT:      -8.5      0.000      0.000
REMARK  Name = 
REMARK  8 active torsions:
REMARK  status: ('A' for Active; 'I' for Inactive)
REMARK    1  A    between atoms: C_1  and  C_2
REMARK    2  A    between atoms: N_4  and  C_5
REMARK    3  A    between atoms: C_8  and  S_9
REMARK    4  A    between atoms: S_9  and  N_12
REMARK    5  A    between atoms: N_12  and  N_13
REMARK    6  A    between atoms: C_14  and  C_15
REMARK    7  A    between atoms: C_15  and  C_16
REMARK    8  A    between atoms: C_16  and  C_17
REMARK                            x       y       z     vdW  Elec       q    Type
REMARK                         _______ _______ _______ _____ _____    ______ ____
ROOT
ATOM      1  S   UNL     1       6.583   4.939  15.905  0.00  0.00    +0.000 S 
ATOM      2  O   UNL     1       7.876   4.449  16.334  0.00  0.00    +0.000 OA
ATOM      3  O   UNL     1       6.000   4.548  14.637  0.00  0.00    +0.000 OA
ENDROOT
BRANCH   1   7
ATOM      4  C   UNL     1       3.458   3.938  19.116  0.00  0.00    +0.000 A 
ATOM      5  C   UNL     1       4.410   4.938  19.330  0.00  0.00    +0.000 A 
ATOM      6  C   UNL     1       5.380   5.228  18.364  0.00  0.00    +0.000 A 
ATOM      7  C   UNL     1       5.407   4.503  17.174  0.00  0.00    +0.000 A 
ATOM      8  C   UNL     1       4.459   3.505  16.937  0.00  0.00    +0.000 A 
ATOM      9  C   UNL     1       3.498   3.214  17.916  0.00  0.00    +0.000 A 
BRANCH   4  13
ATOM     10  C   UNL     1       1.309   2.520  21.880  0.00  0.00    +0.000 C 
ATOM     11  C   UNL     1       2.603   2.760  21.146  0.00  0.00    +0.000 C 
ATOM     12  O   UNL     1       3.637   2.215  21.517  0.00  0.00    +0.000 OA
ATOM     13  N   UNL     1       2.459   3.611  20.060  0.00  0.00    +0.000 N 
ATOM     14  H   UNL     1       1.580   4.108  19.981  0.00  0.00    +0.000 HD
ENDBRANCH   4  13
ENDBRANCH   1   7
BRANCH   1  15
ATOM     15  N   UNL     1       6.575   6.650  16.000  0.00  0.00    +0.000 N 
ATOM     16  H   UNL     1       6.013   7.129  15.295  0.00  0.00    +0.000 HD
BRANCH  15  17
ATOM     17  N   UNL     1       7.711   7.285  16.625  0.00  0.00    +0.000 NA
ATOM     18  C   UNL     1       7.473   7.956  17.702  0.00  0.00    +0.000 C 
BRANCH  18  19
ATOM     19  C   UNL     1       8.592   8.720  18.366  0.00  0.00    +0.000 C 
BRANCH  19  20
ATOM     20  C   UNL     1       8.535  10.209  18.041  0.00  0.00    +0.000 C 
BRANCH  20  21
ATOM     21  C   UNL     1       9.693  10.959  18.659  0.00  0.00    +0.000 A 
ATOM     22  C   UNL     1       9.786  11.120  20.050  0.00  0.00    +0.000 A 
ATOM     23  C   UNL     1      10.842  11.839  20.610  0.00  0.00    +0.000 A 
ATOM     24  C   UNL     1      11.815  12.409  19.792  0.00  0.00    +0.000 A 
ATOM     25  C   UNL     1      11.733  12.258  18.409  0.00  0.00    +0.000 A 
ATOM     26  C   UNL     1      10.678  11.541  17.842  0.00  0.00    +0.000 A 
ENDBRANCH  20  21
ENDBRANCH  19  20
ENDBRANCH  18  19
ENDBRANCH  15  17
ENDBRANCH   1  15
TORSDOF 7
ENDMDL
MODEL 2
REMARK VINA RESULT:      -8.4      1.149      1.506
REMARK  Name = 
REMARK  8 active torsions:
REMARK  status: ('A' for Active; 'I' for Inactive)
REMARK    1  A    between atoms: C_1  and  C_2
REMARK    2  A    between atoms: N_4  and  C_5
REMARK    3  A    between atoms: C_8  and  S_9
REMARK    4  A    between atoms: S_9  and  N_12
REMARK    5  A    between atoms: N_12  and  N_13
REMARK    6  A    between atoms: C_14  and  C_15
REMARK    7  A    between atoms: C_15  and  C_16
REMARK    8  A    between atoms: C_16  and  C_17
REMARK                            x       y       z     vdW  Elec       q    Type
REMARK                         _______ _______ _______ _____ _____    ______ ____
ROOT
ATOM      1  S   UNL     1       6.130   5.597  15.829  0.00  0.00    +0.000 S 
ATOM      2  O   UNL     1       6.604   4.616  14.874  0.00  0.00    +0.000 OA
ATOM      3  O   UNL     1       5.291   6.709  15.429  0.00  0.00    +0.000 OA
ENDROOT
BRANCH   1   7
ATOM      4  C   UNL     1       3.760   3.447  19.122  0.00  0.00    +0.000 A 
ATOM      5  C   UNL     1       4.849   4.264  19.439  0.00  0.00    +0.000 A 
ATOM      6  C   UNL     1       5.590   4.899  18.436  0.00  0.00    +0.000 A 
ATOM      7  C   UNL     1       5.246   4.709  17.099  0.00  0.00    +0.000 A 
ATOM      8  C   UNL     1       4.156   3.904  16.761  0.00  0.00    +0.000 A 
ATOM      9  C   UNL     1       3.426   3.262  17.772  0.00  0.00    +0.000 A 
BRANCH   4  13
ATOM     10  C   UNL     1       1.461   2.415  21.935  0.00  0.00    +0.000 C 
ATOM     11  C   UNL     1       2.011   3.365  20.903  0.00  0.00    +0.000 C 
ATOM     12  O   UNL     1       1.607   4.522  20.845  0.00  0.00    +0.000 OA
ATOM     13  N   UNL     1       2.982   2.787  20.099  0.00  0.00    +0.000 N 
ATOM     14  H   UNL     1       3.089   1.781  20.161  0.00  0.00    +0.000 HD
ENDBRANCH   4  13
ENDBRANCH   1   7
BRANCH   1  15
ATOM     15  N   UNL     1       7.467   6.213  16.705  0.00  0.00    +0.000 N 
ATOM     16  H   UNL     1       7.848   5.596  17.422  0.00  0.00    +0.000 HD
BRANCH  15  17
ATOM     17  N   UNL     1       7.598   7.648  16.792  0.00  0.00    +0.000 NA
ATOM     18  C   UNL     1       8.145   8.111  17.866  0.00  0.00    +0.000 C 
BRANCH  18  19
ATOM     19  C   UNL     1       8.240   9.603  18.071  0.00  0.00    +0.000 C 
BRANCH  19  20
ATOM     20  C   UNL     1       9.172   9.961  19.224  0.00  0.00    +0.000 C 
BRANCH  20  21
ATOM     21  C   UNL     1       9.920  11.246  18.958  0.00  0.00    +0.000 A 
ATOM     22  C   UNL     1       9.582  12.063  17.867  0.00  0.00    +0.000 A 
ATOM     23  C   UNL     1      10.298  13.232  17.610  0.00  0.00    +0.000 A 
ATOM     24  C   UNL     1      11.360  13.600  18.433  0.00  0.00    +0.000 A 
ATOM     25  C   UNL     1      11.707  12.797  19.518  0.00  0.00    +0.000 A 
ATOM     26  C   UNL     1      10.995  11.625  19.779  0.00  0.00    +0.000 A 
ENDBRANCH  20  21
ENDBRANCH  19  20
ENDBRANCH  18  19
ENDBRANCH  15  17
ENDBRANCH   1  15
TORSDOF 7
ENDMDL
MODEL 3
REMARK VINA RESULT:      -8.4      1.193      1.713
REMARK  Name = 
REMARK  8 active torsions:
REMARK  status: ('A' for Active; 'I' for Inactive)
REMARK    1  A    between atoms: C_1  and  C_2
REMARK    2  A    between atoms: N_4  and  C_5
REMARK    3  A    between atoms: C_8  and  S_9
REMARK    4  A    between atoms: S_9  and  N_12
REMARK    5  A    between atoms: N_12  and  N_13
REMARK    6  A    between atoms: C_14  and  C_15
REMARK    7  A    between atoms: C_15  and  C_16
REMARK    8  A    between atoms: C_16  and  C_17
REMARK                            x       y       z     vdW  Elec       q    Type
REMARK                         _______ _______ _______ _____ _____    ______ ____
ROOT
ATOM      1  S   UNL     1       6.041   5.350  15.718  0.00  0.00    +0.000 S 
ATOM      2  O   UNL     1       6.439   4.284  14.823  0.00  0.00    +0.000 OA
ATOM      3  O   UNL     1       5.326   6.518  15.244  0.00  0.00    +0.000 OA
ENDROOT
BRANCH   1   7
ATOM      4  C   UNL     1       3.571   3.322  19.015  0.00  0.00    +0.000 A 
ATOM      5  C   UNL     1       3.308   3.071  17.665  0.00  0.00    +0.000 A 
ATOM      6  C   UNL     1       4.041   3.708  16.657  0.00  0.00    +0.000 A 
ATOM      7  C   UNL     1       5.043   4.614  17.001  0.00  0.00    +0.000 A 
ATOM      8  C   UNL     1       5.327   4.872  18.344  0.00  0.00    +0.000 A 
ATOM      9  C   UNL     1       4.579   4.238  19.347  0.00  0.00    +0.000 A 
BRANCH   4  13
ATOM     10  C   UNL     1       1.353   2.384  21.925  0.00  0.00    +0.000 C 
ATOM     11  C   UNL     1       1.804   3.253  20.779  0.00  0.00    +0.000 C 
ATOM     12  O   UNL     1       1.260   4.331  20.565  0.00  0.00    +0.000 OA
ATOM     13  N   UNL     1       2.859   2.702  20.066  0.00  0.00    +0.000 N 
ATOM     14  H   UNL     1       3.089   1.735  20.262  0.00  0.00    +0.000 HD
ENDBRANCH   4  13
ENDBRANCH   1   7
BRANCH   1  15
ATOM     15  N   UNL     1       7.410   5.875  16.603  0.00  0.00    +0.000 N 
ATOM     16  H   UNL     1       7.705   5.262  17.365  0.00  0.00    +0.000 HD
BRANCH  15  17
ATOM     17  N   UNL     1       7.688   7.291  16.619  0.00  0.00    +0.000 NA
ATOM     18  C   UNL     1       7.792   7.844  17.781  0.00  0.00    +0.000 C 
BRANCH  18  19
ATOM     19  C   UNL     1       7.995   9.336  17.882  0.00  0.00    +0.000 C 
BRANCH  19  20
ATOM     20  C   UNL     1       9.033   9.699  18.938  0.00  0.00    +0.000 C 
BRANCH  20  21
ATOM     21  C   UNL     1       9.731  10.998  18.609  0.00  0.00    +0.000 A 
ATOM     22  C   UNL     1      11.013  11.274  19.111  0.00  0.00    +0.000 A 
ATOM     23  C   UNL     1      11.638  12.488  18.827  0.00  0.00    +0.000 A 
ATOM     24  C   UNL     1      10.994  13.443  18.044  0.00  0.00    +0.000 A 
ATOM     25  C   UNL     1       9.720  13.183  17.542  0.00  0.00    +0.000 A 
ATOM     26  C   UNL     1       9.088  11.970  17.824  0.00  0.00    +0.000 A 
ENDBRANCH  20  21
ENDBRANCH  19  20
ENDBRANCH  18  19
ENDBRANCH  15  17
ENDBRANCH   1  15
TORSDOF 7
ENDMDL
MODEL 4
REMARK VINA RESULT:      -8.3      1.012      1.140
REMARK  Name = 
REMARK  8 active torsions:
REMARK  status: ('A' for Active; 'I' for Inactive)
REMARK    1  A    between atoms: C_1  and  C_2
REMARK    2  A    between atoms: N_4  and  C_5
REMARK    3  A    between atoms: C_8  and  S_9
REMARK    4  A    between atoms: S_9  and  N_12
REMARK    5  A    between atoms: N_12  and  N_13
REMARK    6  A    between atoms: C_14  and  C_15
REMARK    7  A    between atoms: C_15  and  C_16
REMARK    8  A    between atoms: C_16  and  C_17
REMARK                            x       y       z     vdW  Elec       q    Type
REMARK                         _______ _______ _______ _____ _____    ______ ____
ROOT
ATOM      1  S   UNL     1       5.701   5.615  15.349  0.00  0.00    +0.000 S 
ATOM      2  O   UNL     1       5.683   4.539  14.381  0.00  0.00    +0.000 OA
ATOM      3  O   UNL     1       5.245   6.949  15.017  0.00  0.00    +0.000 OA
ENDROOT
BRANCH   1   7
ATOM      4  C   UNL     1       3.106   4.266  18.888  0.00  0.00    +0.000 A 
ATOM      5  C   UNL     1       3.509   5.599  18.762  0.00  0.00    +0.000 A 
ATOM      6  C   UNL     1       4.322   6.008  17.699  0.00  0.00    +0.000 A 
ATOM      7  C   UNL     1       4.747   5.073  16.756  0.00  0.00    +0.000 A 
ATOM      8  C   UNL     1       4.348   3.739  16.859  0.00  0.00    +0.000 A 
ATOM      9  C   UNL     1       3.543   3.336  17.934  0.00  0.00    +0.000 A 
BRANCH   4  13
ATOM     10  C   UNL     1       1.495   2.518  21.824  0.00  0.00    +0.000 C 
ATOM     11  C   UNL     1       2.644   2.899  20.927  0.00  0.00    +0.000 C 
ATOM     12  O   UNL     1       3.754   2.406  21.097  0.00  0.00    +0.000 OA
ATOM     13  N   UNL     1       2.285   3.807  19.942  0.00  0.00    +0.000 N 
ATOM     14  H   UNL     1       1.375   4.244  20.033  0.00  0.00    +0.000 HD
ENDBRANCH   4  13
ENDBRANCH   1   7
BRANCH   1  15
ATOM     15  N   UNL     1       7.273   5.731  16.022  0.00  0.00    +0.000 N 
ATOM     16  H   UNL     1       7.719   4.844  16.260  0.00  0.00    +0.000 HD
BRANCH  15  17
ATOM     17  N   UNL     1       7.614   6.957  16.703  0.00  0.00    +0.000 NA
ATOM     18  C   UNL     1       7.938   6.852  17.949  0.00  0.00    +0.000 C 
BRANCH  18  19
ATOM     19  C   UNL     1       8.223   8.097  18.753  0.00  0.00    +0.000 C 
BRANCH  19  20
ATOM     20  C   UNL     1       8.416   9.319  17.862  0.00  0.00    +0.000 C 
BRANCH  20  21
ATOM     21  C   UNL     1       9.258  10.374  18.539  0.00  0.00    +0.000 A 
ATOM     22  C   UNL     1       9.308  10.468  19.939  0.00  0.00    +0.000 A 
ATOM     23  C   UNL     1      10.064  11.465  20.555  0.00  0.00    +0.000 A 
ATOM     24  C   UNL     1      10.777  12.382  19.786  0.00  0.00    +0.000 A 
ATOM     25  C   UNL     1      10.735  12.301  18.395  0.00  0.00    +0.000 A 
ATOM     26  C   UNL     1       9.978  11.307  17.772  0.00  0.00    +0.000 A 
ENDBRANCH  20  21
ENDBRANCH  19  20
ENDBRANCH  18  19
ENDBRANCH  15  17
ENDBRANCH   1  15
TORSDOF 7
ENDMDL
MODEL 5
REMARK VINA RESULT:      -8.2      0.918      1.340
REMARK  Name = 
REMARK  8 active torsions:
REMARK  status: ('A' for Active; 'I' for Inactive)
REMARK    1  A    between atoms: C_1  and  C_2
REMARK    2  A    between atoms: N_4  and  C_5
REMARK    3  A    between atoms: C_8  and  S_9
REMARK    4  A    between atoms: S_9  and  N_12
REMARK    5  A    between atoms: N_12  and  N_13
REMARK    6  A    between atoms: C_14  and  C_15
REMARK    7  A    between atoms: C_15  and  C_16
REMARK    8  A    between atoms: C_16  and  C_17
REMARK                            x       y       z     vdW  Elec       q    Type
REMARK                         _______ _______ _______ _____ _____    ______ ____
ROOT
ATOM      1  S   UNL     1       6.320   5.100  15.703  0.00  0.00    +0.000 S 
ATOM      2  O   UNL     1       7.707   4.748  15.928  0.00  0.00    +0.000 OA
ATOM      3  O   UNL     1       5.647   4.792  14.457  0.00  0.00    +0.000 OA
ENDROOT
BRANCH   1   7
ATOM      4  C   UNL     1       3.807   3.311  19.103  0.00  0.00    +0.000 A 
ATOM      5  C   UNL     1       5.069   3.857  19.355  0.00  0.00    +0.000 A 
ATOM      6  C   UNL     1       5.849   4.378  18.317  0.00  0.00    +0.000 A 
ATOM      7  C   UNL     1       5.367   4.347  17.009  0.00  0.00    +0.000 A 
ATOM      8  C   UNL     1       4.105   3.813  16.738  0.00  0.00    +0.000 A 
ATOM      9  C   UNL     1       3.336   3.282  17.783  0.00  0.00    +0.000 A 
BRANCH   4  13
ATOM     10  C   UNL     1       1.284   2.600  21.823  0.00  0.00    +0.000 C 
ATOM     11  C   UNL     1       1.859   3.375  20.665  0.00  0.00    +0.000 C 
ATOM     12  O   UNL     1       1.343   4.428  20.306  0.00  0.00    +0.000 OA
ATOM     13  N   UNL     1       2.984   2.775  20.119  0.00  0.00    +0.000 N 
ATOM     14  H   UNL     1       3.189   1.829  20.418  0.00  0.00    +0.000 HD
ENDBRANCH   4  13
ENDBRANCH   1   7
BRANCH   1  15
ATOM     15  N   UNL     1       6.107   6.767  16.037  0.00  0.00    +0.000 N 
ATOM     16  H   UNL     1       5.371   7.233  15.506  0.00  0.00    +0.000 HD
BRANCH  15  17
ATOM     17  N   UNL     1       7.244   7.490  16.554  0.00  0.00    +0.000 NA
ATOM     18  C   UNL     1       7.349   7.553  17.840  0.00  0.00    +0.000 C 
BRANCH  18  19
ATOM     19  C   UNL     1       8.460   8.364  18.458  0.00  0.00    +0.000 C 
BRANCH  19  20
ATOM     20  C   UNL     1       8.406   9.827  18.028  0.00  0.00    +0.000 C 
BRANCH  20  21
ATOM     21  C   UNL     1       9.470  10.649  18.715  0.00  0.00    +0.000 A 
ATOM     22  C   UNL     1      10.598  11.100  18.010  0.00  0.00    +0.000 A 
ATOM     23  C   UNL     1      11.591  11.834  18.659  0.00  0.00    +0.000 A 
ATOM     24  C   UNL     1      11.476  12.123  20.017  0.00  0.00    +0.000 A 
ATOM     25  C   UNL     1      10.363  11.680  20.728  0.00  0.00    +0.000 A 
ATOM     26  C   UNL     1       9.366  10.944  20.085  0.00  0.00    +0.000 A 
ENDBRANCH  20  21
ENDBRANCH  19  20
ENDBRANCH  18  19
ENDBRANCH  15  17
ENDBRANCH   1  15
TORSDOF 7
ENDMDL
MODEL 6
REMARK VINA RESULT:      -8.0      1.163      1.784
REMARK  Name = 
REMARK  8 active torsions:
REMARK  status: ('A' for Active; 'I' for Inactive)
REMARK    1  A    between atoms: C_1  and  C_2
REMARK    2  A    between atoms: N_4  and  C_5
REMARK    3  A    between atoms: C_8  and  S_9
REMARK    4  A    between atoms: S_9  and  N_12
REMARK    5  A    between atoms: N_12  and  N_13
REMARK    6  A    between atoms: C_14  and  C_15
REMARK    7  A    between atoms: C_15  and  C_16
REMARK    8  A    between atoms: C_16  and  C_17
REMARK                            x       y       z     vdW  Elec       q    Type
REMARK                         _______ _______ _______ _____ _____    ______ ____
ROOT
ATOM      1  S   UNL     1       5.661   5.834  15.535  0.00  0.00    +0.000 S 
ATOM      2  O   UNL     1       5.882   4.766  14.582  0.00  0.00    +0.000 OA
ATOM      3  O   UNL     1       4.962   7.050  15.171  0.00  0.00    +0.000 OA
ENDROOT
BRANCH   1   7
ATOM      4  C   UNL     1       3.551   4.044  19.199  0.00  0.00    +0.000 A 
ATOM      5  C   UNL     1       4.374   3.256  18.390  0.00  0.00    +0.000 A 
ATOM      6  C   UNL     1       4.997   3.791  17.257  0.00  0.00    +0.000 A 
ATOM      7  C   UNL     1       4.788   5.129  16.922  0.00  0.00    +0.000 A 
ATOM      8  C   UNL     1       3.976   5.935  17.723  0.00  0.00    +0.000 A 
ATOM      9  C   UNL     1       3.346   5.387  18.849  0.00  0.00    +0.000 A 
BRANCH   4  13
ATOM     10  C   UNL     1       1.186   2.674  21.806  0.00  0.00    +0.000 C 
ATOM     11  C   UNL     1       1.639   2.977  20.402  0.00  0.00    +0.000 C 
ATOM     12  O   UNL     1       0.910   2.730  19.447  0.00  0.00    +0.000 OA
ATOM     13  N   UNL     1       2.902   3.548  20.352  0.00  0.00    +0.000 N 
ATOM     14  H   UNL     1       3.443   3.537  21.208  0.00  0.00    +0.000 HD
ENDBRANCH   4  13
ENDBRANCH   1   7
BRANCH   1  15
ATOM     15  N   UNL     1       7.158   6.262  16.250  0.00  0.00    +0.000 N 
ATOM     16  H   UNL     1       7.875   5.535  16.243  0.00  0.00    +0.000 HD
BRANCH  15  17
ATOM     17  N   UNL     1       7.142   7.302  17.251  0.00  0.00    +0.000 NA
ATOM     18  C   UNL     1       8.220   8.004  17.367  0.00  0.00    +0.000 C 
BRANCH  18  19
ATOM     19  C   UNL     1       8.314   9.052  18.448  0.00  0.00    +0.000 C 
BRANCH  19  20
ATOM     20  C   UNL     1       8.573  10.441  17.874  0.00  0.00    +0.000 C 
BRANCH  20  21
ATOM     21  C   UNL     1       9.744  11.114  18.550  0.00  0.00    +0.000 A 
ATOM     22  C   UNL     1      10.828  11.597  17.801  0.00  0.00    +0.000 A 
ATOM     23  C   UNL     1      11.919  12.190  18.436  0.00  0.00    +0.000 A 
ATOM     24  C   UNL     1      11.946  12.305  19.824  0.00  0.00    +0.000 A 
ATOM     25  C   UNL     1      10.877  11.829  20.580  0.00  0.00    +0.000 A 
ATOM     26  C   UNL     1       9.782  11.233  19.951  0.00  0.00    +0.000 A 
ENDBRANCH  20  21
ENDBRANCH  19  20
ENDBRANCH  18  19
ENDBRANCH  15  17
ENDBRANCH   1  15
TORSDOF 7
ENDMDL
MODEL 7
REMARK VINA RESULT:      -7.6      0.588      1.028
REMARK  Name = 
REMARK  8 active torsions:
REMARK  status: ('A' for Active; 'I' for Inactive)
REMARK    1  A    between atoms: C_1  and  C_2
REMARK    2  A    between atoms: N_4  and  C_5
REMARK    3  A    between atoms: C_8  and  S_9
REMARK    4  A    between atoms: S_9  and  N_12
REMARK    5  A    between atoms: N_12  and  N_13
REMARK    6  A    between atoms: C_14  and  C_15
REMARK    7  A    between atoms: C_15  and  C_16
REMARK    8  A    between atoms: C_16  and  C_17
REMARK                            x       y       z     vdW  Elec       q    Type
REMARK                         _______ _______ _______ _____ _____    ______ ____
ROOT
ATOM      1  S   UNL     1       6.517   5.148  16.186  0.00  0.00    +0.000 S 
ATOM      2  O   UNL     1       7.796   4.597  16.584  0.00  0.00    +0.000 OA
ATOM      3  O   UNL     1       5.918   4.839  14.903  0.00  0.00    +0.000 OA
ENDROOT
BRANCH   1   7
ATOM      4  C   UNL     1       3.367   4.080  19.351  0.00  0.00    +0.000 A 
ATOM      5  C   UNL     1       4.281   5.114  19.570  0.00  0.00    +0.000 A 
ATOM      6  C   UNL     1       5.260   5.425  18.619  0.00  0.00    +0.000 A 
ATOM      7  C   UNL     1       5.333   4.688  17.438  0.00  0.00    +0.000 A 
ATOM      8  C   UNL     1       4.423   3.656  17.196  0.00  0.00    +0.000 A 
ATOM      9  C   UNL     1       3.454   3.344  18.160  0.00  0.00    +0.000 A 
BRANCH   4  13
ATOM     10  C   UNL     1       1.185   2.576  22.042  0.00  0.00    +0.000 C 
ATOM     11  C   UNL     1       2.484   2.817  21.316  0.00  0.00    +0.000 C 
ATOM     12  O   UNL     1       3.502   2.222  21.651  0.00  0.00    +0.000 OA
ATOM     13  N   UNL     1       2.362   3.732  20.280  0.00  0.00    +0.000 N 
ATOM     14  H   UNL     1       1.498   4.258  20.233  0.00  0.00    +0.000 HD
ENDBRANCH   4  13
ENDBRANCH   1   7
BRANCH   1  15
ATOM     15  N   UNL     1       6.565   6.852  16.365  0.00  0.00    +0.000 N 
ATOM     16  H   UNL     1       5.966   7.380  15.730  0.00  0.00    +0.000 HD
BRANCH  15  17
ATOM     17  N   UNL     1       7.762   7.426  16.932  0.00  0.00    +0.000 NA
ATOM     18  C   UNL     1       7.614   8.521  17.599  0.00  0.00    +0.000 C 
BRANCH  18  19
ATOM     19  C   UNL     1       8.827   9.230  18.149  0.00  0.00    +0.000 C 
BRANCH  19  20
ATOM     20  C   UNL     1       8.491  10.631  18.648  0.00  0.00    +0.000 C 
BRANCH  20  21
ATOM     21  C   UNL     1       9.732  11.476  18.816  0.00  0.00    +0.000 A 
ATOM     22  C   UNL     1      10.896  11.199  18.081  0.00  0.00    +0.000 A 
ATOM     23  C   UNL     1      12.047  11.966  18.264  0.00  0.00    +0.000 A 
ATOM     24  C   UNL     1      12.055  13.012  19.183  0.00  0.00    +0.000 A 
ATOM     25  C   UNL     1      10.907  13.296  19.921  0.00  0.00    +0.000 A 
ATOM     26  C   UNL     1       9.752  12.532  19.743  0.00  0.00    +0.000 A 
ENDBRANCH  20  21
ENDBRANCH  19  20
ENDBRANCH  18  19
ENDBRANCH  15  17
ENDBRANCH   1  15
TORSDOF 7
ENDMDL
MODEL 8
REMARK VINA RESULT:      -7.6      3.049      3.354
REMARK  Name = 
REMARK  8 active torsions:
REMARK  status: ('A' for Active; 'I' for Inactive)
REMARK    1  A    between atoms: C_1  and  C_2
REMARK    2  A    between atoms: N_4  and  C_5
REMARK    3  A    between atoms: C_8  and  S_9
REMARK    4  A    between atoms: S_9  and  N_12
REMARK    5  A    between atoms: N_12  and  N_13
REMARK    6  A    between atoms: C_14  and  C_15
REMARK    7  A    between atoms: C_15  and  C_16
REMARK    8  A    between atoms: C_16  and  C_17
REMARK                            x       y       z     vdW  Elec       q    Type
REMARK                         _______ _______ _______ _____ _____    ______ ____
ROOT
ATOM      1  S   UNL     1       5.438   4.735  17.701  0.00  0.00    +0.000 S 
ATOM      2  O   UNL     1       5.946   4.079  18.888  0.00  0.00    +0.000 OA
ATOM      3  O   UNL     1       4.842   3.988  16.612  0.00  0.00    +0.000 OA
ENDROOT
BRANCH   1   7
ATOM      4  C   UNL     1       2.210   7.740  18.978  0.00  0.00    +0.000 A 
ATOM      5  C   UNL     1       3.000   7.973  17.849  0.00  0.00    +0.000 A 
ATOM      6  C   UNL     1       4.003   7.073  17.473  0.00  0.00    +0.000 A 
ATOM      7  C   UNL     1       4.227   5.929  18.238  0.00  0.00    +0.000 A 
ATOM      8  C   UNL     1       3.442   5.673  19.365  0.00  0.00    +0.000 A 
ATOM      9  C   UNL     1       2.447   6.587  19.741  0.00  0.00    +0.000 A 
BRANCH   4  13
ATOM     10  C   UNL     1      -0.268   9.914  20.822  0.00  0.00    +0.000 C 
ATOM     11  C   UNL     1       0.995   9.104  20.681  0.00  0.00    +0.000 C 
ATOM     12  O   UNL     1       1.726   8.921  21.649  0.00  0.00    +0.000 OA
ATOM     13  N   UNL     1       1.186   8.619  19.396  0.00  0.00    +0.000 N 
ATOM     14  H   UNL     1       0.583   8.991  18.672  0.00  0.00    +0.000 HD
ENDBRANCH   4  13
ENDBRANCH   1   7
BRANCH   1  15
ATOM     15  N   UNL     1       6.661   5.748  17.058  0.00  0.00    +0.000 N 
ATOM     16  H   UNL     1       7.046   5.460  16.158  0.00  0.00    +0.000 HD
BRANCH  15  17
ATOM     17  N   UNL     1       7.427   6.539  17.992  0.00  0.00    +0.000 NA
ATOM     18  C   UNL     1       7.697   7.749  17.634  0.00  0.00    +0.000 C 
BRANCH  18  19
ATOM     19  C   UNL     1       8.567   8.611  18.515  0.00  0.00    +0.000 C 
BRANCH  19  20
ATOM     20  C   UNL     1       8.523  10.078  18.099  0.00  0.00    +0.000 C 
BRANCH  20  21
ATOM     21  C   UNL     1       9.644  10.870  18.730  0.00  0.00    +0.000 A 
ATOM     22  C   UNL     1       9.627  11.175  20.101  0.00  0.00    +0.000 A 
ATOM     23  C   UNL     1      10.651  11.933  20.669  0.00  0.00    +0.000 A 
ATOM     24  C   UNL     1      11.701  12.398  19.881  0.00  0.00    +0.000 A 
ATOM     25  C   UNL     1      11.729  12.104  18.519  0.00  0.00    +0.000 A 
ATOM     26  C   UNL     1      10.706  11.347  17.944  0.00  0.00    +0.000 A 
ENDBRANCH  20  21
ENDBRANCH  19  20
ENDBRANCH  18  19
ENDBRANCH  15  17
ENDBRANCH   1  15
TORSDOF 7
ENDMDL
MODEL 9
REMARK VINA RESULT:      -7.5      4.200      5.449
REMARK  Name = 
REMARK  8 active torsions:
REMARK  status: ('A' for Active; 'I' for Inactive)
REMARK    1  A    between atoms: C_1  and  C_2
REMARK    2  A    between atoms: N_4  and  C_5
REMARK    3  A    between atoms: C_8  and  S_9
REMARK    4  A    between atoms: S_9  and  N_12
REMARK    5  A    between atoms: N_12  and  N_13
REMARK    6  A    between atoms: C_14  and  C_15
REMARK    7  A    between atoms: C_15  and  C_16
REMARK    8  A    between atoms: C_16  and  C_17
REMARK                            x       y       z     vdW  Elec       q    Type
REMARK                         _______ _______ _______ _____ _____    ______ ____
ROOT
ATOM      1  S   UNL     1       6.739   4.503  15.970  0.00  0.00    +0.000 S 
ATOM      2  O   UNL     1       8.031   4.211  16.553  0.00  0.00    +0.000 OA
ATOM      3  O   UNL     1       6.297   3.879  14.739  0.00  0.00    +0.000 OA
ENDROOT
BRANCH   1   7
ATOM      4  C   UNL     1       3.522   3.721  19.151  0.00  0.00    +0.000 A 
ATOM      5  C   UNL     1       4.774   4.228  19.508  0.00  0.00    +0.000 A 
ATOM      6  C   UNL     1       5.766   4.442  18.545  0.00  0.00    +0.000 A 
ATOM      7  C   UNL     1       5.508   4.138  17.209  0.00  0.00    +0.000 A 
ATOM      8  C   UNL     1       4.260   3.639  16.831  0.00  0.00    +0.000 A 
ATOM      9  C   UNL     1       3.276   3.416  17.805  0.00  0.00    +0.000 A 
BRANCH   4  13
ATOM     10  C   UNL     1       1.246   2.538  21.924  0.00  0.00    +0.000 C 
ATOM     11  C   UNL     1       2.564   2.673  21.206  0.00  0.00    +0.000 C 
ATOM     12  O   UNL     1       3.558   2.083  21.616  0.00  0.00    +0.000 OA
ATOM     13  N   UNL     1       2.489   3.490  20.088  0.00  0.00    +0.000 N 
ATOM     14  H   UNL     1       1.643   4.035  19.974  0.00  0.00    +0.000 HD
ENDBRANCH   4  13
ENDBRANCH   1   7
BRANCH   1  15
ATOM     15  N   UNL     1       6.572   6.200  15.807  0.00  0.00    +0.000 N 
ATOM     16  H   UNL     1       7.389   6.752  16.070  0.00  0.00    +0.000 HD
BRANCH  15  17
ATOM     17  N   UNL     1       5.237   6.745  15.873  0.00  0.00    +0.000 NA
ATOM     18  C   UNL     1       4.871   7.235  17.011  0.00  0.00    +0.000 C 
BRANCH  18  19
ATOM     19  C   UNL     1       3.461   7.744  17.185  0.00  0.00    +0.000 C 
BRANCH  19  20
ATOM     20  C   UNL     1       2.809   7.192  18.448  0.00  0.00    +0.000 C 
BRANCH  20  21
ATOM     21  C   UNL     1       1.890   8.206  19.089  0.00  0.00    +0.000 A 
ATOM     22  C   UNL     1       1.549   8.112  20.447  0.00  0.00    +0.000 A 
ATOM     23  C   UNL     1       0.676   9.035  21.023  0.00  0.00    +0.000 A 
ATOM     24  C   UNL     1       0.129  10.059  20.253  0.00  0.00    +0.000 A 
ATOM     25  C   UNL     1       0.458  10.163  18.903  0.00  0.00    +0.000 A 
ATOM     26  C   UNL     1       1.330   9.241  18.320  0.00  0.00    +0.000 A 
ENDBRANCH  20  21
ENDBRANCH  19  20
ENDBRANCH  18  19
ENDBRANCH  15  17
ENDBRANCH   1  15
TORSDOF 7
ENDMDL
