MODEL 1
REMARK VINA RESULT:      -9.1      0.000      0.000
REMARK  Name = 
REMARK  9 active torsions:
REMARK  status: ('A' for Active; 'I' for Inactive)
REMARK    1  A    between atoms: C_1  and  C_2
REMARK    2  A    between atoms: C_2  and  C_4
REMARK    3  A    between atoms: C_9  and  C_10
REMARK    4  A    between atoms: C_12  and  C_13
REMARK    5  A    between atoms: N_15  and  C_16
REMARK    6  A    between atoms: C_16  and  C_17
REMARK    7  A    between atoms: C_20  and  C_21
REMARK    8  A    between atoms: C_23  and  C_24
REMARK    9  A    between atoms: C_26  and  O_27
REMARK                            x       y       z     vdW  Elec       q    Type
REMARK                         _______ _______ _______ _____ _____    ______ ____
ROOT
ATOM      1  C   UNL     1       5.496   4.439  15.574  0.00  0.00    +0.000 A 
ATOM      2  C   UNL     1       5.530   3.928  14.289  0.00  0.00    +0.000 A 
ATOM      3  N   UNL     1       6.675   4.393  13.713  0.00  0.00    +0.000 N 
ATOM      4  N   UNL     1       7.408   5.161  14.535  0.00  0.00    +0.000 NA
ATOM      5  C   UNL     1       6.721   5.188  15.694  0.00  0.00    +0.000 A 
ENDROOT
BRANCH   5   6
ATOM      6  C   UNL     1       7.274   5.897  16.856  0.00  0.00    +0.000 A 
ATOM      7  C   UNL     1       7.473   7.289  16.828  0.00  0.00    +0.000 A 
ATOM      8  C   UNL     1       8.013   7.964  17.936  0.00  0.00    +0.000 A 
ATOM      9  C   UNL     1       8.348   9.425  17.863  0.00  0.00    +0.000 C 
ATOM     10  C   UNL     1       8.305   7.245  19.101  0.00  0.00    +0.000 A 
ATOM     11  C   UNL     1       8.121   5.870  19.122  0.00  0.00    +0.000 A 
ATOM     12  C   UNL     1       7.648   5.195  18.005  0.00  0.00    +0.000 A 
BRANCH  11  13
ATOM     13  O   UNL     1       8.409   5.124  20.226  0.00  0.00    +0.000 OA
ATOM     14  H   UNL     1       8.150   5.619  21.018  0.00  0.00    +0.000 HD
ENDBRANCH  11  13
ENDBRANCH   5   6
BRANCH   1  17
ATOM     15  C   UNL     1       2.829   5.009  18.188  0.00  0.00    +0.000 A 
ATOM     16  C   UNL     1       3.956   5.202  17.378  0.00  0.00    +0.000 A 
ATOM     17  C   UNL     1       4.363   4.216  16.474  0.00  0.00    +0.000 A 
ATOM     18  C   UNL     1       3.634   3.031  16.435  0.00  0.00    +0.000 A 
ATOM     19  C   UNL     1       2.525   2.914  17.255  0.00  0.00    +0.000 A 
ATOM     20  N   UNL     1       2.087   3.884  18.086  0.00  0.00    +0.000 NA
BRANCH  15  26
ATOM     21  C   UNL     1       1.808   5.815  20.407  0.00  0.00    +0.000 A 
ATOM     22  C   UNL     1       1.291   6.883  21.176  0.00  0.00    +0.000 A 
ATOM     23  C   UNL     1       1.280   8.188  20.689  0.00  0.00    +0.000 A 
ATOM     24  C   UNL     1       1.795   8.449  19.432  0.00  0.00    +0.000 A 
ATOM     25  C   UNL     1       2.304   7.403  18.661  0.00  0.00    +0.000 A 
ATOM     26  C   UNL     1       2.326   6.057  19.112  0.00  0.00    +0.000 A 
BRANCH  21  28
ATOM     27  C   UNL     1       0.762   3.479  20.688  0.00  0.00    +0.000 C 
ATOM     28  C   UNL     1       1.833   4.476  21.077  0.00  0.00    +0.000 C 
ATOM     29  O   UNL     1       2.618   4.237  21.990  0.00  0.00    +0.000 OA
ENDBRANCH  21  28
ENDBRANCH  15  26
ENDBRANCH   1  17
BRANCH   3  30
ATOM     30  C   UNL     1       7.162   4.078  12.383  0.00  0.00    +0.000 C 
BRANCH  30  31
ATOM     31  C   UNL     1       6.485   2.910  11.814  0.00  0.00    +0.000 C 
ATOM     32  N   UNL     1       5.992   1.964  11.364  0.00  0.00    +0.000 NA
ENDBRANCH  30  31
ENDBRANCH   3  30
TORSDOF 7
ENDMDL
MODEL 2
REMARK VINA RESULT:      -8.9      3.103      6.040
REMARK  Name = 
REMARK  9 active torsions:
REMARK  status: ('A' for Active; 'I' for Inactive)
REMARK    1  A    between atoms: C_1  and  C_2
REMARK    2  A    between atoms: C_2  and  C_4
REMARK    3  A    between atoms: C_9  and  C_10
REMARK    4  A    between atoms: C_12  and  C_13
REMARK    5  A    between atoms: N_15  and  C_16
REMARK    6  A    between atoms: C_16  and  C_17
REMARK    7  A    between atoms: C_20  and  C_21
REMARK    8  A    between atoms: C_23  and  C_24
REMARK    9  A    between atoms: C_26  and  O_27
REMARK                            x       y       z     vdW  Elec       q    Type
REMARK                         _______ _______ _______ _____ _____    ______ ____
ROOT
ATOM      1  C   UNL     1       3.122   5.521  19.319  0.00  0.00    +0.000 A 
ATOM      2  C   UNL     1       2.634   4.690  20.310  0.00  0.00    +0.000 A 
ATOM      3  N   UNL     1       3.310   3.510  20.200  0.00  0.00    +0.000 N 
ATOM      4  N   UNL     1       4.222   3.512  19.216  0.00  0.00    +0.000 NA
ATOM      5  C   UNL     1       4.147   4.743  18.671  0.00  0.00    +0.000 A 
ENDROOT
BRANCH   5   6
ATOM      6  C   UNL     1       5.067   5.121  17.589  0.00  0.00    +0.000 A 
ATOM      7  C   UNL     1       5.012   4.484  16.337  0.00  0.00    +0.000 A 
ATOM      8  C   UNL     1       5.900   4.839  15.306  0.00  0.00    +0.000 A 
ATOM      9  C   UNL     1       5.932   4.076  14.016  0.00  0.00    +0.000 C 
ATOM     10  C   UNL     1       6.813   5.880  15.517  0.00  0.00    +0.000 A 
ATOM     11  C   UNL     1       6.875   6.497  16.759  0.00  0.00    +0.000 A 
ATOM     12  C   UNL     1       6.041   6.102  17.796  0.00  0.00    +0.000 A 
BRANCH  11  13
ATOM     13  O   UNL     1       7.760   7.501  17.017  0.00  0.00    +0.000 OA
ATOM     14  H   UNL     1       7.647   7.793  17.934  0.00  0.00    +0.000 HD
ENDBRANCH  11  13
ENDBRANCH   5   6
BRANCH   1  17
ATOM     15  C   UNL     1       1.282   8.783  19.814  0.00  0.00    +0.000 A 
ATOM     16  C   UNL     1       1.748   7.478  20.020  0.00  0.00    +0.000 A 
ATOM     17  C   UNL     1       2.572   6.856  19.077  0.00  0.00    +0.000 A 
ATOM     18  C   UNL     1       2.880   7.563  17.919  0.00  0.00    +0.000 A 
ATOM     19  C   UNL     1       2.395   8.853  17.786  0.00  0.00    +0.000 A 
ATOM     20  N   UNL     1       1.650   9.484  18.719  0.00  0.00    +0.000 NA
BRANCH  15  26
ATOM     21  C   UNL     1      -0.402  10.589  20.537  0.00  0.00    +0.000 A 
ATOM     22  C   UNL     1      -1.085  11.245  21.586  0.00  0.00    +0.000 A 
ATOM     23  C   UNL     1      -0.936  10.844  22.911  0.00  0.00    +0.000 A 
ATOM     24  C   UNL     1      -0.110   9.775  23.209  0.00  0.00    +0.000 A 
ATOM     25  C   UNL     1       0.574   9.122  22.184  0.00  0.00    +0.000 A 
ATOM     26  C   UNL     1       0.460   9.502  20.820  0.00  0.00    +0.000 A 
BRANCH  21  28
ATOM     27  C   UNL     1      -1.693  10.257  18.334  0.00  0.00    +0.000 C 
ATOM     28  C   UNL     1      -0.710  11.067  19.151  0.00  0.00    +0.000 C 
ATOM     29  O   UNL     1      -0.099  12.010  18.654  0.00  0.00    +0.000 OA
ENDBRANCH  21  28
ENDBRANCH  15  26
ENDBRANCH   1  17
BRANCH   3  30
ATOM     30  C   UNL     1       3.171   2.352  21.062  0.00  0.00    +0.000 C 
BRANCH  30  31
ATOM     31  C   UNL     1       1.944   2.407  21.861  0.00  0.00    +0.000 C 
ATOM     32  N   UNL     1       0.986   2.408  22.512  0.00  0.00    +0.000 NA
ENDBRANCH  30  31
ENDBRANCH   3  30
TORSDOF 7
ENDMDL
MODEL 3
REMARK VINA RESULT:      -8.8      3.117      5.825
REMARK  Name = 
REMARK  9 active torsions:
REMARK  status: ('A' for Active; 'I' for Inactive)
REMARK    1  A    between atoms: C_1  and  C_2
REMARK    2  A    between atoms: C_2  and  C_4
REMARK    3  A    between atoms: C_9  and  C_10
REMARK    4  A    between atoms: C_12  and  C_13
REMARK    5  A    between atoms: N_15  and  C_16
REMARK    6  A    between atoms: C_16  and  C_17
REMARK    7  A    between atoms: C_20  and  C_21
REMARK    8  A    between atoms: C_23  and  C_24
REMARK    9  A    between atoms: C_26  and  O_27
REMARK                            x       y       z     vdW  Elec       q    Type
REMARK                         _______ _______ _______ _____ _____    ______ ____
ROOT
ATOM      1  C   UNL     1       3.178   5.427  19.307  0.00  0.00    +0.000 A 
ATOM      2  C   UNL     1       2.721   4.614  20.328  0.00  0.00    +0.000 A 
ATOM      3  N   UNL     1       3.383   3.427  20.209  0.00  0.00    +0.000 N 
ATOM      4  N   UNL     1       4.258   3.408  19.191  0.00  0.00    +0.000 NA
ATOM      5  C   UNL     1       4.172   4.631  18.632  0.00  0.00    +0.000 A 
ENDROOT
BRANCH   5   6
ATOM      6  C   UNL     1       5.053   4.986  17.511  0.00  0.00    +0.000 A 
ATOM      7  C   UNL     1       4.903   4.379  16.251  0.00  0.00    +0.000 A 
ATOM      8  C   UNL     1       5.753   4.712  15.183  0.00  0.00    +0.000 A 
ATOM      9  C   UNL     1       5.680   3.975  13.878  0.00  0.00    +0.000 C 
ATOM     10  C   UNL     1       6.727   5.701  15.364  0.00  0.00    +0.000 A 
ATOM     11  C   UNL     1       6.883   6.289  16.612  0.00  0.00    +0.000 A 
ATOM     12  C   UNL     1       6.085   5.913  17.684  0.00  0.00    +0.000 A 
BRANCH  11  13
ATOM     13  O   UNL     1       7.830   7.242  16.843  0.00  0.00    +0.000 OA
ATOM     14  H   UNL     1       7.721   7.584  17.743  0.00  0.00    +0.000 HD
ENDBRANCH  11  13
ENDBRANCH   5   6
BRANCH   1  17
ATOM     15  C   UNL     1       1.346   8.692  19.807  0.00  0.00    +0.000 A 
ATOM     16  C   UNL     1       1.810   7.386  20.012  0.00  0.00    +0.000 A 
ATOM     17  C   UNL     1       2.630   6.763  19.067  0.00  0.00    +0.000 A 
ATOM     18  C   UNL     1       2.936   7.469  17.908  0.00  0.00    +0.000 A 
ATOM     19  C   UNL     1       2.453   8.760  17.776  0.00  0.00    +0.000 A 
ATOM     20  N   UNL     1       1.712   9.393  18.711  0.00  0.00    +0.000 NA
BRANCH  15  26
ATOM     21  C   UNL     1      -0.321  10.511  20.538  0.00  0.00    +0.000 A 
ATOM     22  C   UNL     1      -1.001  11.167  21.589  0.00  0.00    +0.000 A 
ATOM     23  C   UNL     1      -0.860  10.755  22.912  0.00  0.00    +0.000 A 
ATOM     24  C   UNL     1      -0.047   9.675  23.205  0.00  0.00    +0.000 A 
ATOM     25  C   UNL     1       0.633   9.021  22.177  0.00  0.00    +0.000 A 
ATOM     26  C   UNL     1       0.528   9.413  20.816  0.00  0.00    +0.000 A 
BRANCH  21  28
ATOM     27  C   UNL     1      -1.633  10.229  18.340  0.00  0.00    +0.000 C 
ATOM     28  C   UNL     1      -0.619  11.002  19.155  0.00  0.00    +0.000 C 
ATOM     29  O   UNL     1       0.021  11.925  18.657  0.00  0.00    +0.000 OA
ENDBRANCH  21  28
ENDBRANCH  15  26
ENDBRANCH   1  17
BRANCH   3  30
ATOM     30  C   UNL     1       3.268   2.282  21.093  0.00  0.00    +0.000 C 
BRANCH  30  31
ATOM     31  C   UNL     1       4.557   1.617  21.299  0.00  0.00    +0.000 C 
ATOM     32  N   UNL     1       5.573   1.102  21.508  0.00  0.00    +0.000 NA
ENDBRANCH  30  31
ENDBRANCH   3  30
TORSDOF 7
ENDMDL
MODEL 4
REMARK VINA RESULT:      -8.7      4.850      8.206
REMARK  Name = 
REMARK  9 active torsions:
REMARK  status: ('A' for Active; 'I' for Inactive)
REMARK    1  A    between atoms: C_1  and  C_2
REMARK    2  A    between atoms: C_2  and  C_4
REMARK    3  A    between atoms: C_9  and  C_10
REMARK    4  A    between atoms: C_12  and  C_13
REMARK    5  A    between atoms: N_15  and  C_16
REMARK    6  A    between atoms: C_16  and  C_17
REMARK    7  A    between atoms: C_20  and  C_21
REMARK    8  A    between atoms: C_23  and  C_24
REMARK    9  A    between atoms: C_26  and  O_27
REMARK                            x       y       z     vdW  Elec       q    Type
REMARK                         _______ _______ _______ _____ _____    ______ ____
ROOT
ATOM      1  C   UNL     1      -0.226  10.303  18.437  0.00  0.00    +0.000 A 
ATOM      2  C   UNL     1      -1.353  10.005  17.694  0.00  0.00    +0.000 A 
ATOM      3  N   UNL     1      -1.946  11.194  17.388  0.00  0.00    +0.000 N 
ATOM      4  N   UNL     1      -1.279  12.257  17.863  0.00  0.00    +0.000 NA
ATOM      5  C   UNL     1      -0.204  11.743  18.492  0.00  0.00    +0.000 A 
ENDROOT
BRANCH   5   6
ATOM      6  C   UNL     1       0.795  12.642  19.086  0.00  0.00    +0.000 A 
ATOM      7  C   UNL     1       1.895  13.098  18.338  0.00  0.00    +0.000 A 
ATOM      8  C   UNL     1       2.856  13.949  18.910  0.00  0.00    +0.000 A 
ATOM      9  C   UNL     1       4.096  14.332  18.159  0.00  0.00    +0.000 C 
ATOM     10  C   UNL     1       2.682  14.392  20.228  0.00  0.00    +0.000 A 
ATOM     11  C   UNL     1       1.602  13.930  20.969  0.00  0.00    +0.000 A 
ATOM     12  C   UNL     1       0.689  13.038  20.422  0.00  0.00    +0.000 A 
BRANCH  11  13
ATOM     13  O   UNL     1       1.402  14.316  22.260  0.00  0.00    +0.000 OA
ATOM     14  H   UNL     1       0.580  14.827  22.313  0.00  0.00    +0.000 HD
ENDBRANCH  11  13
ENDBRANCH   5   6
BRANCH   1  17
ATOM     15  C   UNL     1       2.300   7.514  18.769  0.00  0.00    +0.000 A 
ATOM     16  C   UNL     1       1.434   8.460  18.204  0.00  0.00    +0.000 A 
ATOM     17  C   UNL     1       0.627   9.264  19.015  0.00  0.00    +0.000 A 
ATOM     18  C   UNL     1       0.690   9.066  20.391  0.00  0.00    +0.000 A 
ATOM     19  C   UNL     1       1.576   8.123  20.881  0.00  0.00    +0.000 A 
ATOM     20  N   UNL     1       2.404   7.385  20.111  0.00  0.00    +0.000 NA
BRANCH  15  26
ATOM     21  C   UNL     1       3.078   5.297  17.722  0.00  0.00    +0.000 A 
ATOM     22  C   UNL     1       4.054   4.595  16.977  0.00  0.00    +0.000 A 
ATOM     23  C   UNL     1       5.167   5.244  16.447  0.00  0.00    +0.000 A 
ATOM     24  C   UNL     1       5.317   6.605  16.642  0.00  0.00    +0.000 A 
ATOM     25  C   UNL     1       4.363   7.309  17.379  0.00  0.00    +0.000 A 
ATOM     26  C   UNL     1       3.220   6.688  17.947  0.00  0.00    +0.000 A 
BRANCH  21  28
ATOM     27  C   UNL     1       1.904   3.961  19.585  0.00  0.00    +0.000 C 
ATOM     28  C   UNL     1       1.893   4.498  18.169  0.00  0.00    +0.000 C 
ATOM     29  O   UNL     1       1.002   4.189  17.383  0.00  0.00    +0.000 OA
ENDBRANCH  21  28
ENDBRANCH  15  26
ENDBRANCH   1  17
BRANCH   3  30
ATOM     30  C   UNL     1      -3.133  11.383  16.575  0.00  0.00    +0.000 C 
BRANCH  30  31
ATOM     31  C   UNL     1      -3.040  10.676  15.295  0.00  0.00    +0.000 C 
ATOM     32  N   UNL     1      -2.999  10.087  14.299  0.00  0.00    +0.000 NA
ENDBRANCH  30  31
ENDBRANCH   3  30
TORSDOF 7
ENDMDL
MODEL 5
REMARK VINA RESULT:      -8.7      3.212      5.897
REMARK  Name = 
REMARK  9 active torsions:
REMARK  status: ('A' for Active; 'I' for Inactive)
REMARK    1  A    between atoms: C_1  and  C_2
REMARK    2  A    between atoms: C_2  and  C_4
REMARK    3  A    between atoms: C_9  and  C_10
REMARK    4  A    between atoms: C_12  and  C_13
REMARK    5  A    between atoms: N_15  and  C_16
REMARK    6  A    between atoms: C_16  and  C_17
REMARK    7  A    between atoms: C_20  and  C_21
REMARK    8  A    between atoms: C_23  and  C_24
REMARK    9  A    between atoms: C_26  and  O_27
REMARK                            x       y       z     vdW  Elec       q    Type
REMARK                         _______ _______ _______ _____ _____    ______ ____
ROOT
ATOM      1  C   UNL     1       2.678   5.617  18.777  0.00  0.00    +0.000 A 
ATOM      2  C   UNL     1       1.914   4.687  19.458  0.00  0.00    +0.000 A 
ATOM      3  N   UNL     1       2.490   3.470  19.237  0.00  0.00    +0.000 N 
ATOM      4  N   UNL     1       3.591   3.536  18.472  0.00  0.00    +0.000 NA
ATOM      5  C   UNL     1       3.746   4.845  18.193  0.00  0.00    +0.000 A 
ENDROOT
BRANCH   5   6
ATOM      6  C   UNL     1       4.908   5.294  17.414  0.00  0.00    +0.000 A 
ATOM      7  C   UNL     1       5.810   6.238  17.936  0.00  0.00    +0.000 A 
ATOM      8  C   UNL     1       6.915   6.674  17.186  0.00  0.00    +0.000 A 
ATOM      9  C   UNL     1       7.804   7.774  17.686  0.00  0.00    +0.000 C 
ATOM     10  C   UNL     1       7.147   6.119  15.922  0.00  0.00    +0.000 A 
ATOM     11  C   UNL     1       6.248   5.198  15.402  0.00  0.00    +0.000 A 
ATOM     12  C   UNL     1       5.122   4.815  16.118  0.00  0.00    +0.000 A 
BRANCH  11  13
ATOM     13  O   UNL     1       6.421   4.644  14.168  0.00  0.00    +0.000 OA
ATOM     14  H   UNL     1       6.319   3.683  14.236  0.00  0.00    +0.000 HD
ENDBRANCH  11  13
ENDBRANCH   5   6
BRANCH   1  17
ATOM     15  C   UNL     1       1.217   8.983  19.675  0.00  0.00    +0.000 A 
ATOM     16  C   UNL     1       1.504   7.612  19.700  0.00  0.00    +0.000 A 
ATOM     17  C   UNL     1       2.315   7.033  18.718  0.00  0.00    +0.000 A 
ATOM     18  C   UNL     1       2.794   7.858  17.705  0.00  0.00    +0.000 A 
ATOM     19  C   UNL     1       2.481   9.206  17.750  0.00  0.00    +0.000 A 
ATOM     20  N   UNL     1       1.750   9.785  18.727  0.00  0.00    +0.000 NA
BRANCH  15  26
ATOM     21  C   UNL     1      -0.480  10.722  20.520  0.00  0.00    +0.000 A 
ATOM     22  C   UNL     1      -1.141  11.324  21.615  0.00  0.00    +0.000 A 
ATOM     23  C   UNL     1      -0.937  10.880  22.919  0.00  0.00    +0.000 A 
ATOM     24  C   UNL     1      -0.078   9.821  23.149  0.00  0.00    +0.000 A 
ATOM     25  C   UNL     1       0.585   9.221  22.078  0.00  0.00    +0.000 A 
ATOM     26  C   UNL     1       0.415   9.646  20.735  0.00  0.00    +0.000 A 
BRANCH  21  28
ATOM     27  C   UNL     1      -1.767  10.392  18.314  0.00  0.00    +0.000 C 
ATOM     28  C   UNL     1      -0.847  11.241  19.164  0.00  0.00    +0.000 C 
ATOM     29  O   UNL     1      -0.327  12.258  18.712  0.00  0.00    +0.000 OA
ENDBRANCH  21  28
ENDBRANCH  15  26
ENDBRANCH   1  17
BRANCH   3  30
ATOM     30  C   UNL     1       2.065   2.200  19.794  0.00  0.00    +0.000 C 
BRANCH  30  31
ATOM     31  C   UNL     1       1.693   2.317  21.206  0.00  0.00    +0.000 C 
ATOM     32  N   UNL     1       1.417   2.454  22.322  0.00  0.00    +0.000 NA
ENDBRANCH  30  31
ENDBRANCH   3  30
TORSDOF 7
ENDMDL
MODEL 6
REMARK VINA RESULT:      -8.6      4.881      8.242
REMARK  Name = 
REMARK  9 active torsions:
REMARK  status: ('A' for Active; 'I' for Inactive)
REMARK    1  A    between atoms: C_1  and  C_2
REMARK    2  A    between atoms: C_2  and  C_4
REMARK    3  A    between atoms: C_9  and  C_10
REMARK    4  A    between atoms: C_12  and  C_13
REMARK    5  A    between atoms: N_15  and  C_16
REMARK    6  A    between atoms: C_16  and  C_17
REMARK    7  A    between atoms: C_20  and  C_21
REMARK    8  A    between atoms: C_23  and  C_24
REMARK    9  A    between atoms: C_26  and  O_27
REMARK                            x       y       z     vdW  Elec       q    Type
REMARK                         _______ _______ _______ _____ _____    ______ ____
ROOT
ATOM      1  C   UNL     1      -0.236  10.327  18.425  0.00  0.00    +0.000 A 
ATOM      2  C   UNL     1      -1.410  10.031  17.757  0.00  0.00    +0.000 A 
ATOM      3  N   UNL     1      -1.980  11.224  17.422  0.00  0.00    +0.000 N 
ATOM      4  N   UNL     1      -1.255  12.285  17.808  0.00  0.00    +0.000 NA
ATOM      5  C   UNL     1      -0.165  11.766  18.406  0.00  0.00    +0.000 A 
ENDROOT
BRANCH   5   6
ATOM      6  C   UNL     1       0.893  12.658  18.900  0.00  0.00    +0.000 A 
ATOM      7  C   UNL     1       0.786  13.284  20.154  0.00  0.00    +0.000 A 
ATOM      8  C   UNL     1       1.793  14.146  20.620  0.00  0.00    +0.000 A 
ATOM      9  C   UNL     1       1.623  14.916  21.896  0.00  0.00    +0.000 C 
ATOM     10  C   UNL     1       2.944  14.338  19.845  0.00  0.00    +0.000 A 
ATOM     11  C   UNL     1       3.042  13.730  18.601  0.00  0.00    +0.000 A 
ATOM     12  C   UNL     1       2.017  12.930  18.114  0.00  0.00    +0.000 A 
BRANCH  11  13
ATOM     13  O   UNL     1       4.133  13.902  17.803  0.00  0.00    +0.000 OA
ATOM     14  H   UNL     1       3.844  13.949  16.879  0.00  0.00    +0.000 HD
ENDBRANCH  11  13
ENDBRANCH   5   6
BRANCH   1  17
ATOM     15  C   UNL     1       2.285   7.535  18.778  0.00  0.00    +0.000 A 
ATOM     16  C   UNL     1       1.423   8.480  18.206  0.00  0.00    +0.000 A 
ATOM     17  C   UNL     1       0.613   9.288  19.011  0.00  0.00    +0.000 A 
ATOM     18  C   UNL     1       0.670   9.095  20.388  0.00  0.00    +0.000 A 
ATOM     19  C   UNL     1       1.553   8.152  20.885  0.00  0.00    +0.000 A 
ATOM     20  N   UNL     1       2.383   7.411  20.120  0.00  0.00    +0.000 NA
BRANCH  15  26
ATOM     21  C   UNL     1       3.054   5.317  17.726  0.00  0.00    +0.000 A 
ATOM     22  C   UNL     1       4.033   4.610  16.990  0.00  0.00    +0.000 A 
ATOM     23  C   UNL     1       5.159   5.251  16.480  0.00  0.00    +0.000 A 
ATOM     24  C   UNL     1       5.321   6.609  16.687  0.00  0.00    +0.000 A 
ATOM     25  C   UNL     1       4.365   7.317  17.415  0.00  0.00    +0.000 A 
ATOM     26  C   UNL     1       3.207   6.705  17.963  0.00  0.00    +0.000 A 
BRANCH  21  28
ATOM     27  C   UNL     1       1.824   4.014  19.576  0.00  0.00    +0.000 C 
ATOM     28  C   UNL     1       1.855   4.528  18.152  0.00  0.00    +0.000 C 
ATOM     29  O   UNL     1       0.986   4.208  17.345  0.00  0.00    +0.000 OA
ENDBRANCH  21  28
ENDBRANCH  15  26
ENDBRANCH   1  17
BRANCH   3  30
ATOM     30  C   UNL     1      -3.203  11.413  16.664  0.00  0.00    +0.000 C 
BRANCH  30  31
ATOM     31  C   UNL     1      -3.168  10.704  15.383  0.00  0.00    +0.000 C 
ATOM     32  N   UNL     1      -3.180  10.167  14.356  0.00  0.00    +0.000 NA
ENDBRANCH  30  31
ENDBRANCH   3  30
TORSDOF 7
ENDMDL
MODEL 7
REMARK VINA RESULT:      -8.4      3.297      5.685
REMARK  Name = 
REMARK  9 active torsions:
REMARK  status: ('A' for Active; 'I' for Inactive)
REMARK    1  A    between atoms: C_1  and  C_2
REMARK    2  A    between atoms: C_2  and  C_4
REMARK    3  A    between atoms: C_9  and  C_10
REMARK    4  A    between atoms: C_12  and  C_13
REMARK    5  A    between atoms: N_15  and  C_16
REMARK    6  A    between atoms: C_16  and  C_17
REMARK    7  A    between atoms: C_20  and  C_21
REMARK    8  A    between atoms: C_23  and  C_24
REMARK    9  A    between atoms: C_26  and  O_27
REMARK                            x       y       z     vdW  Elec       q    Type
REMARK                         _______ _______ _______ _____ _____    ______ ____
ROOT
ATOM      1  C   UNL     1       3.232   5.475  19.407  0.00  0.00    +0.000 A 
ATOM      2  C   UNL     1       2.687   4.567  20.296  0.00  0.00    +0.000 A 
ATOM      3  N   UNL     1       3.452   3.440  20.223  0.00  0.00    +0.000 N 
ATOM      4  N   UNL     1       4.474   3.549  19.360  0.00  0.00    +0.000 NA
ATOM      5  C   UNL     1       4.380   4.797  18.860  0.00  0.00    +0.000 A 
ENDROOT
BRANCH   5   6
ATOM      6  C   UNL     1       5.394   5.285  17.916  0.00  0.00    +0.000 A 
ATOM      7  C   UNL     1       6.204   6.390  18.229  0.00  0.00    +0.000 A 
ATOM      8  C   UNL     1       7.166   6.863  17.321  0.00  0.00    +0.000 A 
ATOM      9  C   UNL     1       7.940   8.118  17.596  0.00  0.00    +0.000 C 
ATOM     10  C   UNL     1       7.355   6.186  16.109  0.00  0.00    +0.000 A 
ATOM     11  C   UNL     1       6.545   5.103  15.795  0.00  0.00    +0.000 A 
ATOM     12  C   UNL     1       5.552   4.677  16.666  0.00  0.00    +0.000 A 
BRANCH  11  13
ATOM     13  O   UNL     1       6.678   4.425  14.620  0.00  0.00    +0.000 OA
ATOM     14  H   UNL     1       5.841   4.467  14.135  0.00  0.00    +0.000 HD
ENDBRANCH  11  13
ENDBRANCH   5   6
BRANCH   1  17
ATOM     15  C   UNL     1       1.285   8.677  19.887  0.00  0.00    +0.000 A 
ATOM     16  C   UNL     1       1.808   7.396  20.108  0.00  0.00    +0.000 A 
ATOM     17  C   UNL     1       2.623   6.781  19.152  0.00  0.00    +0.000 A 
ATOM     18  C   UNL     1       2.864   7.470  17.967  0.00  0.00    +0.000 A 
ATOM     19  C   UNL     1       2.325   8.737  17.821  0.00  0.00    +0.000 A 
ATOM     20  N   UNL     1       1.589   9.364  18.763  0.00  0.00    +0.000 NA
BRANCH  15  26
ATOM     21  C   UNL     1      -0.436  10.440  20.626  0.00  0.00    +0.000 A 
ATOM     22  C   UNL     1      -1.110  11.095  21.682  0.00  0.00    +0.000 A 
ATOM     23  C   UNL     1      -0.905  10.729  23.010  0.00  0.00    +0.000 A 
ATOM     24  C   UNL     1      -0.034   9.695  23.303  0.00  0.00    +0.000 A 
ATOM     25  C   UNL     1       0.640   9.043  22.271  0.00  0.00    +0.000 A 
ATOM     26  C   UNL     1       0.471   9.389  20.904  0.00  0.00    +0.000 A 
BRANCH  21  28
ATOM     27  C   UNL     1      -0.281  12.217  18.768  0.00  0.00    +0.000 C 
ATOM     28  C   UNL     1      -0.803  10.877  19.241  0.00  0.00    +0.000 C 
ATOM     29  O   UNL     1      -1.595  10.231  18.560  0.00  0.00    +0.000 OA
ENDBRANCH  21  28
ENDBRANCH  15  26
ENDBRANCH   1  17
BRANCH   3  30
ATOM     30  C   UNL     1       3.292   2.235  21.015  0.00  0.00    +0.000 C 
BRANCH  30  31
ATOM     31  C   UNL     1       4.576   1.587  21.292  0.00  0.00    +0.000 C 
ATOM     32  N   UNL     1       5.613   1.113  21.496  0.00  0.00    +0.000 NA
ENDBRANCH  30  31
ENDBRANCH   3  30
TORSDOF 7
ENDMDL
MODEL 8
REMARK VINA RESULT:      -8.3      3.411      6.488
REMARK  Name = 
REMARK  9 active torsions:
REMARK  status: ('A' for Active; 'I' for Inactive)
REMARK    1  A    between atoms: C_1  and  C_2
REMARK    2  A    between atoms: C_2  and  C_4
REMARK    3  A    between atoms: C_9  and  C_10
REMARK    4  A    between atoms: C_12  and  C_13
REMARK    5  A    between atoms: N_15  and  C_16
REMARK    6  A    between atoms: C_16  and  C_17
REMARK    7  A    between atoms: C_20  and  C_21
REMARK    8  A    between atoms: C_23  and  C_24
REMARK    9  A    between atoms: C_26  and  O_27
REMARK                            x       y       z     vdW  Elec       q    Type
REMARK                         _______ _______ _______ _____ _____    ______ ____
ROOT
ATOM      1  C   UNL     1       3.145   6.718  18.196  0.00  0.00    +0.000 A 
ATOM      2  C   UNL     1       4.052   7.206  17.274  0.00  0.00    +0.000 A 
ATOM      3  N   UNL     1       4.674   6.123  16.726  0.00  0.00    +0.000 N 
ATOM      4  N   UNL     1       4.228   4.954  17.211  0.00  0.00    +0.000 NA
ATOM      5  C   UNL     1       3.271   5.285  18.099  0.00  0.00    +0.000 A 
ENDROOT
BRANCH   5   6
ATOM      6  C   UNL     1       2.512   4.230  18.784  0.00  0.00    +0.000 A 
ATOM      7  C   UNL     1       2.609   4.055  20.176  0.00  0.00    +0.000 A 
ATOM      8  C   UNL     1       1.891   3.038  20.828  0.00  0.00    +0.000 A 
ATOM      9  C   UNL     1       2.091   2.766  22.290  0.00  0.00    +0.000 C 
ATOM     10  C   UNL     1       1.027   2.224  20.085  0.00  0.00    +0.000 A 
ATOM     11  C   UNL     1       0.943   2.389  18.709  0.00  0.00    +0.000 A 
ATOM     12  C   UNL     1       1.702   3.352  18.058  0.00  0.00    +0.000 A 
BRANCH  11  13
ATOM     13  O   UNL     1       0.132   1.609  17.941  0.00  0.00    +0.000 OA
ATOM     14  H   UNL     1      -0.792   1.840  18.122  0.00  0.00    +0.000 HD
ENDBRANCH  11  13
ENDBRANCH   5   6
BRANCH   1  17
ATOM     15  C   UNL     1       0.799   9.461  19.311  0.00  0.00    +0.000 A 
ATOM     16  C   UNL     1       1.619   8.664  18.501  0.00  0.00    +0.000 A 
ATOM     17  C   UNL     1       2.343   7.599  19.046  0.00  0.00    +0.000 A 
ATOM     18  C   UNL     1       2.246   7.384  20.418  0.00  0.00    +0.000 A 
ATOM     19  C   UNL     1       1.407   8.203  21.155  0.00  0.00    +0.000 A 
ATOM     20  N   UNL     1       0.657   9.194  20.628  0.00  0.00    +0.000 NA
BRANCH  15  26
ATOM     21  C   UNL     1       0.330  11.927  18.746  0.00  0.00    +0.000 A 
ATOM     22  C   UNL     1      -0.573  12.898  18.257  0.00  0.00    +0.000 A 
ATOM     23  C   UNL     1      -1.832  12.542  17.778  0.00  0.00    +0.000 A 
ATOM     24  C   UNL     1      -2.203  11.210  17.769  0.00  0.00    +0.000 A 
ATOM     25  C   UNL     1      -1.323  10.242  18.252  0.00  0.00    +0.000 A 
ATOM     26  C   UNL     1      -0.035  10.559  18.759  0.00  0.00    +0.000 A 
BRANCH  21  28
ATOM     27  C   UNL     1       1.793  13.094  20.515  0.00  0.00    +0.000 C 
ATOM     28  C   UNL     1       1.679  12.432  19.158  0.00  0.00    +0.000 C 
ATOM     29  O   UNL     1       2.628  12.417  18.380  0.00  0.00    +0.000 OA
ENDBRANCH  21  28
ENDBRANCH  15  26
ENDBRANCH   1  17
BRANCH   3  30
ATOM     30  C   UNL     1       5.671   6.143  15.671  0.00  0.00    +0.000 C 
BRANCH  30  31
ATOM     31  C   UNL     1       6.811   5.276  15.979  0.00  0.00    +0.000 C 
ATOM     32  N   UNL     1       7.722   4.589  16.175  0.00  0.00    +0.000 NA
ENDBRANCH  30  31
ENDBRANCH   3  30
TORSDOF 7
ENDMDL
MODEL 9
REMARK VINA RESULT:      -8.3      3.379      6.393
REMARK  Name = 
REMARK  9 active torsions:
REMARK  status: ('A' for Active; 'I' for Inactive)
REMARK    1  A    between atoms: C_1  and  C_2
REMARK    2  A    between atoms: C_2  and  C_4
REMARK    3  A    between atoms: C_9  and  C_10
REMARK    4  A    between atoms: C_12  and  C_13
REMARK    5  A    between atoms: N_15  and  C_16
REMARK    6  A    between atoms: C_16  and  C_17
REMARK    7  A    between atoms: C_20  and  C_21
REMARK    8  A    between atoms: C_23  and  C_24
REMARK    9  A    between atoms: C_26  and  O_27
REMARK                            x       y       z     vdW  Elec       q    Type
REMARK                         _______ _______ _______ _____ _____    ______ ____
ROOT
ATOM      1  C   UNL     1       3.028   6.897  18.221  0.00  0.00    +0.000 A 
ATOM      2  C   UNL     1       3.895   7.409  17.273  0.00  0.00    +0.000 A 
ATOM      3  N   UNL     1       4.506   6.341  16.684  0.00  0.00    +0.000 N 
ATOM      4  N   UNL     1       4.089   5.160  17.166  0.00  0.00    +0.000 NA
ATOM      5  C   UNL     1       3.163   5.468  18.095  0.00  0.00    +0.000 A 
ENDROOT
BRANCH   5   6
ATOM      6  C   UNL     1       2.441   4.394  18.791  0.00  0.00    +0.000 A 
ATOM      7  C   UNL     1       2.564   4.221  20.181  0.00  0.00    +0.000 A 
ATOM      8  C   UNL     1       1.881   3.187  20.844  0.00  0.00    +0.000 A 
ATOM      9  C   UNL     1       2.110   2.919  22.302  0.00  0.00    +0.000 C 
ATOM     10  C   UNL     1       1.025   2.353  20.114  0.00  0.00    +0.000 A 
ATOM     11  C   UNL     1       0.916   2.517  18.740  0.00  0.00    +0.000 A 
ATOM     12  C   UNL     1       1.641   3.498  18.077  0.00  0.00    +0.000 A 
BRANCH  11  13
ATOM     13  O   UNL     1       0.111   1.717  17.984  0.00  0.00    +0.000 OA
ATOM     14  H   UNL     1      -0.006   0.869  18.436  0.00  0.00    +0.000 HD
ENDBRANCH  11  13
ENDBRANCH   5   6
BRANCH   1  17
ATOM     15  C   UNL     1       1.036   9.820  19.546  0.00  0.00    +0.000 A 
ATOM     16  C   UNL     1       1.838   9.030  18.712  0.00  0.00    +0.000 A 
ATOM     17  C   UNL     1       2.252   7.757  19.115  0.00  0.00    +0.000 A 
ATOM     18  C   UNL     1       1.869   7.322  20.380  0.00  0.00    +0.000 A 
ATOM     19  C   UNL     1       1.066   8.149  21.146  0.00  0.00    +0.000 A 
ATOM     20  N   UNL     1       0.611   9.354  20.741  0.00  0.00    +0.000 NA
BRANCH  15  26
ATOM     21  C   UNL     1      -0.683  11.366  18.418  0.00  0.00    +0.000 A 
ATOM     22  C   UNL     1      -1.041  12.671  18.009  0.00  0.00    +0.000 A 
ATOM     23  C   UNL     1      -0.230  13.768  18.291  0.00  0.00    +0.000 A 
ATOM     24  C   UNL     1       0.945  13.581  18.997  0.00  0.00    +0.000 A 
ATOM     25  C   UNL     1       1.312  12.298  19.403  0.00  0.00    +0.000 A 
ATOM     26  C   UNL     1       0.523  11.150  19.128  0.00  0.00    +0.000 A 
BRANCH  21  28
ATOM     27  C   UNL     1      -1.942   9.961  16.666  0.00  0.00    +0.000 C 
ATOM     28  C   UNL     1      -1.678  10.287  18.120  0.00  0.00    +0.000 C 
ATOM     29  O   UNL     1      -2.342   9.771  19.015  0.00  0.00    +0.000 OA
ENDBRANCH  21  28
ENDBRANCH  15  26
ENDBRANCH   1  17
BRANCH   3  30
ATOM     30  C   UNL     1       5.461   6.387  15.592  0.00  0.00    +0.000 C 
BRANCH  30  31
ATOM     31  C   UNL     1       6.565   5.446  15.791  0.00  0.00    +0.000 C 
ATOM     32  N   UNL     1       7.468   4.733  15.927  0.00  0.00    +0.000 NA
ENDBRANCH  30  31
ENDBRANCH   3  30
TORSDOF 7
ENDMDL
