MODEL 1
REMARK VINA RESULT:      -5.0      0.000      0.000
REMARK  Name = 
REMARK  2 active torsions:
REMARK  status: ('A' for Active; 'I' for Inactive)
REMARK    1  A    between atoms: N_1  and  C_2
REMARK    2  A    between atoms: C_4  and  C_5
REMARK                            x       y       z     vdW  Elec       q    Type
REMARK                         _______ _______ _______ _____ _____    ______ ____
ROOT
ATOM      1  C   UNL     1       6.371   4.662  17.236  0.00  0.00    +0.000 C 
ATOM      2  C   UNL     1       5.608   5.365  16.156  0.00  0.00    +0.000 C 
ATOM      3  C   UNL     1       5.233   3.951  16.530  0.00  0.00    +0.000 C 
ENDROOT
BRANCH   3   4
ATOM      4  C   UNL     1       3.959   3.659  17.283  0.00  0.00    +0.000 A 
ATOM      5  C   UNL     1       2.975   4.633  17.497  0.00  0.00    +0.000 A 
ATOM      6  C   UNL     1       1.791   4.314  18.164  0.00  0.00    +0.000 A 
ATOM      7  C   UNL     1       1.616   3.015  18.606  0.00  0.00    +0.000 A 
ATOM      8  N   UNL     1       2.527   2.038  18.425  0.00  0.00    +0.000 NA
ATOM      9  C   UNL     1       3.660   2.384  17.767  0.00  0.00    +0.000 A 
ENDBRANCH   3   4
BRANCH   1  10
ATOM     10  N   UNL     1       7.742   4.211  17.001  0.00  0.00    +0.000 NA
ATOM     11  H   UNL     1       8.360   5.004  16.831  0.00  0.00    +0.000 HD
ATOM     12  H   UNL     1       7.809   3.623  16.170  0.00  0.00    +0.000 HD
ENDBRANCH   1  10
TORSDOF 2
ENDMDL
MODEL 2
REMARK VINA RESULT:      -4.9      2.231      2.596
REMARK  Name = 
REMARK  2 active torsions:
REMARK  status: ('A' for Active; 'I' for Inactive)
REMARK    1  A    between atoms: N_1  and  C_2
REMARK    2  A    between atoms: C_4  and  C_5
REMARK                            x       y       z     vdW  Elec       q    Type
REMARK                         _______ _______ _______ _____ _____    ______ ____
ROOT
ATOM      1  C   UNL     1       5.361   4.505  18.795  0.00  0.00    +0.000 C 
ATOM      2  C   UNL     1       4.333   4.591  17.708  0.00  0.00    +0.000 C 
ATOM      3  C   UNL     1       4.323   3.409  18.649  0.00  0.00    +0.000 C 
ENDROOT
BRANCH   3   4
ATOM      4  C   UNL     1       3.248   3.260  19.696  0.00  0.00    +0.000 A 
ATOM      5  C   UNL     1       1.935   3.702  19.491  0.00  0.00    +0.000 A 
ATOM      6  C   UNL     1       0.958   3.511  20.468  0.00  0.00    +0.000 A 
ATOM      7  C   UNL     1       1.319   2.874  21.642  0.00  0.00    +0.000 A 
ATOM      8  N   UNL     1       2.566   2.425  21.892  0.00  0.00    +0.000 NA
ATOM      9  C   UNL     1       3.485   2.623  20.915  0.00  0.00    +0.000 A 
ENDBRANCH   3   4
BRANCH   1  10
ATOM     10  N   UNL     1       6.755   4.207  18.473  0.00  0.00    +0.000 NA
ATOM     11  H   UNL     1       7.381   4.595  19.178  0.00  0.00    +0.000 HD
ATOM     12  H   UNL     1       7.038   4.629  17.589  0.00  0.00    +0.000 HD
ENDBRANCH   1  10
TORSDOF 2
ENDMDL
MODEL 3
REMARK VINA RESULT:      -4.9      2.139      4.601
REMARK  Name = 
REMARK  2 active torsions:
REMARK  status: ('A' for Active; 'I' for Inactive)
REMARK    1  A    between atoms: N_1  and  C_2
REMARK    2  A    between atoms: C_4  and  C_5
REMARK                            x       y       z     vdW  Elec       q    Type
REMARK                         _______ _______ _______ _____ _____    ______ ____
ROOT
ATOM      1  C   UNL     1       3.381   5.332  19.051  0.00  0.00    +0.000 C 
ATOM      2  C   UNL     1       2.477   5.016  17.899  0.00  0.00    +0.000 C 
ATOM      3  C   UNL     1       3.657   5.934  17.687  0.00  0.00    +0.000 C 
ENDROOT
BRANCH   3   4
ATOM      4  C   UNL     1       4.864   5.480  16.904  0.00  0.00    +0.000 A 
ATOM      5  C   UNL     1       4.876   4.286  16.172  0.00  0.00    +0.000 A 
ATOM      6  C   UNL     1       5.997   3.919  15.428  0.00  0.00    +0.000 A 
ATOM      7  C   UNL     1       7.094   4.762  15.433  0.00  0.00    +0.000 A 
ATOM      8  N   UNL     1       7.137   5.923  16.117  0.00  0.00    +0.000 NA
ATOM      9  C   UNL     1       6.026   6.250  16.821  0.00  0.00    +0.000 A 
ENDBRANCH   3   4
BRANCH   1  10
ATOM     10  N   UNL     1       2.927   6.205  20.132  0.00  0.00    +0.000 NA
ATOM     11  H   UNL     1       3.711   6.707  20.547  0.00  0.00    +0.000 HD
ATOM     12  H   UNL     1       2.503   5.675  20.893  0.00  0.00    +0.000 HD
ENDBRANCH   1  10
TORSDOF 2
ENDMDL
MODEL 4
REMARK VINA RESULT:      -4.8      1.133      4.365
REMARK  Name = 
REMARK  2 active torsions:
REMARK  status: ('A' for Active; 'I' for Inactive)
REMARK    1  A    between atoms: N_1  and  C_2
REMARK    2  A    between atoms: C_4  and  C_5
REMARK                            x       y       z     vdW  Elec       q    Type
REMARK                         _______ _______ _______ _____ _____    ______ ____
ROOT
ATOM      1  C   UNL     1       2.330   2.590  17.811  0.00  0.00    +0.000 C 
ATOM      2  C   UNL     1       1.915   4.007  17.559  0.00  0.00    +0.000 C 
ATOM      3  C   UNL     1       3.139   3.731  18.398  0.00  0.00    +0.000 C 
ENDROOT
BRANCH   3   4
ATOM      4  C   UNL     1       4.523   4.010  17.869  0.00  0.00    +0.000 A 
ATOM      5  C   UNL     1       4.804   4.068  16.498  0.00  0.00    +0.000 A 
ATOM      6  C   UNL     1       6.090   4.368  16.047  0.00  0.00    +0.000 A 
ATOM      7  C   UNL     1       7.077   4.606  16.986  0.00  0.00    +0.000 A 
ATOM      8  N   UNL     1       6.863   4.567  18.317  0.00  0.00    +0.000 NA
ATOM      9  C   UNL     1       5.600   4.279  18.717  0.00  0.00    +0.000 A 
ENDBRANCH   3   4
BRANCH   1  10
ATOM     10  N   UNL     1       1.551   1.739  18.708  0.00  0.00    +0.000 NA
ATOM     11  H   UNL     1       1.906   1.796  19.662  0.00  0.00    +0.000 HD
ATOM     12  H   UNL     1       1.615   0.755  18.446  0.00  0.00    +0.000 HD
ENDBRANCH   1  10
TORSDOF 2
ENDMDL
MODEL 5
REMARK VINA RESULT:      -4.8      1.094      1.659
REMARK  Name = 
REMARK  2 active torsions:
REMARK  status: ('A' for Active; 'I' for Inactive)
REMARK    1  A    between atoms: N_1  and  C_2
REMARK    2  A    between atoms: C_4  and  C_5
REMARK                            x       y       z     vdW  Elec       q    Type
REMARK                         _______ _______ _______ _____ _____    ______ ____
ROOT
ATOM      1  C   UNL     1       5.797   4.593  17.931  0.00  0.00    +0.000 C 
ATOM      2  C   UNL     1       5.135   5.221  16.743  0.00  0.00    +0.000 C 
ATOM      3  C   UNL     1       4.865   3.770  17.062  0.00  0.00    +0.000 C 
ENDROOT
BRANCH   3   4
ATOM      4  C   UNL     1       3.531   3.330  17.611  0.00  0.00    +0.000 A 
ATOM      5  C   UNL     1       3.387   2.180  18.398  0.00  0.00    +0.000 A 
ATOM      6  C   UNL     1       2.143   1.827  18.920  0.00  0.00    +0.000 A 
ATOM      7  C   UNL     1       1.058   2.640  18.642  0.00  0.00    +0.000 A 
ATOM      8  N   UNL     1       1.140   3.758  17.893  0.00  0.00    +0.000 NA
ATOM      9  C   UNL     1       2.366   4.072  17.409  0.00  0.00    +0.000 A 
ENDBRANCH   3   4
BRANCH   1  10
ATOM     10  N   UNL     1       7.228   4.299  17.911  0.00  0.00    +0.000 NA
ATOM     11  H   UNL     1       7.392   3.293  17.930  0.00  0.00    +0.000 HD
ATOM     12  H   UNL     1       7.702   4.672  18.733  0.00  0.00    +0.000 HD
ENDBRANCH   1  10
TORSDOF 2
ENDMDL
MODEL 6
REMARK VINA RESULT:      -4.8      1.573      2.026
REMARK  Name = 
REMARK  2 active torsions:
REMARK  status: ('A' for Active; 'I' for Inactive)
REMARK    1  A    between atoms: N_1  and  C_2
REMARK    2  A    between atoms: C_4  and  C_5
REMARK                            x       y       z     vdW  Elec       q    Type
REMARK                         _______ _______ _______ _____ _____    ______ ____
ROOT
ATOM      1  C   UNL     1       6.984   4.891  17.875  0.00  0.00    +0.000 C 
ATOM      2  C   UNL     1       6.732   6.134  17.078  0.00  0.00    +0.000 C 
ATOM      3  C   UNL     1       5.928   4.890  16.787  0.00  0.00    +0.000 C 
ENDROOT
BRANCH   3   4
ATOM      4  C   UNL     1       4.471   4.800  17.165  0.00  0.00    +0.000 A 
ATOM      5  C   UNL     1       3.742   3.609  17.064  0.00  0.00    +0.000 A 
ATOM      6  C   UNL     1       2.406   3.555  17.461  0.00  0.00    +0.000 A 
ATOM      7  C   UNL     1       1.821   4.707  17.957  0.00  0.00    +0.000 A 
ATOM      8  N   UNL     1       2.475   5.880  18.078  0.00  0.00    +0.000 NA
ATOM      9  C   UNL     1       3.773   5.891  17.689  0.00  0.00    +0.000 A 
ENDBRANCH   3   4
BRANCH   1  10
ATOM     10  N   UNL     1       8.209   4.118  17.674  0.00  0.00    +0.000 NA
ATOM     11  H   UNL     1       8.741   4.481  16.883  0.00  0.00    +0.000 HD
ATOM     12  H   UNL     1       8.009   3.144  17.450  0.00  0.00    +0.000 HD
ENDBRANCH   1  10
TORSDOF 2
ENDMDL
MODEL 7
REMARK VINA RESULT:      -4.8      1.404      1.722
REMARK  Name = 
REMARK  2 active torsions:
REMARK  status: ('A' for Active; 'I' for Inactive)
REMARK    1  A    between atoms: N_1  and  C_2
REMARK    2  A    between atoms: C_4  and  C_5
REMARK                            x       y       z     vdW  Elec       q    Type
REMARK                         _______ _______ _______ _____ _____    ______ ____
ROOT
ATOM      1  C   UNL     1       6.993   4.512  16.400  0.00  0.00    +0.000 C 
ATOM      2  C   UNL     1       7.365   4.804  17.821  0.00  0.00    +0.000 C 
ATOM      3  C   UNL     1       5.946   5.040  17.361  0.00  0.00    +0.000 C 
ENDROOT
BRANCH   3   4
ATOM      4  C   UNL     1       4.825   4.135  17.807  0.00  0.00    +0.000 A 
ATOM      5  C   UNL     1       3.741   3.819  16.978  0.00  0.00    +0.000 A 
ATOM      6  C   UNL     1       2.742   2.948  17.413  0.00  0.00    +0.000 A 
ATOM      7  C   UNL     1       2.850   2.405  18.680  0.00  0.00    +0.000 A 
ATOM      8  N   UNL     1       3.872   2.671  19.519  0.00  0.00    +0.000 NA
ATOM      9  C   UNL     1       4.826   3.517  19.059  0.00  0.00    +0.000 A 
ENDBRANCH   3   4
BRANCH   1  10
ATOM     10  N   UNL     1       7.463   5.378  15.319  0.00  0.00    +0.000 NA
ATOM     11  H   UNL     1       7.534   4.859  14.444  0.00  0.00    +0.000 HD
ATOM     12  H   UNL     1       8.397   5.741  15.504  0.00  0.00    +0.000 HD
ENDBRANCH   1  10
TORSDOF 2
ENDMDL
MODEL 8
REMARK VINA RESULT:      -4.8      1.503      1.556
REMARK  Name = 
REMARK  2 active torsions:
REMARK  status: ('A' for Active; 'I' for Inactive)
REMARK    1  A    between atoms: N_1  and  C_2
REMARK    2  A    between atoms: C_4  and  C_5
REMARK                            x       y       z     vdW  Elec       q    Type
REMARK                         _______ _______ _______ _____ _____    ______ ____
ROOT
ATOM      1  C   UNL     1       5.750   5.390  19.194  0.00  0.00    +0.000 C 
ATOM      2  C   UNL     1       5.626   5.580  17.713  0.00  0.00    +0.000 C 
ATOM      3  C   UNL     1       5.294   4.238  18.320  0.00  0.00    +0.000 C 
ENDROOT
BRANCH   3   4
ATOM      4  C   UNL     1       3.867   3.758  18.408  0.00  0.00    +0.000 A 
ATOM      5  C   UNL     1       2.800   4.469  17.845  0.00  0.00    +0.000 A 
ATOM      6  C   UNL     1       1.498   3.973  17.913  0.00  0.00    +0.000 A 
ATOM      7  C   UNL     1       1.289   2.762  18.549  0.00  0.00    +0.000 A 
ATOM      8  N   UNL     1       2.278   2.034  19.106  0.00  0.00    +0.000 NA
ATOM      9  C   UNL     1       3.530   2.545  19.013  0.00  0.00    +0.000 A 
ENDBRANCH   3   4
BRANCH   1  10
ATOM     10  N   UNL     1       7.067   5.323  19.824  0.00  0.00    +0.000 NA
ATOM     11  H   UNL     1       7.633   4.587  19.404  0.00  0.00    +0.000 HD
ATOM     12  H   UNL     1       7.000   5.092  20.815  0.00  0.00    +0.000 HD
ENDBRANCH   1  10
TORSDOF 2
ENDMDL
MODEL 9
REMARK VINA RESULT:      -4.8      2.074      2.640
REMARK  Name = 
REMARK  2 active torsions:
REMARK  status: ('A' for Active; 'I' for Inactive)
REMARK    1  A    between atoms: N_1  and  C_2
REMARK    2  A    between atoms: C_4  and  C_5
REMARK                            x       y       z     vdW  Elec       q    Type
REMARK                         _______ _______ _______ _____ _____    ______ ____
ROOT
ATOM      1  C   UNL     1       6.347   3.752  14.592  0.00  0.00    +0.000 C 
ATOM      2  C   UNL     1       6.885   5.063  15.078  0.00  0.00    +0.000 C 
ATOM      3  C   UNL     1       5.454   4.689  15.383  0.00  0.00    +0.000 C 
ENDROOT
BRANCH   3   4
ATOM      4  C   UNL     1       5.031   4.310  16.780  0.00  0.00    +0.000 A 
ATOM      5  C   UNL     1       3.788   3.724  17.054  0.00  0.00    +0.000 A 
ATOM      6  C   UNL     1       3.449   3.352  18.355  0.00  0.00    +0.000 A 
ATOM      7  C   UNL     1       4.369   3.574  19.363  0.00  0.00    +0.000 A 
ATOM      8  N   UNL     1       5.579   4.131  19.157  0.00  0.00    +0.000 NA
ATOM      9  C   UNL     1       5.876   4.473  17.879  0.00  0.00    +0.000 A 
ENDBRANCH   3   4
BRANCH   1  10
ATOM     10  N   UNL     1       6.074   3.544  13.171  0.00  0.00    +0.000 NA
ATOM     11  H   UNL     1       5.369   4.201  12.838  0.00  0.00    +0.000 HD
ATOM     12  H   UNL     1       5.696   2.615  12.991  0.00  0.00    +0.000 HD
ENDBRANCH   1  10
TORSDOF 2
ENDMDL
