MODEL 1
REMARK VINA RESULT:      -8.7      0.000      0.000
REMARK  Name = 
REMARK  5 active torsions:
REMARK  status: ('A' for Active; 'I' for Inactive)
REMARK    1  A    between atoms: C_1  and  O_2
REMARK    2  A    between atoms: O_2  and  C_3
REMARK    3  A    between atoms: C_6  and  C_7
REMARK    4  A    between atoms: N_8  and  N_9
REMARK    5  A    between atoms: C_12  and  C_13
REMARK                            x       y       z     vdW  Elec       q    Type
REMARK                         _______ _______ _______ _____ _____    ______ ____
ROOT
ATOM      1  C   UNL     1       2.998   8.095  17.838  0.00  0.00    +0.000 C 
ATOM      2  N   UNL     1       1.853   8.631  18.089  0.00  0.00    +0.000 NA
ENDROOT
BRANCH   2   3
ATOM      3  N   UNL     1       1.773   9.985  17.889  0.00  0.00    +0.000 NA
ATOM      4  C   UNL     1       1.343  10.684  18.914  0.00  0.00    +0.000 A 
ATOM      5  C   UNL     1       1.329  12.168  18.705  0.00  0.00    +0.000 A 
ATOM      6  C   UNL     1       0.803  12.988  19.626  0.00  0.00    +0.000 A 
ATOM      7  C   UNL     1       0.745  14.476  19.406  0.00  0.00    +0.000 C 
ATOM      8  N   UNL     1       0.263  12.519  20.797  0.00  0.00    +0.000 N 
ATOM      9  C   UNL     1       0.247  11.156  21.119  0.00  0.00    +0.000 A 
ATOM     10  C   UNL     1      -0.387  10.739  22.301  0.00  0.00    +0.000 A 
ATOM     11  C   UNL     1      -0.449   9.390  22.646  0.00  0.00    +0.000 A 
ATOM     12  C   UNL     1       0.166   8.451  21.832  0.00  0.00    +0.000 A 
ATOM     13  C   UNL     1       0.803   8.860  20.658  0.00  0.00    +0.000 A 
ATOM     14  C   UNL     1       0.818  10.200  20.254  0.00  0.00    +0.000 A 
ATOM     15  H   UNL     1      -0.117  13.183  21.460  0.00  0.00    +0.000 HD
ENDBRANCH   2   3
BRANCH   1  19
ATOM     16  C   UNL     1       3.490   3.889  18.524  0.00  0.00    +0.000 A 
ATOM     17  C   UNL     1       2.618   4.668  19.287  0.00  0.00    +0.000 A 
ATOM     18  C   UNL     1       2.469   6.025  19.020  0.00  0.00    +0.000 A 
ATOM     19  C   UNL     1       3.200   6.627  17.989  0.00  0.00    +0.000 A 
ATOM     20  C   UNL     1       4.106   5.862  17.194  0.00  0.00    +0.000 A 
ATOM     21  C   UNL     1       4.876   6.387  16.118  0.00  0.00    +0.000 A 
ATOM     22  C   UNL     1       5.778   5.615  15.391  0.00  0.00    +0.000 A 
ATOM     23  C   UNL     1       5.918   4.273  15.680  0.00  0.00    +0.000 A 
ATOM     24  C   UNL     1       5.157   3.708  16.706  0.00  0.00    +0.000 A 
ATOM     25  C   UNL     1       4.251   4.478  17.480  0.00  0.00    +0.000 A 
BRANCH  16  27
ATOM     26  C   UNL     1       4.325   2.224  20.009  0.00  0.00    +0.000 C 
ATOM     27  O   UNL     1       3.705   2.551  18.770  0.00  0.00    +0.000 OA
ENDBRANCH  16  27
ENDBRANCH   1  19
TORSDOF 3
ENDMDL
MODEL 2
REMARK VINA RESULT:      -8.5      1.092      1.337
REMARK  Name = 
REMARK  5 active torsions:
REMARK  status: ('A' for Active; 'I' for Inactive)
REMARK    1  A    between atoms: C_1  and  O_2
REMARK    2  A    between atoms: O_2  and  C_3
REMARK    3  A    between atoms: C_6  and  C_7
REMARK    4  A    between atoms: N_8  and  N_9
REMARK    5  A    between atoms: C_12  and  C_13
REMARK                            x       y       z     vdW  Elec       q    Type
REMARK                         _______ _______ _______ _____ _____    ______ ____
ROOT
ATOM      1  C   UNL     1       2.428   8.324  18.625  0.00  0.00    +0.000 C 
ATOM      2  N   UNL     1       1.305   8.935  18.783  0.00  0.00    +0.000 NA
ENDROOT
BRANCH   2   3
ATOM      3  N   UNL     1       1.269  10.237  18.355  0.00  0.00    +0.000 NA
ATOM      4  C   UNL     1       0.864  11.114  19.244  0.00  0.00    +0.000 A 
ATOM      5  C   UNL     1       0.899  12.541  18.785  0.00  0.00    +0.000 A 
ATOM      6  C   UNL     1       0.402  13.523  19.551  0.00  0.00    +0.000 A 
ATOM      7  C   UNL     1       0.394  14.953  19.081  0.00  0.00    +0.000 C 
ATOM      8  N   UNL     1      -0.152  13.278  20.782  0.00  0.00    +0.000 N 
ATOM      9  C   UNL     1      -0.214  11.990  21.332  0.00  0.00    +0.000 A 
ATOM     10  C   UNL     1      -0.860  11.802  22.564  0.00  0.00    +0.000 A 
ATOM     11  C   UNL     1      -0.967  10.534  23.133  0.00  0.00    +0.000 A 
ATOM     12  C   UNL     1      -0.385   9.450  22.494  0.00  0.00    +0.000 A 
ATOM     13  C   UNL     1       0.265   9.632  21.271  0.00  0.00    +0.000 A 
ATOM     14  C   UNL     1       0.324  10.883  20.644  0.00  0.00    +0.000 A 
ATOM     15  H   UNL     1      -0.510  14.057  21.321  0.00  0.00    +0.000 HD
ENDBRANCH   2   3
BRANCH   1  19
ATOM     16  C   UNL     1       2.796   4.285  20.022  0.00  0.00    +0.000 A 
ATOM     17  C   UNL     1       2.006   5.229  20.682  0.00  0.00    +0.000 A 
ATOM     18  C   UNL     1       1.894   6.524  20.185  0.00  0.00    +0.000 A 
ATOM     19  C   UNL     1       2.581   6.897  19.024  0.00  0.00    +0.000 A 
ATOM     20  C   UNL     1       3.403   5.960  18.330  0.00  0.00    +0.000 A 
ATOM     21  C   UNL     1       4.123   6.248  17.136  0.00  0.00    +0.000 A 
ATOM     22  C   UNL     1       4.946   5.316  16.509  0.00  0.00    +0.000 A 
ATOM     23  C   UNL     1       5.050   4.040  17.024  0.00  0.00    +0.000 A 
ATOM     24  C   UNL     1       4.334   3.704  18.175  0.00  0.00    +0.000 A 
ATOM     25  C   UNL     1       3.511   4.642  18.849  0.00  0.00    +0.000 A 
BRANCH  16  27
ATOM     26  C   UNL     1       1.963   2.497  21.358  0.00  0.00    +0.000 C 
ATOM     27  O   UNL     1       2.972   3.002  20.490  0.00  0.00    +0.000 OA
ENDBRANCH  16  27
ENDBRANCH   1  19
TORSDOF 3
ENDMDL
MODEL 3
REMARK VINA RESULT:      -8.4      2.120      3.883
REMARK  Name = 
REMARK  5 active torsions:
REMARK  status: ('A' for Active; 'I' for Inactive)
REMARK    1  A    between atoms: C_1  and  O_2
REMARK    2  A    between atoms: O_2  and  C_3
REMARK    3  A    between atoms: C_6  and  C_7
REMARK    4  A    between atoms: N_8  and  N_9
REMARK    5  A    between atoms: C_12  and  C_13
REMARK                            x       y       z     vdW  Elec       q    Type
REMARK                         _______ _______ _______ _____ _____    ______ ____
ROOT
ATOM      1  C   UNL     1       1.779   7.587  20.710  0.00  0.00    +0.000 C 
ATOM      2  N   UNL     1       1.407   8.771  20.364  0.00  0.00    +0.000 NA
ENDROOT
BRANCH   2   3
ATOM      3  N   UNL     1       0.967   9.579  21.382  0.00  0.00    +0.000 NA
ATOM      4  C   UNL     1      -0.079  10.322  21.102  0.00  0.00    +0.000 A 
ATOM      5  C   UNL     1      -0.592  11.144  22.246  0.00  0.00    +0.000 A 
ATOM      6  C   UNL     1      -1.579  12.034  22.065  0.00  0.00    +0.000 A 
ATOM      7  C   UNL     1      -2.072  12.895  23.197  0.00  0.00    +0.000 C 
ATOM      8  N   UNL     1      -2.168  12.231  20.841  0.00  0.00    +0.000 N 
ATOM      9  C   UNL     1      -1.796  11.499  19.706  0.00  0.00    +0.000 A 
ATOM     10  C   UNL     1      -2.391  11.804  18.470  0.00  0.00    +0.000 A 
ATOM     11  C   UNL     1      -2.030  11.118  17.311  0.00  0.00    +0.000 A 
ATOM     12  C   UNL     1      -1.104  10.090  17.390  0.00  0.00    +0.000 A 
ATOM     13  C   UNL     1      -0.513   9.778  18.617  0.00  0.00    +0.000 A 
ATOM     14  C   UNL     1      -0.806  10.498  19.781  0.00  0.00    +0.000 A 
ATOM     15  H   UNL     1      -2.912  12.913  20.762  0.00  0.00    +0.000 HD
ENDBRANCH   2   3
BRANCH   1  19
ATOM     16  C   UNL     1       3.313   5.032  17.625  0.00  0.00    +0.000 A 
ATOM     17  C   UNL     1       3.541   6.409  17.628  0.00  0.00    +0.000 A 
ATOM     18  C   UNL     1       3.046   7.202  18.659  0.00  0.00    +0.000 A 
ATOM     19  C   UNL     1       2.304   6.629  19.698  0.00  0.00    +0.000 A 
ATOM     20  C   UNL     1       2.046   5.225  19.721  0.00  0.00    +0.000 A 
ATOM     21  C   UNL     1       1.316   4.557  20.745  0.00  0.00    +0.000 A 
ATOM     22  C   UNL     1       1.052   3.190  20.711  0.00  0.00    +0.000 A 
ATOM     23  C   UNL     1       1.545   2.424  19.675  0.00  0.00    +0.000 A 
ATOM     24  C   UNL     1       2.295   3.033  18.666  0.00  0.00    +0.000 A 
ATOM     25  C   UNL     1       2.554   4.428  18.662  0.00  0.00    +0.000 A 
BRANCH  16  27
ATOM     26  C   UNL     1       5.080   4.407  16.154  0.00  0.00    +0.000 C 
ATOM     27  O   UNL     1       3.747   4.206  16.612  0.00  0.00    +0.000 OA
ENDBRANCH  16  27
ENDBRANCH   1  19
TORSDOF 3
ENDMDL
MODEL 4
REMARK VINA RESULT:      -8.3      3.194      7.861
REMARK  Name = 
REMARK  5 active torsions:
REMARK  status: ('A' for Active; 'I' for Inactive)
REMARK    1  A    between atoms: C_1  and  O_2
REMARK    2  A    between atoms: O_2  and  C_3
REMARK    3  A    between atoms: C_6  and  C_7
REMARK    4  A    between atoms: N_8  and  N_9
REMARK    5  A    between atoms: C_12  and  C_13
REMARK                            x       y       z     vdW  Elec       q    Type
REMARK                         _______ _______ _______ _____ _____    ______ ____
ROOT
ATOM      1  C   UNL     1       1.678   9.238  17.876  0.00  0.00    +0.000 C 
ATOM      2  N   UNL     1       2.448   8.360  18.420  0.00  0.00    +0.000 NA
ENDROOT
BRANCH   2   3
ATOM      3  N   UNL     1       3.338   7.744  17.578  0.00  0.00    +0.000 NA
ATOM      4  C   UNL     1       3.518   6.460  17.788  0.00  0.00    +0.000 A 
ATOM      5  C   UNL     1       4.437   5.785  16.815  0.00  0.00    +0.000 A 
ATOM      6  C   UNL     1       4.798   4.505  16.984  0.00  0.00    +0.000 A 
ATOM      7  C   UNL     1       5.755   3.831  16.037  0.00  0.00    +0.000 C 
ATOM      8  N   UNL     1       4.346   3.753  18.039  0.00  0.00    +0.000 N 
ATOM      9  C   UNL     1       3.459   4.264  18.996  0.00  0.00    +0.000 A 
ATOM     10  C   UNL     1       3.095   3.461  20.090  0.00  0.00    +0.000 A 
ATOM     11  C   UNL     1       2.236   3.941  21.077  0.00  0.00    +0.000 A 
ATOM     12  C   UNL     1       1.697   5.212  20.952  0.00  0.00    +0.000 A 
ATOM     13  C   UNL     1       2.050   6.012  19.863  0.00  0.00    +0.000 A 
ATOM     14  C   UNL     1       2.966   5.581  18.896  0.00  0.00    +0.000 A 
ATOM     15  H   UNL     1       4.648   2.790  18.118  0.00  0.00    +0.000 HD
ENDBRANCH   2   3
BRANCH   1  19
ATOM     16  C   UNL     1      -1.017  11.365  20.446  0.00  0.00    +0.000 A 
ATOM     17  C   UNL     1       0.311  11.123  20.803  0.00  0.00    +0.000 A 
ATOM     18  C   UNL     1       1.161  10.448  19.932  0.00  0.00    +0.000 A 
ATOM     19  C   UNL     1       0.691   9.996  18.694  0.00  0.00    +0.000 A 
ATOM     20  C   UNL     1      -0.663  10.221  18.301  0.00  0.00    +0.000 A 
ATOM     21  C   UNL     1      -1.220   9.811  17.057  0.00  0.00    +0.000 A 
ATOM     22  C   UNL     1      -2.558  10.015  16.727  0.00  0.00    +0.000 A 
ATOM     23  C   UNL     1      -3.386  10.677  17.610  0.00  0.00    +0.000 A 
ATOM     24  C   UNL     1      -2.872  11.127  18.828  0.00  0.00    +0.000 A 
ATOM     25  C   UNL     1      -1.521  10.907  19.201  0.00  0.00    +0.000 A 
BRANCH  16  27
ATOM     26  C   UNL     1      -1.703  11.821  22.682  0.00  0.00    +0.000 C 
ATOM     27  O   UNL     1      -1.912  11.993  21.285  0.00  0.00    +0.000 OA
ENDBRANCH  16  27
ENDBRANCH   1  19
TORSDOF 3
ENDMDL
MODEL 5
REMARK VINA RESULT:      -8.2      2.873      7.907
REMARK  Name = 
REMARK  5 active torsions:
REMARK  status: ('A' for Active; 'I' for Inactive)
REMARK    1  A    between atoms: C_1  and  O_2
REMARK    2  A    between atoms: O_2  and  C_3
REMARK    3  A    between atoms: C_6  and  C_7
REMARK    4  A    between atoms: N_8  and  N_9
REMARK    5  A    between atoms: C_12  and  C_13
REMARK                            x       y       z     vdW  Elec       q    Type
REMARK                         _______ _______ _______ _____ _____    ______ ____
ROOT
ATOM      1  C   UNL     1       1.855   9.315  18.104  0.00  0.00    +0.000 C 
ATOM      2  N   UNL     1       2.217   8.102  18.343  0.00  0.00    +0.000 NA
ENDROOT
BRANCH   2   3
ATOM      3  N   UNL     1       3.250   7.626  17.576  0.00  0.00    +0.000 NA
ATOM      4  C   UNL     1       3.578   6.372  17.786  0.00  0.00    +0.000 A 
ATOM      5  C   UNL     1       4.659   5.845  16.890  0.00  0.00    +0.000 A 
ATOM      6  C   UNL     1       5.170   4.620  17.076  0.00  0.00    +0.000 A 
ATOM      7  C   UNL     1       6.285   4.098  16.210  0.00  0.00    +0.000 C 
ATOM      8  N   UNL     1       4.732   3.791  18.079  0.00  0.00    +0.000 N 
ATOM      9  C   UNL     1       3.706   4.160  18.959  0.00  0.00    +0.000 A 
ATOM     10  C   UNL     1       3.358   3.292  20.007  0.00  0.00    +0.000 A 
ATOM     11  C   UNL     1       2.362   3.632  20.920  0.00  0.00    +0.000 A 
ATOM     12  C   UNL     1       1.672   4.825  20.762  0.00  0.00    +0.000 A 
ATOM     13  C   UNL     1       2.010   5.690  19.718  0.00  0.00    +0.000 A 
ATOM     14  C   UNL     1       3.054   5.404  18.831  0.00  0.00    +0.000 A 
ATOM     15  H   UNL     1       5.150   2.874  18.172  0.00  0.00    +0.000 HD
ENDBRANCH   2   3
BRANCH   1  19
ATOM     16  C   UNL     1      -1.306  11.337  20.183  0.00  0.00    +0.000 A 
ATOM     17  C   UNL     1      -1.117  11.475  18.806  0.00  0.00    +0.000 A 
ATOM     18  C   UNL     1      -0.093  10.785  18.164  0.00  0.00    +0.000 A 
ATOM     19  C   UNL     1       0.764   9.953  18.892  0.00  0.00    +0.000 A 
ATOM     20  C   UNL     1       0.604   9.795  20.302  0.00  0.00    +0.000 A 
ATOM     21  C   UNL     1       1.418   8.959  21.117  0.00  0.00    +0.000 A 
ATOM     22  C   UNL     1       1.253   8.862  22.497  0.00  0.00    +0.000 A 
ATOM     23  C   UNL     1       0.238   9.563  23.115  0.00  0.00    +0.000 A 
ATOM     24  C   UNL     1      -0.606  10.369  22.348  0.00  0.00    +0.000 A 
ATOM     25  C   UNL     1      -0.443  10.508  20.946  0.00  0.00    +0.000 A 
BRANCH  16  27
ATOM     26  C   UNL     1      -3.293  12.648  20.096  0.00  0.00    +0.000 C 
ATOM     27  O   UNL     1      -2.278  12.025  20.875  0.00  0.00    +0.000 OA
ENDBRANCH  16  27
ENDBRANCH   1  19
TORSDOF 3
ENDMDL
MODEL 6
REMARK VINA RESULT:      -8.2      2.807      8.678
REMARK  Name = 
REMARK  5 active torsions:
REMARK  status: ('A' for Active; 'I' for Inactive)
REMARK    1  A    between atoms: C_1  and  O_2
REMARK    2  A    between atoms: O_2  and  C_3
REMARK    3  A    between atoms: C_6  and  C_7
REMARK    4  A    between atoms: N_8  and  N_9
REMARK    5  A    between atoms: C_12  and  C_13
REMARK                            x       y       z     vdW  Elec       q    Type
REMARK                         _______ _______ _______ _____ _____    ______ ____
ROOT
ATOM      1  C   UNL     1       1.421   7.547  20.756  0.00  0.00    +0.000 C 
ATOM      2  N   UNL     1       1.856   6.695  19.893  0.00  0.00    +0.000 NA
ENDROOT
BRANCH   2   3
ATOM      3  N   UNL     1       2.160   5.451  20.384  0.00  0.00    +0.000 NA
ATOM      4  C   UNL     1       3.176   4.849  19.809  0.00  0.00    +0.000 A 
ATOM      5  C   UNL     1       3.542   3.523  20.404  0.00  0.00    +0.000 A 
ATOM      6  C   UNL     1       4.482   2.751  19.838  0.00  0.00    +0.000 A 
ATOM      7  C   UNL     1       4.826   1.399  20.402  0.00  0.00    +0.000 C 
ATOM      8  N   UNL     1       5.154   3.133  18.704  0.00  0.00    +0.000 N 
ATOM      9  C   UNL     1       4.921   4.363  18.075  0.00  0.00    +0.000 A 
ATOM     10  C   UNL     1       5.592   4.658  16.877  0.00  0.00    +0.000 A 
ATOM     11  C   UNL     1       5.369   5.859  16.206  0.00  0.00    +0.000 A 
ATOM     12  C   UNL     1       4.507   6.796  16.755  0.00  0.00    +0.000 A 
ATOM     13  C   UNL     1       3.842   6.511  17.950  0.00  0.00    +0.000 A 
ATOM     14  C   UNL     1       3.994   5.284  18.606  0.00  0.00    +0.000 A 
ATOM     15  H   UNL     1       5.856   2.513  18.321  0.00  0.00    +0.000 HD
ENDBRANCH   2   3
BRANCH   1  19
ATOM     16  C   UNL     1       0.496  11.503  19.380  0.00  0.00    +0.000 A 
ATOM     17  C   UNL     1       1.234  10.603  18.608  0.00  0.00    +0.000 A 
ATOM     18  C   UNL     1       1.495   9.320  19.080  0.00  0.00    +0.000 A 
ATOM     19  C   UNL     1       1.029   8.922  20.338  0.00  0.00    +0.000 A 
ATOM     20  C   UNL     1       0.279   9.819  21.156  0.00  0.00    +0.000 A 
ATOM     21  C   UNL     1      -0.245   9.494  22.439  0.00  0.00    +0.000 A 
ATOM     22  C   UNL     1      -0.940  10.411  23.224  0.00  0.00    +0.000 A 
ATOM     23  C   UNL     1      -1.179  11.681  22.740  0.00  0.00    +0.000 A 
ATOM     24  C   UNL     1      -0.712  12.033  21.472  0.00  0.00    +0.000 A 
ATOM     25  C   UNL     1       0.023  11.126  20.664  0.00  0.00    +0.000 A 
BRANCH  16  27
ATOM     26  C   UNL     1       1.376  13.615  18.719  0.00  0.00    +0.000 C 
ATOM     27  O   UNL     1       0.242  12.796  18.979  0.00  0.00    +0.000 OA
ENDBRANCH  16  27
ENDBRANCH   1  19
TORSDOF 3
ENDMDL
MODEL 7
REMARK VINA RESULT:      -8.2      2.595      4.063
REMARK  Name = 
REMARK  5 active torsions:
REMARK  status: ('A' for Active; 'I' for Inactive)
REMARK    1  A    between atoms: C_1  and  O_2
REMARK    2  A    between atoms: O_2  and  C_3
REMARK    3  A    between atoms: C_6  and  C_7
REMARK    4  A    between atoms: N_8  and  N_9
REMARK    5  A    between atoms: C_12  and  C_13
REMARK                            x       y       z     vdW  Elec       q    Type
REMARK                         _______ _______ _______ _____ _____    ______ ____
ROOT
ATOM      1  C   UNL     1       1.726   8.457  20.056  0.00  0.00    +0.000 C 
ATOM      2  N   UNL     1       0.935   9.317  19.514  0.00  0.00    +0.000 NA
ENDROOT
BRANCH   2   3
ATOM      3  N   UNL     1       0.434  10.278  20.354  0.00  0.00    +0.000 NA
ATOM      4  C   UNL     1      -0.703  10.820  19.979  0.00  0.00    +0.000 A 
ATOM      5  C   UNL     1      -1.275  11.816  20.942  0.00  0.00    +0.000 A 
ATOM      6  C   UNL     1      -2.366  12.528  20.629  0.00  0.00    +0.000 A 
ATOM      7  C   UNL     1      -2.924  13.561  21.571  0.00  0.00    +0.000 C 
ATOM      8  N   UNL     1      -3.013  12.380  19.427  0.00  0.00    +0.000 N 
ATOM      9  C   UNL     1      -2.592  11.459  18.459  0.00  0.00    +0.000 A 
ATOM     10  C   UNL     1      -3.257  11.412  17.223  0.00  0.00    +0.000 A 
ATOM     11  C   UNL     1      -2.852  10.529  16.223  0.00  0.00    +0.000 A 
ATOM     12  C   UNL     1      -1.807   9.652  16.471  0.00  0.00    +0.000 A 
ATOM     13  C   UNL     1      -1.146   9.690  17.701  0.00  0.00    +0.000 A 
ATOM     14  C   UNL     1      -1.487  10.615  18.695  0.00  0.00    +0.000 A 
ATOM     15  H   UNL     1      -3.836  12.940  19.243  0.00  0.00    +0.000 HD
ENDBRANCH   2   3
BRANCH   1  19
ATOM     16  C   UNL     1       3.561   5.539  17.502  0.00  0.00    +0.000 A 
ATOM     17  C   UNL     1       3.699   6.910  17.280  0.00  0.00    +0.000 A 
ATOM     18  C   UNL     1       3.107   7.827  18.144  0.00  0.00    +0.000 A 
ATOM     19  C   UNL     1       2.357   7.383  19.239  0.00  0.00    +0.000 A 
ATOM     20  C   UNL     1       2.189   5.988  19.491  0.00  0.00    +0.000 A 
ATOM     21  C   UNL     1       1.458   5.449  20.588  0.00  0.00    +0.000 A 
ATOM     22  C   UNL     1       1.285   4.080  20.777  0.00  0.00    +0.000 A 
ATOM     23  C   UNL     1       1.873   3.190  19.902  0.00  0.00    +0.000 A 
ATOM     24  C   UNL     1       2.627   3.674  18.832  0.00  0.00    +0.000 A 
ATOM     25  C   UNL     1       2.796   5.063  18.600  0.00  0.00    +0.000 A 
BRANCH  16  27
ATOM     26  C   UNL     1       5.272   4.955  15.952  0.00  0.00    +0.000 C 
ATOM     27  O   UNL     1       4.092   4.589  16.658  0.00  0.00    +0.000 OA
ENDBRANCH  16  27
ENDBRANCH   1  19
TORSDOF 3
ENDMDL
MODEL 8
REMARK VINA RESULT:      -8.1      1.654      3.832
REMARK  Name = 
REMARK  5 active torsions:
REMARK  status: ('A' for Active; 'I' for Inactive)
REMARK    1  A    between atoms: C_1  and  O_2
REMARK    2  A    between atoms: O_2  and  C_3
REMARK    3  A    between atoms: C_6  and  C_7
REMARK    4  A    between atoms: N_8  and  N_9
REMARK    5  A    between atoms: C_12  and  C_13
REMARK                            x       y       z     vdW  Elec       q    Type
REMARK                         _______ _______ _______ _____ _____    ______ ____
ROOT
ATOM      1  C   UNL     1       1.387   7.385  20.717  0.00  0.00    +0.000 C 
ATOM      2  N   UNL     1       1.120   8.614  20.438  0.00  0.00    +0.000 NA
ENDROOT
BRANCH   2   3
ATOM      3  N   UNL     1       0.464   9.318  21.416  0.00  0.00    +0.000 NA
ATOM      4  C   UNL     1       0.334  10.606  21.194  0.00  0.00    +0.000 A 
ATOM      5  C   UNL     1      -0.447  11.349  22.236  0.00  0.00    +0.000 A 
ATOM      6  C   UNL     1      -0.554  12.685  22.192  0.00  0.00    +0.000 A 
ATOM      7  C   UNL     1      -1.300  13.444  23.257  0.00  0.00    +0.000 C 
ATOM      8  N   UNL     1       0.032  13.432  21.202  0.00  0.00    +0.000 N 
ATOM      9  C   UNL     1       0.761  12.848  20.157  0.00  0.00    +0.000 A 
ATOM     10  C   UNL     1       1.395  13.678  19.218  0.00  0.00    +0.000 A 
ATOM     11  C   UNL     1       2.152  13.138  18.179  0.00  0.00    +0.000 A 
ATOM     12  C   UNL     1       2.239  11.761  18.044  0.00  0.00    +0.000 A 
ATOM     13  C   UNL     1       1.605  10.931  18.972  0.00  0.00    +0.000 A 
ATOM     14  C   UNL     1       0.899  11.448  20.064  0.00  0.00    +0.000 A 
ATOM     15  H   UNL     1      -0.083  14.437  21.215  0.00  0.00    +0.000 HD
ENDBRANCH   2   3
BRANCH   1  19
ATOM     16  C   UNL     1       3.522   5.126  17.760  0.00  0.00    +0.000 A 
ATOM     17  C   UNL     1       3.589   6.520  17.820  0.00  0.00    +0.000 A 
ATOM     18  C   UNL     1       2.899   7.216  18.808  0.00  0.00    +0.000 A 
ATOM     19  C   UNL     1       2.123   6.527  19.746  0.00  0.00    +0.000 A 
ATOM     20  C   UNL     1       2.026   5.103  19.710  0.00  0.00    +0.000 A 
ATOM     21  C   UNL     1       1.274   4.322  20.632  0.00  0.00    +0.000 A 
ATOM     22  C   UNL     1       1.173   2.936  20.539  0.00  0.00    +0.000 A 
ATOM     23  C   UNL     1       1.858   2.267  19.544  0.00  0.00    +0.000 A 
ATOM     24  C   UNL     1       2.635   2.991  18.638  0.00  0.00    +0.000 A 
ATOM     25  C   UNL     1       2.732   4.405  18.694  0.00  0.00    +0.000 A 
BRANCH  16  27
ATOM     26  C   UNL     1       5.575   4.427  16.775  0.00  0.00    +0.000 C 
ATOM     27  O   UNL     1       4.152   4.390  16.781  0.00  0.00    +0.000 OA
ENDBRANCH  16  27
ENDBRANCH   1  19
TORSDOF 3
ENDMDL
MODEL 9
REMARK VINA RESULT:      -8.1      1.739      2.968
REMARK  Name = 
REMARK  5 active torsions:
REMARK  status: ('A' for Active; 'I' for Inactive)
REMARK    1  A    between atoms: C_1  and  O_2
REMARK    2  A    between atoms: O_2  and  C_3
REMARK    3  A    between atoms: C_6  and  C_7
REMARK    4  A    between atoms: N_8  and  N_9
REMARK    5  A    between atoms: C_12  and  C_13
REMARK                            x       y       z     vdW  Elec       q    Type
REMARK                         _______ _______ _______ _____ _____    ______ ____
ROOT
ATOM      1  C   UNL     1       1.863   8.084  17.835  0.00  0.00    +0.000 C 
ATOM      2  N   UNL     1       1.816   9.199  18.478  0.00  0.00    +0.000 NA
ENDROOT
BRANCH   2   3
ATOM      3  N   UNL     1       0.763  10.021  18.169  0.00  0.00    +0.000 NA
ATOM      4  C   UNL     1       0.095  10.495  19.197  0.00  0.00    +0.000 A 
ATOM      5  C   UNL     1      -1.007  11.448  18.846  0.00  0.00    +0.000 A 
ATOM      6  C   UNL     1      -1.840  11.913  19.789  0.00  0.00    +0.000 A 
ATOM      7  C   UNL     1      -2.977  12.836  19.442  0.00  0.00    +0.000 C 
ATOM      8  N   UNL     1      -1.724  11.550  21.108  0.00  0.00    +0.000 N 
ATOM      9  C   UNL     1      -0.715  10.691  21.561  0.00  0.00    +0.000 A 
ATOM     10  C   UNL     1      -0.700  10.304  22.911  0.00  0.00    +0.000 A 
ATOM     11  C   UNL     1       0.271   9.430  23.397  0.00  0.00    +0.000 A 
ATOM     12  C   UNL     1       1.264   8.973  22.544  0.00  0.00    +0.000 A 
ATOM     13  C   UNL     1       1.258   9.359  21.201  0.00  0.00    +0.000 A 
ATOM     14  C   UNL     1       0.253  10.179  20.673  0.00  0.00    +0.000 A 
ATOM     15  H   UNL     1      -2.378  11.934  21.779  0.00  0.00    +0.000 HD
ENDBRANCH   2   3
BRANCH   1  19
ATOM     16  C   UNL     1       5.079   5.296  18.374  0.00  0.00    +0.000 A 
ATOM     17  C   UNL     1       5.168   6.368  17.484  0.00  0.00    +0.000 A 
ATOM     18  C   UNL     1       4.112   7.265  17.353  0.00  0.00    +0.000 A 
ATOM     19  C   UNL     1       2.944   7.095  18.105  0.00  0.00    +0.000 A 
ATOM     20  C   UNL     1       2.817   6.005  19.019  0.00  0.00    +0.000 A 
ATOM     21  C   UNL     1       1.674   5.766  19.834  0.00  0.00    +0.000 A 
ATOM     22  C   UNL     1       1.573   4.669  20.685  0.00  0.00    +0.000 A 
ATOM     23  C   UNL     1       2.629   3.787  20.792  0.00  0.00    +0.000 A 
ATOM     24  C   UNL     1       3.783   4.002  20.036  0.00  0.00    +0.000 A 
ATOM     25  C   UNL     1       3.901   5.096  19.140  0.00  0.00    +0.000 A 
BRANCH  16  27
ATOM     26  C   UNL     1       7.333   4.673  17.923  0.00  0.00    +0.000 C 
ATOM     27  O   UNL     1       6.078   4.358  18.515  0.00  0.00    +0.000 OA
ENDBRANCH  16  27
ENDBRANCH   1  19
TORSDOF 3
ENDMDL
