MODEL 1
REMARK VINA RESULT:      -7.9      0.000      0.000
REMARK  Name = 
REMARK  6 active torsions:
REMARK  status: ('A' for Active; 'I' for Inactive)
REMARK    1  A    between atoms: C_1  and  O_2
REMARK    2  A    between atoms: O_2  and  C_3
REMARK    3  A    between atoms: C_3  and  C_5
REMARK    4  A    between atoms: C_5  and  C_6
REMARK    5  A    between atoms: C_6  and  C_7
REMARK    6  A    between atoms: C_12  and  C_13
REMARK                            x       y       z     vdW  Elec       q    Type
REMARK                         _______ _______ _______ _____ _____    ______ ____
ROOT
ATOM      1  C   UNL     1       2.934   4.812  17.621  0.00  0.00    +0.000 A 
ATOM      2  C   UNL     1       3.852   3.828  17.201  0.00  0.00    +0.000 A 
ATOM      3  C   UNL     1       5.195   4.138  17.096  0.00  0.00    +0.000 A 
ATOM      4  N   UNL     1       5.695   5.348  17.384  0.00  0.00    +0.000 NA
ATOM      5  C   UNL     1       4.807   6.276  17.820  0.00  0.00    +0.000 A 
ATOM      6  C   UNL     1       3.420   6.097  17.975  0.00  0.00    +0.000 A 
ENDROOT
BRANCH   6   7
ATOM      7  C   UNL     1       2.592   7.230  18.476  0.00  0.00    +0.000 A 
ATOM      8  C   UNL     1       2.147   8.262  17.636  0.00  0.00    +0.000 A 
ATOM      9  C   UNL     1       1.473   9.383  18.132  0.00  0.00    +0.000 A 
ATOM     10  C   UNL     1       1.105   9.453  19.475  0.00  0.00    +0.000 A 
ATOM     11  C   UNL     1       0.387  10.552  19.975  0.00  0.00    +0.000 A 
ATOM     12  C   UNL     1      -0.040  10.574  21.301  0.00  0.00    +0.000 A 
ATOM     13  C   UNL     1       0.254   9.507  22.146  0.00  0.00    +0.000 A 
ATOM     14  C   UNL     1       1.004   8.429  21.669  0.00  0.00    +0.000 A 
ATOM     15  C   UNL     1       1.446   8.390  20.336  0.00  0.00    +0.000 A 
ATOM     16  C   UNL     1       2.212   7.317  19.832  0.00  0.00    +0.000 A 
ENDBRANCH   6   7
BRANCH   1  17
ATOM     17  C   UNL     1       1.480   4.382  17.671  0.00  0.00    +0.000 C 
BRANCH  17  18
ATOM     18  C   UNL     1       1.212   3.088  18.437  0.00  0.00    +0.000 C 
BRANCH  18  19
ATOM     19  C   UNL     1       1.254   3.344  19.922  0.00  0.00    +0.000 C 
ATOM     20  O   UNL     1       0.747   4.297  20.493  0.00  0.00    +0.000 OA
BRANCH  19  22
ATOM     21  C   UNL     1       3.334   2.608  20.699  0.00  0.00    +0.000 C 
ATOM     22  O   UNL     1       1.941   2.342  20.539  0.00  0.00    +0.000 OA
ENDBRANCH  19  22
ENDBRANCH  18  19
ENDBRANCH  17  18
ENDBRANCH   1  17
TORSDOF 5
ENDMDL
MODEL 2
REMARK VINA RESULT:      -7.7      1.362      2.476
REMARK  Name = 
REMARK  6 active torsions:
REMARK  status: ('A' for Active; 'I' for Inactive)
REMARK    1  A    between atoms: C_1  and  O_2
REMARK    2  A    between atoms: O_2  and  C_3
REMARK    3  A    between atoms: C_3  and  C_5
REMARK    4  A    between atoms: C_5  and  C_6
REMARK    5  A    between atoms: C_6  and  C_7
REMARK    6  A    between atoms: C_12  and  C_13
REMARK                            x       y       z     vdW  Elec       q    Type
REMARK                         _______ _______ _______ _____ _____    ______ ____
ROOT
ATOM      1  C   UNL     1       4.774   4.376  16.467  0.00  0.00    +0.000 A 
ATOM      2  C   UNL     1       5.806   3.804  15.695  0.00  0.00    +0.000 A 
ATOM      3  C   UNL     1       6.987   4.495  15.504  0.00  0.00    +0.000 A 
ATOM      4  N   UNL     1       7.223   5.706  16.027  0.00  0.00    +0.000 NA
ATOM      5  C   UNL     1       6.237   6.231  16.797  0.00  0.00    +0.000 A 
ATOM      6  C   UNL     1       4.991   5.639  17.075  0.00  0.00    +0.000 A 
ENDROOT
BRANCH   6   7
ATOM      7  C   UNL     1       4.025   6.358  17.952  0.00  0.00    +0.000 A 
ATOM      8  C   UNL     1       3.702   5.908  19.241  0.00  0.00    +0.000 A 
ATOM      9  C   UNL     1       2.708   6.517  20.013  0.00  0.00    +0.000 A 
ATOM     10  C   UNL     1       2.084   7.684  19.573  0.00  0.00    +0.000 A 
ATOM     11  C   UNL     1       1.118   8.332  20.360  0.00  0.00    +0.000 A 
ATOM     12  C   UNL     1       0.557   9.537  19.942  0.00  0.00    +0.000 A 
ATOM     13  C   UNL     1       0.945  10.103  18.731  0.00  0.00    +0.000 A 
ATOM     14  C   UNL     1       1.875   9.446  17.922  0.00  0.00    +0.000 A 
ATOM     15  C   UNL     1       2.449   8.228  18.325  0.00  0.00    +0.000 A 
ATOM     16  C   UNL     1       3.384   7.539  17.522  0.00  0.00    +0.000 A 
ENDBRANCH   6   7
BRANCH   1  17
ATOM     17  C   UNL     1       3.505   3.553  16.589  0.00  0.00    +0.000 C 
BRANCH  17  18
ATOM     18  C   UNL     1       3.413   2.685  17.843  0.00  0.00    +0.000 C 
BRANCH  18  19
ATOM     19  C   UNL     1       2.020   2.745  18.416  0.00  0.00    +0.000 C 
ATOM     20  O   UNL     1       1.073   3.337  17.921  0.00  0.00    +0.000 OA
BRANCH  19  22
ATOM     21  C   UNL     1       1.376   2.735  20.665  0.00  0.00    +0.000 C 
ATOM     22  O   UNL     1       1.972   2.031  19.576  0.00  0.00    +0.000 OA
ENDBRANCH  19  22
ENDBRANCH  18  19
ENDBRANCH  17  18
ENDBRANCH   1  17
TORSDOF 5
ENDMDL
MODEL 3
REMARK VINA RESULT:      -7.6      2.706      4.138
REMARK  Name = 
REMARK  6 active torsions:
REMARK  status: ('A' for Active; 'I' for Inactive)
REMARK    1  A    between atoms: C_1  and  O_2
REMARK    2  A    between atoms: O_2  and  C_3
REMARK    3  A    between atoms: C_3  and  C_5
REMARK    4  A    between atoms: C_5  and  C_6
REMARK    5  A    between atoms: C_6  and  C_7
REMARK    6  A    between atoms: C_12  and  C_13
REMARK                            x       y       z     vdW  Elec       q    Type
REMARK                         _______ _______ _______ _____ _____    ______ ____
ROOT
ATOM      1  C   UNL     1       3.942   4.356  18.318  0.00  0.00    +0.000 A 
ATOM      2  C   UNL     1       4.147   3.070  17.779  0.00  0.00    +0.000 A 
ATOM      3  C   UNL     1       3.068   2.237  17.554  0.00  0.00    +0.000 A 
ATOM      4  N   UNL     1       1.801   2.588  17.816  0.00  0.00    +0.000 NA
ATOM      5  C   UNL     1       1.613   3.840  18.302  0.00  0.00    +0.000 A 
ATOM      6  C   UNL     1       2.616   4.788  18.576  0.00  0.00    +0.000 A 
ENDROOT
BRANCH   6   7
ATOM      7  C   UNL     1       2.226   6.126  19.102  0.00  0.00    +0.000 A 
ATOM      8  C   UNL     1       1.850   6.326  20.439  0.00  0.00    +0.000 A 
ATOM      9  C   UNL     1       1.371   7.556  20.900  0.00  0.00    +0.000 A 
ATOM     10  C   UNL     1       1.372   8.675  20.067  0.00  0.00    +0.000 A 
ATOM     11  C   UNL     1       0.938   9.927  20.531  0.00  0.00    +0.000 A 
ATOM     12  C   UNL     1       1.015  11.052  19.712  0.00  0.00    +0.000 A 
ATOM     13  C   UNL     1       1.514  10.937  18.417  0.00  0.00    +0.000 A 
ATOM     14  C   UNL     1       1.909   9.688  17.931  0.00  0.00    +0.000 A 
ATOM     15  C   UNL     1       1.837   8.542  18.742  0.00  0.00    +0.000 A 
ATOM     16  C   UNL     1       2.221   7.268  18.273  0.00  0.00    +0.000 A 
ENDBRANCH   6   7
BRANCH   1  17
ATOM     17  C   UNL     1       5.193   5.179  18.559  0.00  0.00    +0.000 C 
BRANCH  17  18
ATOM     18  C   UNL     1       6.034   5.462  17.315  0.00  0.00    +0.000 C 
BRANCH  18  19
ATOM     19  C   UNL     1       7.367   4.767  17.419  0.00  0.00    +0.000 C 
ATOM     20  O   UNL     1       7.949   4.497  18.459  0.00  0.00    +0.000 OA
BRANCH  19  22
ATOM     21  C   UNL     1       6.924   4.822  15.122  0.00  0.00    +0.000 C 
ATOM     22  O   UNL     1       7.829   4.477  16.170  0.00  0.00    +0.000 OA
ENDBRANCH  19  22
ENDBRANCH  18  19
ENDBRANCH  17  18
ENDBRANCH   1  17
TORSDOF 5
ENDMDL
MODEL 4
REMARK VINA RESULT:      -7.6      1.107      2.011
REMARK  Name = 
REMARK  6 active torsions:
REMARK  status: ('A' for Active; 'I' for Inactive)
REMARK    1  A    between atoms: C_1  and  O_2
REMARK    2  A    between atoms: O_2  and  C_3
REMARK    3  A    between atoms: C_3  and  C_5
REMARK    4  A    between atoms: C_5  and  C_6
REMARK    5  A    between atoms: C_6  and  C_7
REMARK    6  A    between atoms: C_12  and  C_13
REMARK                            x       y       z     vdW  Elec       q    Type
REMARK                         _______ _______ _______ _____ _____    ______ ____
ROOT
ATOM      1  C   UNL     1       3.845   4.505  17.110  0.00  0.00    +0.000 A 
ATOM      2  C   UNL     1       4.821   3.775  16.402  0.00  0.00    +0.000 A 
ATOM      3  C   UNL     1       6.046   4.351  16.125  0.00  0.00    +0.000 A 
ATOM      4  N   UNL     1       6.378   5.593  16.505  0.00  0.00    +0.000 NA
ATOM      5  C   UNL     1       5.443   6.272  17.216  0.00  0.00    +0.000 A 
ATOM      6  C   UNL     1       4.162   5.809  17.569  0.00  0.00    +0.000 A 
ENDROOT
BRANCH   6   7
ATOM      7  C   UNL     1       3.264   6.692  18.363  0.00  0.00    +0.000 A 
ATOM      8  C   UNL     1       2.859   6.372  19.668  0.00  0.00    +0.000 A 
ATOM      9  C   UNL     1       1.923   7.142  20.365  0.00  0.00    +0.000 A 
ATOM     10  C   UNL     1       1.448   8.339  19.829  0.00  0.00    +0.000 A 
ATOM     11  C   UNL     1       0.544   9.145  20.539  0.00  0.00    +0.000 A 
ATOM     12  C   UNL     1       0.136  10.374  20.024  0.00  0.00    +0.000 A 
ATOM     13  C   UNL     1       0.617  10.807  18.791  0.00  0.00    +0.000 A 
ATOM     14  C   UNL     1       1.485   9.994  18.058  0.00  0.00    +0.000 A 
ATOM     15  C   UNL     1       1.905   8.750  18.560  0.00  0.00    +0.000 A 
ATOM     16  C   UNL     1       2.774   7.906  17.836  0.00  0.00    +0.000 A 
ENDBRANCH   6   7
BRANCH   1  17
ATOM     17  C   UNL     1       2.522   3.797  17.333  0.00  0.00    +0.000 C 
BRANCH  17  18
ATOM     18  C   UNL     1       2.480   2.867  18.544  0.00  0.00    +0.000 C 
BRANCH  18  19
ATOM     19  C   UNL     1       1.066   2.728  19.045  0.00  0.00    +0.000 C 
ATOM     20  O   UNL     1       0.183   2.075  18.510  0.00  0.00    +0.000 OA
BRANCH  19  22
ATOM     21  C   UNL     1       1.443   2.792  21.353  0.00  0.00    +0.000 C 
ATOM     22  O   UNL     1       0.916   3.442  20.197  0.00  0.00    +0.000 OA
ENDBRANCH  19  22
ENDBRANCH  18  19
ENDBRANCH  17  18
ENDBRANCH   1  17
TORSDOF 5
ENDMDL
MODEL 5
REMARK VINA RESULT:      -7.5      1.299      2.276
REMARK  Name = 
REMARK  6 active torsions:
REMARK  status: ('A' for Active; 'I' for Inactive)
REMARK    1  A    between atoms: C_1  and  O_2
REMARK    2  A    between atoms: O_2  and  C_3
REMARK    3  A    between atoms: C_3  and  C_5
REMARK    4  A    between atoms: C_5  and  C_6
REMARK    5  A    between atoms: C_6  and  C_7
REMARK    6  A    between atoms: C_12  and  C_13
REMARK                            x       y       z     vdW  Elec       q    Type
REMARK                         _______ _______ _______ _____ _____    ______ ____
ROOT
ATOM      1  C   UNL     1       4.094   4.588  16.924  0.00  0.00    +0.000 A 
ATOM      2  C   UNL     1       5.013   4.009  16.025  0.00  0.00    +0.000 A 
ATOM      3  C   UNL     1       5.947   4.804  15.387  0.00  0.00    +0.000 A 
ATOM      4  N   UNL     1       6.042   6.127  15.581  0.00  0.00    +0.000 NA
ATOM      5  C   UNL     1       5.175   6.667  16.474  0.00  0.00    +0.000 A 
ATOM      6  C   UNL     1       4.180   5.978  17.192  0.00  0.00    +0.000 A 
ENDROOT
BRANCH   6   7
ATOM      7  C   UNL     1       3.316   6.733  18.142  0.00  0.00    +0.000 A 
ATOM      8  C   UNL     1       3.046   6.272  19.440  0.00  0.00    +0.000 A 
ATOM      9  C   UNL     1       2.141   6.921  20.285  0.00  0.00    +0.000 A 
ATOM     10  C   UNL     1       1.566   8.135  19.910  0.00  0.00    +0.000 A 
ATOM     11  C   UNL     1       0.693   8.822  20.770  0.00  0.00    +0.000 A 
ATOM     12  C   UNL     1       0.184  10.069  20.414  0.00  0.00    +0.000 A 
ATOM     13  C   UNL     1       0.533  10.641  19.193  0.00  0.00    +0.000 A 
ATOM     14  C   UNL     1       1.368   9.948  18.313  0.00  0.00    +0.000 A 
ATOM     15  C   UNL     1       1.888   8.687  18.653  0.00  0.00    +0.000 A 
ATOM     16  C   UNL     1       2.726   7.962  17.779  0.00  0.00    +0.000 A 
ENDBRANCH   6   7
BRANCH   1  17
ATOM     17  C   UNL     1       3.089   3.637  17.546  0.00  0.00    +0.000 C 
BRANCH  17  18
ATOM     18  C   UNL     1       3.679   2.346  18.109  0.00  0.00    +0.000 C 
BRANCH  18  19
ATOM     19  C   UNL     1       3.709   2.401  19.614  0.00  0.00    +0.000 C 
ATOM     20  O   UNL     1       4.676   2.143  20.315  0.00  0.00    +0.000 OA
BRANCH  19  22
ATOM     21  C   UNL     1       2.464   3.049  21.486  0.00  0.00    +0.000 C 
ATOM     22  O   UNL     1       2.490   2.788  20.083  0.00  0.00    +0.000 OA
ENDBRANCH  19  22
ENDBRANCH  18  19
ENDBRANCH  17  18
ENDBRANCH   1  17
TORSDOF 5
ENDMDL
MODEL 6
REMARK VINA RESULT:      -7.5      0.826      1.114
REMARK  Name = 
REMARK  6 active torsions:
REMARK  status: ('A' for Active; 'I' for Inactive)
REMARK    1  A    between atoms: C_1  and  O_2
REMARK    2  A    between atoms: O_2  and  C_3
REMARK    3  A    between atoms: C_3  and  C_5
REMARK    4  A    between atoms: C_5  and  C_6
REMARK    5  A    between atoms: C_6  and  C_7
REMARK    6  A    between atoms: C_12  and  C_13
REMARK                            x       y       z     vdW  Elec       q    Type
REMARK                         _______ _______ _______ _____ _____    ______ ____
ROOT
ATOM      1  C   UNL     1       3.285   5.037  17.549  0.00  0.00    +0.000 A 
ATOM      2  C   UNL     1       4.271   4.194  16.998  0.00  0.00    +0.000 A 
ATOM      3  C   UNL     1       5.485   4.722  16.601  0.00  0.00    +0.000 A 
ATOM      4  N   UNL     1       5.796   6.021  16.718  0.00  0.00    +0.000 NA
ATOM      5  C   UNL     1       4.852   6.816  17.282  0.00  0.00    +0.000 A 
ATOM      6  C   UNL     1       3.580   6.412  17.730  0.00  0.00    +0.000 A 
ENDROOT
BRANCH   6   7
ATOM      7  C   UNL     1       2.669   7.424  18.334  0.00  0.00    +0.000 A 
ATOM      8  C   UNL     1       2.138   8.492  17.595  0.00  0.00    +0.000 A 
ATOM      9  C   UNL     1       1.380   9.504  18.192  0.00  0.00    +0.000 A 
ATOM     10  C   UNL     1       1.016   9.418  19.536  0.00  0.00    +0.000 A 
ATOM     11  C   UNL     1       0.215  10.404  20.136  0.00  0.00    +0.000 A 
ATOM     12  C   UNL     1      -0.203  10.268  21.458  0.00  0.00    +0.000 A 
ATOM     13  C   UNL     1       0.180   9.153  22.199  0.00  0.00    +0.000 A 
ATOM     14  C   UNL     1       1.010   8.188  21.624  0.00  0.00    +0.000 A 
ATOM     15  C   UNL     1       1.445   8.309  20.293  0.00  0.00    +0.000 A 
ATOM     16  C   UNL     1       2.291   7.353  19.691  0.00  0.00    +0.000 A 
ENDBRANCH   6   7
BRANCH   1  17
ATOM     17  C   UNL     1       1.975   4.367  17.921  0.00  0.00    +0.000 C 
BRANCH  17  18
ATOM     18  C   UNL     1       2.106   2.950  18.475  0.00  0.00    +0.000 C 
BRANCH  18  19
ATOM     19  C   UNL     1       2.826   2.973  19.798  0.00  0.00    +0.000 C 
ATOM     20  O   UNL     1       3.921   2.477  20.020  0.00  0.00    +0.000 OA
BRANCH  19  22
ATOM     21  C   UNL     1       1.380   2.783  21.628  0.00  0.00    +0.000 C 
ATOM     22  O   UNL     1       2.073   3.638  20.719  0.00  0.00    +0.000 OA
ENDBRANCH  19  22
ENDBRANCH  18  19
ENDBRANCH  17  18
ENDBRANCH   1  17
TORSDOF 5
ENDMDL
MODEL 7
REMARK VINA RESULT:      -7.5      2.686      3.779
REMARK  Name = 
REMARK  6 active torsions:
REMARK  status: ('A' for Active; 'I' for Inactive)
REMARK    1  A    between atoms: C_1  and  O_2
REMARK    2  A    between atoms: O_2  and  C_3
REMARK    3  A    between atoms: C_3  and  C_5
REMARK    4  A    between atoms: C_5  and  C_6
REMARK    5  A    between atoms: C_6  and  C_7
REMARK    6  A    between atoms: C_12  and  C_13
REMARK                            x       y       z     vdW  Elec       q    Type
REMARK                         _______ _______ _______ _____ _____    ______ ____
ROOT
ATOM      1  C   UNL     1       4.100   4.344  18.806  0.00  0.00    +0.000 A 
ATOM      2  C   UNL     1       4.361   2.972  18.607  0.00  0.00    +0.000 A 
ATOM      3  C   UNL     1       3.316   2.098  18.380  0.00  0.00    +0.000 A 
ATOM      4  N   UNL     1       2.033   2.483  18.327  0.00  0.00    +0.000 NA
ATOM      5  C   UNL     1       1.797   3.810  18.484  0.00  0.00    +0.000 A 
ATOM      6  C   UNL     1       2.762   4.807  18.719  0.00  0.00    +0.000 A 
ENDROOT
BRANCH   6   7
ATOM      7  C   UNL     1       2.323   6.223  18.860  0.00  0.00    +0.000 A 
ATOM      8  C   UNL     1       2.256   7.101  17.767  0.00  0.00    +0.000 A 
ATOM      9  C   UNL     1       1.959   8.458  17.922  0.00  0.00    +0.000 A 
ATOM     10  C   UNL     1       1.591   8.966  19.168  0.00  0.00    +0.000 A 
ATOM     11  C   UNL     1       1.245  10.318  19.328  0.00  0.00    +0.000 A 
ATOM     12  C   UNL     1       0.807  10.795  20.562  0.00  0.00    +0.000 A 
ATOM     13  C   UNL     1       0.720   9.933  21.651  0.00  0.00    +0.000 A 
ATOM     14  C   UNL     1       1.102   8.596  21.513  0.00  0.00    +0.000 A 
ATOM     15  C   UNL     1       1.549   8.097  20.277  0.00  0.00    +0.000 A 
ATOM     16  C   UNL     1       1.949   6.753  20.113  0.00  0.00    +0.000 A 
ENDBRANCH   6   7
BRANCH   1  17
ATOM     17  C   UNL     1       5.311   5.215  19.081  0.00  0.00    +0.000 C 
BRANCH  17  18
ATOM     18  C   UNL     1       5.984   5.801  17.842  0.00  0.00    +0.000 C 
BRANCH  18  19
ATOM     19  C   UNL     1       7.250   5.046  17.531  0.00  0.00    +0.000 C 
ATOM     20  O   UNL     1       7.911   4.404  18.333  0.00  0.00    +0.000 OA
BRANCH  19  22
ATOM     21  C   UNL     1       6.713   4.417  15.342  0.00  0.00    +0.000 C 
ATOM     22  O   UNL     1       7.551   5.182  16.208  0.00  0.00    +0.000 OA
ENDBRANCH  19  22
ENDBRANCH  18  19
ENDBRANCH  17  18
ENDBRANCH   1  17
TORSDOF 5
ENDMDL
MODEL 8
REMARK VINA RESULT:      -7.5      2.831      4.241
REMARK  Name = 
REMARK  6 active torsions:
REMARK  status: ('A' for Active; 'I' for Inactive)
REMARK    1  A    between atoms: C_1  and  O_2
REMARK    2  A    between atoms: O_2  and  C_3
REMARK    3  A    between atoms: C_3  and  C_5
REMARK    4  A    between atoms: C_5  and  C_6
REMARK    5  A    between atoms: C_6  and  C_7
REMARK    6  A    between atoms: C_12  and  C_13
REMARK                            x       y       z     vdW  Elec       q    Type
REMARK                         _______ _______ _______ _____ _____    ______ ____
ROOT
ATOM      1  C   UNL     1       3.954   4.185  18.656  0.00  0.00    +0.000 A 
ATOM      2  C   UNL     1       4.171   2.887  18.149  0.00  0.00    +0.000 A 
ATOM      3  C   UNL     1       3.095   2.105  17.776  0.00  0.00    +0.000 A 
ATOM      4  N   UNL     1       1.821   2.516  17.860  0.00  0.00    +0.000 NA
ATOM      5  C   UNL     1       1.628   3.779  18.316  0.00  0.00    +0.000 A 
ATOM      6  C   UNL     1       2.627   4.681  18.726  0.00  0.00    +0.000 A 
ENDROOT
BRANCH   6   7
ATOM      7  C   UNL     1       2.232   6.039  19.195  0.00  0.00    +0.000 A 
ATOM      8  C   UNL     1       1.814   6.287  20.511  0.00  0.00    +0.000 A 
ATOM      9  C   UNL     1       1.331   7.536  20.914  0.00  0.00    +0.000 A 
ATOM     10  C   UNL     1       1.368   8.625  20.044  0.00  0.00    +0.000 A 
ATOM     11  C   UNL     1       0.930   9.895  20.451  0.00  0.00    +0.000 A 
ATOM     12  C   UNL     1       1.042  10.991  19.597  0.00  0.00    +0.000 A 
ATOM     13  C   UNL     1       1.581  10.828  18.323  0.00  0.00    +0.000 A 
ATOM     14  C   UNL     1       1.981   9.561  17.894  0.00  0.00    +0.000 A 
ATOM     15  C   UNL     1       1.873   8.444  18.740  0.00  0.00    +0.000 A 
ATOM     16  C   UNL     1       2.262   7.151  18.327  0.00  0.00    +0.000 A 
ENDBRANCH   6   7
BRANCH   1  17
ATOM     17  C   UNL     1       5.197   4.950  19.069  0.00  0.00    +0.000 C 
BRANCH  17  18
ATOM     18  C   UNL     1       5.779   5.869  17.997  0.00  0.00    +0.000 C 
BRANCH  18  19
ATOM     19  C   UNL     1       7.271   5.675  17.899  0.00  0.00    +0.000 C 
ATOM     20  O   UNL     1       7.831   4.707  17.409  0.00  0.00    +0.000 OA
BRANCH  19  22
ATOM     21  C   UNL     1       7.824   7.934  17.644  0.00  0.00    +0.000 C 
ATOM     22  O   UNL     1       7.908   6.752  18.440  0.00  0.00    +0.000 OA
ENDBRANCH  19  22
ENDBRANCH  18  19
ENDBRANCH  17  18
ENDBRANCH   1  17
TORSDOF 5
ENDMDL
MODEL 9
REMARK VINA RESULT:      -7.5      1.898      5.781
REMARK  Name = 
REMARK  6 active torsions:
REMARK  status: ('A' for Active; 'I' for Inactive)
REMARK    1  A    between atoms: C_1  and  O_2
REMARK    2  A    between atoms: O_2  and  C_3
REMARK    3  A    between atoms: C_3  and  C_5
REMARK    4  A    between atoms: C_5  and  C_6
REMARK    5  A    between atoms: C_6  and  C_7
REMARK    6  A    between atoms: C_12  and  C_13
REMARK                            x       y       z     vdW  Elec       q    Type
REMARK                         _______ _______ _______ _____ _____    ______ ____
ROOT
ATOM      1  C   UNL     1       1.954   6.686  20.205  0.00  0.00    +0.000 A 
ATOM      2  C   UNL     1       1.213   7.645  20.926  0.00  0.00    +0.000 A 
ATOM      3  C   UNL     1       1.014   8.904  20.394  0.00  0.00    +0.000 A 
ATOM      4  N   UNL     1       1.488   9.281  19.198  0.00  0.00    +0.000 NA
ATOM      5  C   UNL     1       2.170   8.339  18.499  0.00  0.00    +0.000 A 
ATOM      6  C   UNL     1       2.443   7.024  18.917  0.00  0.00    +0.000 A 
ENDROOT
BRANCH   6   7
ATOM      7  C   UNL     1       3.203   6.117  18.012  0.00  0.00    +0.000 A 
ATOM      8  C   UNL     1       2.746   4.832  17.680  0.00  0.00    +0.000 A 
ATOM      9  C   UNL     1       3.518   3.941  16.929  0.00  0.00    +0.000 A 
ATOM     10  C   UNL     1       4.729   4.349  16.369  0.00  0.00    +0.000 A 
ATOM     11  C   UNL     1       5.491   3.478  15.573  0.00  0.00    +0.000 A 
ATOM     12  C   UNL     1       6.660   3.921  14.959  0.00  0.00    +0.000 A 
ATOM     13  C   UNL     1       7.088   5.234  15.141  0.00  0.00    +0.000 A 
ATOM     14  C   UNL     1       6.360   6.095  15.964  0.00  0.00    +0.000 A 
ATOM     15  C   UNL     1       5.179   5.666  16.594  0.00  0.00    +0.000 A 
ATOM     16  C   UNL     1       4.430   6.513  17.438  0.00  0.00    +0.000 A 
ENDBRANCH   6   7
BRANCH   1  17
ATOM     17  C   UNL     1       2.145   5.346  20.890  0.00  0.00    +0.000 C 
BRANCH  17  18
ATOM     18  C   UNL     1       1.068   4.305  20.590  0.00  0.00    +0.000 C 
BRANCH  18  19
ATOM     19  C   UNL     1       1.525   2.940  21.032  0.00  0.00    +0.000 C 
ATOM     20  O   UNL     1       1.686   2.584  22.190  0.00  0.00    +0.000 OA
BRANCH  19  22
ATOM     21  C   UNL     1       0.740   2.298  18.924  0.00  0.00    +0.000 C 
ATOM     22  O   UNL     1       1.731   2.151  19.940  0.00  0.00    +0.000 OA
ENDBRANCH  19  22
ENDBRANCH  18  19
ENDBRANCH  17  18
ENDBRANCH   1  17
TORSDOF 5
ENDMDL
