MODEL 1
REMARK VINA RESULT:      -8.5      0.000      0.000
REMARK  Name = 
REMARK  5 active torsions:
REMARK  status: ('A' for Active; 'I' for Inactive)
REMARK    1  A    between atoms: C_2  and  C_10
REMARK    2  A    between atoms: N_3  and  C_4
REMARK    3  A    between atoms: C_12  and  O_13
REMARK    4  A    between atoms: O_13  and  C_14
REMARK    5  A    between atoms: C_14  and  C_15
REMARK                            x       y       z     vdW  Elec       q    Type
REMARK                         _______ _______ _______ _____ _____    ______ ____
ROOT
ATOM      1  C   UNL     1       6.123   5.349  17.995  0.00  0.00    +0.000 A 
ATOM      2  C   UNL     1       6.875   6.256  18.696  0.00  0.00    +0.000 A 
ATOM      3  C   UNL     1       7.694   7.046  17.931  0.00  0.00    +0.000 A 
ATOM      4  N   UNL     1       7.763   6.938  16.598  0.00  0.00    +0.000 NA
ATOM      5  C   UNL     1       6.997   6.004  16.023  0.00  0.00    +0.000 A 
ATOM      6  N   UNL     1       6.178   5.170  16.658  0.00  0.00    +0.000 NA
ENDROOT
BRANCH   1   8
ATOM      7  O   UNL     1       5.460   3.596  19.375  0.00  0.00    +0.000 OA
ATOM      8  C   UNL     1       5.093   4.540  18.717  0.00  0.00    +0.000 C 
ATOM      9  N   UNL     1       3.761   4.936  18.496  0.00  0.00    +0.000 N 
ATOM     10  H   UNL     1       3.567   5.640  17.798  0.00  0.00    +0.000 HD
BRANCH   9  11
ATOM     11  C   UNL     1       2.668   4.211  19.025  0.00  0.00    +0.000 A 
ATOM     12  C   UNL     1       2.254   4.399  20.348  0.00  0.00    +0.000 A 
ATOM     13  C   UNL     1       1.211   3.651  20.881  0.00  0.00    +0.000 A 
ATOM     14  C   UNL     1       0.556   2.712  20.091  0.00  0.00    +0.000 A 
ATOM     15  C   UNL     1       0.943   2.526  18.767  0.00  0.00    +0.000 A 
ATOM     16  C   UNL     1       1.990   3.286  18.229  0.00  0.00    +0.000 A 
ENDBRANCH   9  11
ENDBRANCH   1   8
BRANCH   3  17
ATOM     17  O   UNL     1       8.501   7.995  18.531  0.00  0.00    +0.000 OA
BRANCH  17  18
ATOM     18  C   UNL     1       8.234   9.333  18.048  0.00  0.00    +0.000 C 
BRANCH  18  19
ATOM     19  C   UNL     1       9.231  10.298  18.651  0.00  0.00    +0.000 A 
ATOM     20  C   UNL     1       9.255  10.518  20.035  0.00  0.00    +0.000 A 
ATOM     21  C   UNL     1      10.136  11.447  20.591  0.00  0.00    +0.000 A 
ATOM     22  C   UNL     1      11.031  12.135  19.772  0.00  0.00    +0.000 A 
ATOM     23  C   UNL     1      11.040  11.901  18.399  0.00  0.00    +0.000 A 
ATOM     24  C   UNL     1      10.143  10.990  17.839  0.00  0.00    +0.000 A 
ENDBRANCH  18  19
ENDBRANCH  17  18
ENDBRANCH   3  17
TORSDOF 5
ENDMDL
MODEL 2
REMARK VINA RESULT:      -8.5      0.067      1.009
REMARK  Name = 
REMARK  5 active torsions:
REMARK  status: ('A' for Active; 'I' for Inactive)
REMARK    1  A    between atoms: C_2  and  C_10
REMARK    2  A    between atoms: N_3  and  C_4
REMARK    3  A    between atoms: C_12  and  O_13
REMARK    4  A    between atoms: O_13  and  C_14
REMARK    5  A    between atoms: C_14  and  C_15
REMARK                            x       y       z     vdW  Elec       q    Type
REMARK                         _______ _______ _______ _____ _____    ______ ____
ROOT
ATOM      1  C   UNL     1       6.107   5.356  17.967  0.00  0.00    +0.000 A 
ATOM      2  C   UNL     1       6.850   6.266  18.674  0.00  0.00    +0.000 A 
ATOM      3  C   UNL     1       7.678   7.054  17.916  0.00  0.00    +0.000 A 
ATOM      4  N   UNL     1       7.765   6.941  16.585  0.00  0.00    +0.000 NA
ATOM      5  C   UNL     1       7.007   6.004  16.004  0.00  0.00    +0.000 A 
ATOM      6  N   UNL     1       6.180   5.171  16.632  0.00  0.00    +0.000 NA
ENDROOT
BRANCH   1   8
ATOM      7  O   UNL     1       5.427   3.599  19.334  0.00  0.00    +0.000 OA
ATOM      8  C   UNL     1       5.069   4.549  18.679  0.00  0.00    +0.000 C 
ATOM      9  N   UNL     1       3.741   4.954  18.453  0.00  0.00    +0.000 N 
ATOM     10  H   UNL     1       3.555   5.663  17.758  0.00  0.00    +0.000 HD
BRANCH   9  11
ATOM     11  C   UNL     1       2.640   4.233  18.972  0.00  0.00    +0.000 A 
ATOM     12  C   UNL     1       2.167   4.478  20.265  0.00  0.00    +0.000 A 
ATOM     13  C   UNL     1       1.116   3.734  20.791  0.00  0.00    +0.000 A 
ATOM     14  C   UNL     1       0.515   2.743  20.023  0.00  0.00    +0.000 A 
ATOM     15  C   UNL     1       0.962   2.499  18.728  0.00  0.00    +0.000 A 
ATOM     16  C   UNL     1       2.015   3.254  18.196  0.00  0.00    +0.000 A 
ENDBRANCH   9  11
ENDBRANCH   1   8
BRANCH   3  17
ATOM     17  O   UNL     1       8.477   8.005  18.523  0.00  0.00    +0.000 OA
BRANCH  17  18
ATOM     18  C   UNL     1       8.221   9.341  18.025  0.00  0.00    +0.000 C 
BRANCH  18  19
ATOM     19  C   UNL     1       9.216  10.306  18.630  0.00  0.00    +0.000 A 
ATOM     20  C   UNL     1      10.130  10.986  17.813  0.00  0.00    +0.000 A 
ATOM     21  C   UNL     1      11.086  11.836  18.371  0.00  0.00    +0.000 A 
ATOM     22  C   UNL     1      11.111  12.047  19.749  0.00  0.00    +0.000 A 
ATOM     23  C   UNL     1      10.188  11.403  20.570  0.00  0.00    +0.000 A 
ATOM     24  C   UNL     1       9.247  10.534  20.015  0.00  0.00    +0.000 A 
ENDBRANCH  18  19
ENDBRANCH  17  18
ENDBRANCH   3  17
TORSDOF 5
ENDMDL
MODEL 3
REMARK VINA RESULT:      -8.4      0.077      1.006
REMARK  Name = 
REMARK  5 active torsions:
REMARK  status: ('A' for Active; 'I' for Inactive)
REMARK    1  A    between atoms: C_2  and  C_10
REMARK    2  A    between atoms: N_3  and  C_4
REMARK    3  A    between atoms: C_12  and  O_13
REMARK    4  A    between atoms: O_13  and  C_14
REMARK    5  A    between atoms: C_14  and  C_15
REMARK                            x       y       z     vdW  Elec       q    Type
REMARK                         _______ _______ _______ _____ _____    ______ ____
ROOT
ATOM      1  C   UNL     1       6.161   5.352  17.976  0.00  0.00    +0.000 A 
ATOM      2  C   UNL     1       6.900   6.263  18.685  0.00  0.00    +0.000 A 
ATOM      3  C   UNL     1       7.710   7.070  17.927  0.00  0.00    +0.000 A 
ATOM      4  N   UNL     1       7.784   6.972  16.594  0.00  0.00    +0.000 NA
ATOM      5  C   UNL     1       7.030   6.032  16.010  0.00  0.00    +0.000 A 
ATOM      6  N   UNL     1       6.220   5.183  16.638  0.00  0.00    +0.000 NA
ENDROOT
BRANCH   1   8
ATOM      7  O   UNL     1       5.518   3.585  19.348  0.00  0.00    +0.000 OA
ATOM      8  C   UNL     1       5.140   4.525  18.690  0.00  0.00    +0.000 C 
ATOM      9  N   UNL     1       3.803   4.900  18.462  0.00  0.00    +0.000 N 
ATOM     10  H   UNL     1       3.602   5.602  17.765  0.00  0.00    +0.000 HD
BRANCH   9  11
ATOM     11  C   UNL     1       2.718   4.157  18.983  0.00  0.00    +0.000 A 
ATOM     12  C   UNL     1       2.099   3.161  18.221  0.00  0.00    +0.000 A 
ATOM     13  C   UNL     1       1.002   2.464  18.716  0.00  0.00    +0.000 A 
ATOM     14  C   UNL     1       0.518   2.746  19.989  0.00  0.00    +0.000 A 
ATOM     15  C   UNL     1       1.135   3.721  20.767  0.00  0.00    +0.000 A 
ATOM     16  C   UNL     1       2.244   4.417  20.271  0.00  0.00    +0.000 A 
ENDBRANCH   9  11
ENDBRANCH   1   8
BRANCH   3  17
ATOM     17  O   UNL     1       8.504   8.024  18.535  0.00  0.00    +0.000 OA
BRANCH  17  18
ATOM     18  C   UNL     1       8.262   9.355  18.019  0.00  0.00    +0.000 C 
BRANCH  18  19
ATOM     19  C   UNL     1       9.233  10.327  18.651  0.00  0.00    +0.000 A 
ATOM     20  C   UNL     1       9.240  10.520  20.040  0.00  0.00    +0.000 A 
ATOM     21  C   UNL     1      10.095  11.455  20.623  0.00  0.00    +0.000 A 
ATOM     22  C   UNL     1      10.983  12.178  19.828  0.00  0.00    +0.000 A 
ATOM     23  C   UNL     1      11.010  11.974  18.450  0.00  0.00    +0.000 A 
ATOM     24  C   UNL     1      10.137  11.056  17.862  0.00  0.00    +0.000 A 
ENDBRANCH  18  19
ENDBRANCH  17  18
ENDBRANCH   3  17
TORSDOF 5
ENDMDL
MODEL 4
REMARK VINA RESULT:      -7.9      1.464      8.436
REMARK  Name = 
REMARK  5 active torsions:
REMARK  status: ('A' for Active; 'I' for Inactive)
REMARK    1  A    between atoms: C_2  and  C_10
REMARK    2  A    between atoms: N_3  and  C_4
REMARK    3  A    between atoms: C_12  and  O_13
REMARK    4  A    between atoms: O_13  and  C_14
REMARK    5  A    between atoms: C_14  and  C_15
REMARK                            x       y       z     vdW  Elec       q    Type
REMARK                         _______ _______ _______ _____ _____    ______ ____
ROOT
ATOM      1  C   UNL     1       6.920   6.284  16.939  0.00  0.00    +0.000 A 
ATOM      2  C   UNL     1       5.701   5.842  17.384  0.00  0.00    +0.000 A 
ATOM      3  C   UNL     1       5.133   4.846  16.632  0.00  0.00    +0.000 A 
ATOM      4  N   UNL     1       5.718   4.345  15.537  0.00  0.00    +0.000 NA
ATOM      5  C   UNL     1       6.899   4.867  15.185  0.00  0.00    +0.000 A 
ATOM      6  N   UNL     1       7.540   5.843  15.823  0.00  0.00    +0.000 NA
ENDROOT
BRANCH   1   8
ATOM      7  O   UNL     1       8.168   6.883  18.809  0.00  0.00    +0.000 OA
ATOM      8  C   UNL     1       7.690   7.262  17.766  0.00  0.00    +0.000 C 
ATOM      9  N   UNL     1       7.723   8.575  17.261  0.00  0.00    +0.000 N 
ATOM     10  H   UNL     1       7.151   8.808  16.462  0.00  0.00    +0.000 HD
BRANCH   9  11
ATOM     11  C   UNL     1       8.323   9.637  17.977  0.00  0.00    +0.000 A 
ATOM     12  C   UNL     1       8.245  10.953  17.509  0.00  0.00    +0.000 A 
ATOM     13  C   UNL     1       8.877  11.989  18.188  0.00  0.00    +0.000 A 
ATOM     14  C   UNL     1       9.584  11.723  19.355  0.00  0.00    +0.000 A 
ATOM     15  C   UNL     1       9.655  10.422  19.845  0.00  0.00    +0.000 A 
ATOM     16  C   UNL     1       9.013   9.381  19.164  0.00  0.00    +0.000 A 
ENDBRANCH   9  11
ENDBRANCH   1   8
BRANCH   3  17
ATOM     17  O   UNL     1       3.902   4.325  16.985  0.00  0.00    +0.000 OA
BRANCH  17  18
ATOM     18  C   UNL     1       3.123   5.244  17.789  0.00  0.00    +0.000 C 
BRANCH  18  19
ATOM     19  C   UNL     1       2.446   4.487  18.910  0.00  0.00    +0.000 A 
ATOM     20  C   UNL     1       1.444   3.549  18.628  0.00  0.00    +0.000 A 
ATOM     21  C   UNL     1       0.778   2.888  19.661  0.00  0.00    +0.000 A 
ATOM     22  C   UNL     1       1.138   3.128  20.986  0.00  0.00    +0.000 A 
ATOM     23  C   UNL     1       2.155   4.033  21.280  0.00  0.00    +0.000 A 
ATOM     24  C   UNL     1       2.805   4.713  20.248  0.00  0.00    +0.000 A 
ENDBRANCH  18  19
ENDBRANCH  17  18
ENDBRANCH   3  17
TORSDOF 5
ENDMDL
MODEL 5
REMARK VINA RESULT:      -7.9      1.011      1.126
REMARK  Name = 
REMARK  5 active torsions:
REMARK  status: ('A' for Active; 'I' for Inactive)
REMARK    1  A    between atoms: C_2  and  C_10
REMARK    2  A    between atoms: N_3  and  C_4
REMARK    3  A    between atoms: C_12  and  O_13
REMARK    4  A    between atoms: O_13  and  C_14
REMARK    5  A    between atoms: C_14  and  C_15
REMARK                            x       y       z     vdW  Elec       q    Type
REMARK                         _______ _______ _______ _____ _____    ______ ____
ROOT
ATOM      1  C   UNL     1       5.916   5.075  17.499  0.00  0.00    +0.000 A 
ATOM      2  C   UNL     1       6.548   6.000  18.289  0.00  0.00    +0.000 A 
ATOM      3  C   UNL     1       7.496   6.759  17.652  0.00  0.00    +0.000 A 
ATOM      4  N   UNL     1       7.792   6.605  16.356  0.00  0.00    +0.000 NA
ATOM      5  C   UNL     1       7.124   5.658  15.687  0.00  0.00    +0.000 A 
ATOM      6  N   UNL     1       6.197   4.851  16.198  0.00  0.00    +0.000 NA
ENDROOT
BRANCH   1   8
ATOM      7  O   UNL     1       4.224   3.484  17.351  0.00  0.00    +0.000 OA
ATOM      8  C   UNL     1       4.767   4.299  18.059  0.00  0.00    +0.000 C 
ATOM      9  N   UNL     1       4.387   4.655  19.366  0.00  0.00    +0.000 N 
ATOM     10  H   UNL     1       4.811   5.462  19.798  0.00  0.00    +0.000 HD
BRANCH   9  11
ATOM     11  C   UNL     1       3.256   4.086  19.997  0.00  0.00    +0.000 A 
ATOM     12  C   UNL     1       3.382   2.960  20.817  0.00  0.00    +0.000 A 
ATOM     13  C   UNL     1       2.264   2.372  21.398  0.00  0.00    +0.000 A 
ATOM     14  C   UNL     1       1.002   2.913  21.176  0.00  0.00    +0.000 A 
ATOM     15  C   UNL     1       0.861   4.045  20.377  0.00  0.00    +0.000 A 
ATOM     16  C   UNL     1       1.989   4.640  19.799  0.00  0.00    +0.000 A 
ENDBRANCH   9  11
ENDBRANCH   1   8
BRANCH   3  17
ATOM     17  O   UNL     1       8.200   7.721  18.351  0.00  0.00    +0.000 OA
BRANCH  17  18
ATOM     18  C   UNL     1       7.993   9.052  17.821  0.00  0.00    +0.000 C 
BRANCH  18  19
ATOM     19  C   UNL     1       8.966  10.012  18.468  0.00  0.00    +0.000 A 
ATOM     20  C   UNL     1       9.032  10.121  19.864  0.00  0.00    +0.000 A 
ATOM     21  C   UNL     1       9.889  11.045  20.464  0.00  0.00    +0.000 A 
ATOM     22  C   UNL     1      10.720  11.839  19.676  0.00  0.00    +0.000 A 
ATOM     23  C   UNL     1      10.689  11.718  18.288  0.00  0.00    +0.000 A 
ATOM     24  C   UNL     1       9.814  10.812  17.685  0.00  0.00    +0.000 A 
ENDBRANCH  18  19
ENDBRANCH  17  18
ENDBRANCH   3  17
TORSDOF 5
ENDMDL
MODEL 6
REMARK VINA RESULT:      -7.9      1.392      1.768
REMARK  Name = 
REMARK  5 active torsions:
REMARK  status: ('A' for Active; 'I' for Inactive)
REMARK    1  A    between atoms: C_2  and  C_10
REMARK    2  A    between atoms: N_3  and  C_4
REMARK    3  A    between atoms: C_12  and  O_13
REMARK    4  A    between atoms: O_13  and  C_14
REMARK    5  A    between atoms: C_14  and  C_15
REMARK                            x       y       z     vdW  Elec       q    Type
REMARK                         _______ _______ _______ _____ _____    ______ ____
ROOT
ATOM      1  C   UNL     1       5.691   4.892  17.202  0.00  0.00    +0.000 A 
ATOM      2  C   UNL     1       5.978   6.179  17.575  0.00  0.00    +0.000 A 
ATOM      3  C   UNL     1       6.964   6.790  16.844  0.00  0.00    +0.000 A 
ATOM      4  N   UNL     1       7.607   6.176  15.843  0.00  0.00    +0.000 NA
ATOM      5  C   UNL     1       7.256   4.911  15.580  0.00  0.00    +0.000 A 
ATOM      6  N   UNL     1       6.329   4.210  16.228  0.00  0.00    +0.000 NA
ENDROOT
BRANCH   1   8
ATOM      7  O   UNL     1       3.847   3.472  17.149  0.00  0.00    +0.000 OA
ATOM      8  C   UNL     1       4.535   4.188  17.838  0.00  0.00    +0.000 C 
ATOM      9  N   UNL     1       4.326   4.490  19.196  0.00  0.00    +0.000 N 
ATOM     10  H   UNL     1       4.868   5.227  19.624  0.00  0.00    +0.000 HD
BRANCH   9  11
ATOM     11  C   UNL     1       3.216   3.986  19.913  0.00  0.00    +0.000 A 
ATOM     12  C   UNL     1       3.361   2.916  20.802  0.00  0.00    +0.000 A 
ATOM     13  C   UNL     1       2.261   2.389  21.468  0.00  0.00    +0.000 A 
ATOM     14  C   UNL     1       0.999   2.937  21.264  0.00  0.00    +0.000 A 
ATOM     15  C   UNL     1       0.840   4.014  20.398  0.00  0.00    +0.000 A 
ATOM     16  C   UNL     1       1.950   4.548  19.732  0.00  0.00    +0.000 A 
ENDBRANCH   9  11
ENDBRANCH   1   8
BRANCH   3  17
ATOM     17  O   UNL     1       7.340   8.088  17.133  0.00  0.00    +0.000 OA
BRANCH  17  18
ATOM     18  C   UNL     1       8.259   8.162  18.250  0.00  0.00    +0.000 C 
BRANCH  18  19
ATOM     19  C   UNL     1       8.648   9.603  18.492  0.00  0.00    +0.000 A 
ATOM     20  C   UNL     1       8.302  10.596  17.564  0.00  0.00    +0.000 A 
ATOM     21  C   UNL     1       8.706  11.918  17.755  0.00  0.00    +0.000 A 
ATOM     22  C   UNL     1       9.422  12.269  18.898  0.00  0.00    +0.000 A 
ATOM     23  C   UNL     1       9.744  11.300  19.845  0.00  0.00    +0.000 A 
ATOM     24  C   UNL     1       9.363   9.972  19.643  0.00  0.00    +0.000 A 
ENDBRANCH  18  19
ENDBRANCH  17  18
ENDBRANCH   3  17
TORSDOF 5
ENDMDL
MODEL 7
REMARK VINA RESULT:      -7.7      1.498      8.545
REMARK  Name = 
REMARK  5 active torsions:
REMARK  status: ('A' for Active; 'I' for Inactive)
REMARK    1  A    between atoms: C_2  and  C_10
REMARK    2  A    between atoms: N_3  and  C_4
REMARK    3  A    between atoms: C_12  and  O_13
REMARK    4  A    between atoms: O_13  and  C_14
REMARK    5  A    between atoms: C_14  and  C_15
REMARK                            x       y       z     vdW  Elec       q    Type
REMARK                         _______ _______ _______ _____ _____    ______ ____
ROOT
ATOM      1  C   UNL     1       6.916   6.193  17.114  0.00  0.00    +0.000 A 
ATOM      2  C   UNL     1       5.632   5.945  17.523  0.00  0.00    +0.000 A 
ATOM      3  C   UNL     1       5.010   4.900  16.887  0.00  0.00    +0.000 A 
ATOM      4  N   UNL     1       5.608   4.179  15.931  0.00  0.00    +0.000 NA
ATOM      5  C   UNL     1       6.858   4.524  15.599  0.00  0.00    +0.000 A 
ATOM      6  N   UNL     1       7.556   5.524  16.131  0.00  0.00    +0.000 NA
ENDROOT
BRANCH   1   8
ATOM      7  O   UNL     1       8.345   6.867  18.823  0.00  0.00    +0.000 OA
ATOM      8  C   UNL     1       7.730   7.213  17.842  0.00  0.00    +0.000 C 
ATOM      9  N   UNL     1       7.643   8.522  17.332  0.00  0.00    +0.000 N 
ATOM     10  H   UNL     1       6.971   8.722  16.605  0.00  0.00    +0.000 HD
BRANCH   9  11
ATOM     11  C   UNL     1       8.271   9.617  17.969  0.00  0.00    +0.000 A 
ATOM     12  C   UNL     1       8.202  10.902  17.423  0.00  0.00    +0.000 A 
ATOM     13  C   UNL     1       8.861  11.969  18.024  0.00  0.00    +0.000 A 
ATOM     14  C   UNL     1       9.589  11.765  19.191  0.00  0.00    +0.000 A 
ATOM     15  C   UNL     1       9.652  10.496  19.759  0.00  0.00    +0.000 A 
ATOM     16  C   UNL     1       8.982   9.424  19.156  0.00  0.00    +0.000 A 
ENDBRANCH   9  11
ENDBRANCH   1   8
BRANCH   3  17
ATOM     17  O   UNL     1       3.711   4.561  17.215  0.00  0.00    +0.000 OA
BRANCH  17  18
ATOM     18  C   UNL     1       3.599   3.197  17.690  0.00  0.00    +0.000 C 
BRANCH  18  19
ATOM     19  C   UNL     1       2.818   3.174  18.984  0.00  0.00    +0.000 A 
ATOM     20  C   UNL     1       3.439   2.789  20.180  0.00  0.00    +0.000 A 
ATOM     21  C   UNL     1       2.709   2.713  21.367  0.00  0.00    +0.000 A 
ATOM     22  C   UNL     1       1.360   3.062  21.379  0.00  0.00    +0.000 A 
ATOM     23  C   UNL     1       0.737   3.479  20.204  0.00  0.00    +0.000 A 
ATOM     24  C   UNL     1       1.460   3.531  19.011  0.00  0.00    +0.000 A 
ENDBRANCH  18  19
ENDBRANCH  17  18
ENDBRANCH   3  17
TORSDOF 5
ENDMDL
MODEL 8
REMARK VINA RESULT:      -7.7      1.205      1.629
REMARK  Name = 
REMARK  5 active torsions:
REMARK  status: ('A' for Active; 'I' for Inactive)
REMARK    1  A    between atoms: C_2  and  C_10
REMARK    2  A    between atoms: N_3  and  C_4
REMARK    3  A    between atoms: C_12  and  O_13
REMARK    4  A    between atoms: O_13  and  C_14
REMARK    5  A    between atoms: C_14  and  C_15
REMARK                            x       y       z     vdW  Elec       q    Type
REMARK                         _______ _______ _______ _____ _____    ______ ____
ROOT
ATOM      1  C   UNL     1       5.803   4.959  17.390  0.00  0.00    +0.000 A 
ATOM      2  C   UNL     1       6.382   5.946  18.146  0.00  0.00    +0.000 A 
ATOM      3  C   UNL     1       7.353   6.673  17.508  0.00  0.00    +0.000 A 
ATOM      4  N   UNL     1       7.719   6.435  16.242  0.00  0.00    +0.000 NA
ATOM      5  C   UNL     1       7.098   5.434  15.607  0.00  0.00    +0.000 A 
ATOM      6  N   UNL     1       6.155   4.650  16.124  0.00  0.00    +0.000 NA
ENDROOT
BRANCH   1   8
ATOM      7  O   UNL     1       4.010   3.488  17.198  0.00  0.00    +0.000 OA
ATOM      8  C   UNL     1       4.635   4.206  17.942  0.00  0.00    +0.000 C 
ATOM      9  N   UNL     1       4.340   4.469  19.292  0.00  0.00    +0.000 N 
ATOM     10  H   UNL     1       4.834   5.210  19.768  0.00  0.00    +0.000 HD
BRANCH   9  11
ATOM     11  C   UNL     1       3.207   3.914  19.932  0.00  0.00    +0.000 A 
ATOM     12  C   UNL     1       1.924   4.411  19.677  0.00  0.00    +0.000 A 
ATOM     13  C   UNL     1       0.816   3.897  20.343  0.00  0.00    +0.000 A 
ATOM     14  C   UNL     1       0.977   2.867  21.264  0.00  0.00    +0.000 A 
ATOM     15  C   UNL     1       2.244   2.349  21.515  0.00  0.00    +0.000 A 
ATOM     16  C   UNL     1       3.358   2.862  20.838  0.00  0.00    +0.000 A 
ENDBRANCH   9  11
ENDBRANCH   1   8
BRANCH   3  17
ATOM     17  O   UNL     1       8.009   7.691  18.174  0.00  0.00    +0.000 OA
BRANCH  17  18
ATOM     18  C   UNL     1       7.947   8.949  17.459  0.00  0.00    +0.000 C 
BRANCH  18  19
ATOM     19  C   UNL     1       8.579  10.039  18.295  0.00  0.00    +0.000 A 
ATOM     20  C   UNL     1       8.626  11.358  17.823  0.00  0.00    +0.000 A 
ATOM     21  C   UNL     1       9.256  12.357  18.566  0.00  0.00    +0.000 A 
ATOM     22  C   UNL     1       9.809  12.055  19.809  0.00  0.00    +0.000 A 
ATOM     23  C   UNL     1       9.741  10.756  20.306  0.00  0.00    +0.000 A 
ATOM     24  C   UNL     1       9.133   9.750  19.553  0.00  0.00    +0.000 A 
ENDBRANCH  18  19
ENDBRANCH  17  18
ENDBRANCH   3  17
TORSDOF 5
ENDMDL
MODEL 9
REMARK VINA RESULT:      -7.6      3.465      5.463
REMARK  Name = 
REMARK  5 active torsions:
REMARK  status: ('A' for Active; 'I' for Inactive)
REMARK    1  A    between atoms: C_2  and  C_10
REMARK    2  A    between atoms: N_3  and  C_4
REMARK    3  A    between atoms: C_12  and  O_13
REMARK    4  A    between atoms: O_13  and  C_14
REMARK    5  A    between atoms: C_14  and  C_15
REMARK                            x       y       z     vdW  Elec       q    Type
REMARK                         _______ _______ _______ _____ _____    ______ ____
ROOT
ATOM      1  C   UNL     1       2.923   4.808  19.148  0.00  0.00    +0.000 A 
ATOM      2  C   UNL     1       3.503   5.171  17.960  0.00  0.00    +0.000 A 
ATOM      3  C   UNL     1       4.103   4.149  17.269  0.00  0.00    +0.000 A 
ATOM      4  N   UNL     1       4.130   2.890  17.723  0.00  0.00    +0.000 NA
ATOM      5  C   UNL     1       3.549   2.656  18.905  0.00  0.00    +0.000 A 
ATOM      6  N   UNL     1       2.952   3.565  19.672  0.00  0.00    +0.000 NA
ENDROOT
BRANCH   1   8
ATOM      7  O   UNL     1       1.269   5.417  20.668  0.00  0.00    +0.000 OA
ATOM      8  C   UNL     1       2.119   5.815  19.907  0.00  0.00    +0.000 C 
ATOM      9  N   UNL     1       2.401   7.158  19.598  0.00  0.00    +0.000 N 
ATOM     10  H   UNL     1       3.020   7.366  18.828  0.00  0.00    +0.000 HD
BRANCH   9  11
ATOM     11  C   UNL     1       1.657   8.225  20.154  0.00  0.00    +0.000 A 
ATOM     12  C   UNL     1       1.410   8.289  21.529  0.00  0.00    +0.000 A 
ATOM     13  C   UNL     1       0.637   9.312  22.068  0.00  0.00    +0.000 A 
ATOM     14  C   UNL     1       0.112  10.295  21.237  0.00  0.00    +0.000 A 
ATOM     15  C   UNL     1       0.364  10.257  19.868  0.00  0.00    +0.000 A 
ATOM     16  C   UNL     1       1.148   9.230  19.328  0.00  0.00    +0.000 A 
ENDBRANCH   9  11
ENDBRANCH   1   8
BRANCH   3  17
ATOM     17  O   UNL     1       4.722   4.399  16.059  0.00  0.00    +0.000 OA
BRANCH  17  18
ATOM     18  C   UNL     1       6.142   4.118  16.097  0.00  0.00    +0.000 C 
BRANCH  18  19
ATOM     19  C   UNL     1       6.837   5.138  16.972  0.00  0.00    +0.000 A 
ATOM     20  C   UNL     1       7.444   4.744  18.173  0.00  0.00    +0.000 A 
ATOM     21  C   UNL     1       8.038   5.689  19.011  0.00  0.00    +0.000 A 
ATOM     22  C   UNL     1       8.069   7.031  18.636  0.00  0.00    +0.000 A 
ATOM     23  C   UNL     1       7.499   7.431  17.430  0.00  0.00    +0.000 A 
ATOM     24  C   UNL     1       6.882   6.491  16.602  0.00  0.00    +0.000 A 
ENDBRANCH  18  19
ENDBRANCH  17  18
ENDBRANCH   3  17
TORSDOF 5
ENDMDL
