MODEL 1
REMARK VINA RESULT:      -8.1      0.000      0.000
REMARK  Name = 
REMARK  6 active torsions:
REMARK  status: ('A' for Active; 'I' for Inactive)
REMARK    1  A    between atoms: C_1  and  C_2
REMARK    2  A    between atoms: C_8  and  N_9
REMARK    3  A    between atoms: C_10  and  S_11
REMARK    4  A    between atoms: N_12  and  C_13
REMARK    5  A    between atoms: C_16  and  S_17
REMARK    6  A    between atoms: S_17  and  N_20
REMARK                            x       y       z     vdW  Elec       q    Type
REMARK                         _______ _______ _______ _____ _____    ______ ____
ROOT
ATOM      1  C   UNL     1       1.338  10.170  19.090  0.00  0.00    +0.000 A 
ATOM      2  C   UNL     1       1.812   9.488  17.963  0.00  0.00    +0.000 A 
ATOM      3  C   UNL     1       2.153   8.139  18.017  0.00  0.00    +0.000 A 
ATOM      4  C   UNL     1       2.068   7.451  19.227  0.00  0.00    +0.000 A 
ATOM      5  C   UNL     1       1.568   8.088  20.361  0.00  0.00    +0.000 A 
ATOM      6  C   UNL     1       1.207   9.440  20.287  0.00  0.00    +0.000 A 
ENDROOT
BRANCH   1   9
ATOM      7  N   UNL     1      -1.392  11.341  18.648  0.00  0.00    +0.000 NA
ATOM      8  C   UNL     1      -0.323  12.045  18.813  0.00  0.00    +0.000 C 
ATOM      9  N   UNL     1       0.925  11.518  19.065  0.00  0.00    +0.000 N 
ATOM     10  H   UNL     1       1.673  12.197  19.115  0.00  0.00    +0.000 HD
BRANCH   7  18
ATOM     11  C   UNL     1      -3.452  12.636  20.527  0.00  0.00    +0.000 C 
ATOM     12  C   UNL     1      -3.743  12.093  19.158  0.00  0.00    +0.000 A 
ATOM     13  C   UNL     1      -5.080  12.020  18.694  0.00  0.00    +0.000 A 
ATOM     14 CL   UNL     1      -6.432  12.512  19.664  0.00  0.00    +0.000 Cl
ATOM     15  C   UNL     1      -5.395  11.502  17.434  0.00  0.00    +0.000 A 
ATOM     16  C   UNL     1      -4.383  11.090  16.585  0.00  0.00    +0.000 A 
ATOM     17  C   UNL     1      -3.061  11.179  17.017  0.00  0.00    +0.000 A 
ATOM     18  C   UNL     1      -2.711  11.653  18.299  0.00  0.00    +0.000 A 
ENDBRANCH   7  18
BRANCH   8  19
ATOM     19  S   UNL     1      -0.249  13.791  18.765  0.00  0.00    +0.000 S 
ATOM     20  H   UNL     1      -1.260  13.901  17.887  0.00  0.00    +0.000 HD
ENDBRANCH   8  19
ENDBRANCH   1   9
BRANCH   4  21
ATOM     21  S   UNL     1       2.533   5.742  19.284  0.00  0.00    +0.000 S 
ATOM     22  O   UNL     1       2.159   5.223  20.582  0.00  0.00    +0.000 OA
ATOM     23  O   UNL     1       2.036   5.101  18.080  0.00  0.00    +0.000 OA
BRANCH  21  24
ATOM     24  N   UNL     1       4.225   5.705  19.224  0.00  0.00    +0.000 N 
ATOM     25  C   UNL     1       4.729   5.433  17.948  0.00  0.00    +0.000 A 
ATOM     26  N   UNL     1       4.920   6.465  17.129  0.00  0.00    +0.000 NA
ATOM     27  C   UNL     1       5.302   6.144  15.880  0.00  0.00    +0.000 A 
ATOM     28  C   UNL     1       5.481   4.849  15.452  0.00  0.00    +0.000 A 
ATOM     29  C   UNL     1       5.258   3.873  16.398  0.00  0.00    +0.000 A 
ATOM     30  N   UNL     1       4.889   4.140  17.665  0.00  0.00    +0.000 NA
ATOM     31  H   UNL     1       4.501   4.914  19.798  0.00  0.00    +0.000 HD
ENDBRANCH  21  24
ENDBRANCH   4  21
TORSDOF 5
ENDMDL
MODEL 2
REMARK VINA RESULT:      -8.0      1.039      1.680
REMARK  Name = 
REMARK  6 active torsions:
REMARK  status: ('A' for Active; 'I' for Inactive)
REMARK    1  A    between atoms: C_1  and  C_2
REMARK    2  A    between atoms: C_8  and  N_9
REMARK    3  A    between atoms: C_10  and  S_11
REMARK    4  A    between atoms: N_12  and  C_13
REMARK    5  A    between atoms: C_16  and  S_17
REMARK    6  A    between atoms: S_17  and  N_20
REMARK                            x       y       z     vdW  Elec       q    Type
REMARK                         _______ _______ _______ _____ _____    ______ ____
ROOT
ATOM      1  C   UNL     1       1.391   9.973  19.055  0.00  0.00    +0.000 A 
ATOM      2  C   UNL     1       1.364   9.141  20.182  0.00  0.00    +0.000 A 
ATOM      3  C   UNL     1       1.823   7.828  20.130  0.00  0.00    +0.000 A 
ATOM      4  C   UNL     1       2.280   7.301  18.923  0.00  0.00    +0.000 A 
ATOM      5  C   UNL     1       2.354   8.108  17.790  0.00  0.00    +0.000 A 
ATOM      6  C   UNL     1       1.910   9.436  17.862  0.00  0.00    +0.000 A 
ENDROOT
BRANCH   1   9
ATOM      7  N   UNL     1      -1.301  11.198  18.536  0.00  0.00    +0.000 NA
ATOM      8  C   UNL     1      -0.235  11.880  18.792  0.00  0.00    +0.000 C 
ATOM      9  N   UNL     1       0.993  11.325  19.078  0.00  0.00    +0.000 N 
ATOM     10  H   UNL     1       1.745  11.992  19.201  0.00  0.00    +0.000 HD
BRANCH   7  18
ATOM     11  C   UNL     1      -3.390  12.564  20.330  0.00  0.00    +0.000 C 
ATOM     12  C   UNL     1      -3.647  12.018  18.955  0.00  0.00    +0.000 A 
ATOM     13  C   UNL     1      -4.968  11.979  18.444  0.00  0.00    +0.000 A 
ATOM     14 CL   UNL     1      -6.340  12.515  19.361  0.00  0.00    +0.000 Cl
ATOM     15  C   UNL     1      -5.252  11.459  17.177  0.00  0.00    +0.000 A 
ATOM     16  C   UNL     1      -4.221  11.013  16.368  0.00  0.00    +0.000 A 
ATOM     17  C   UNL     1      -2.914  11.068  16.847  0.00  0.00    +0.000 A 
ATOM     18  C   UNL     1      -2.598  11.543  18.138  0.00  0.00    +0.000 A 
ENDBRANCH   7  18
BRANCH   8  19
ATOM     19  S   UNL     1      -0.142  13.625  18.838  0.00  0.00    +0.000 S 
ATOM     20  H   UNL     1       1.171  13.639  19.125  0.00  0.00    +0.000 HD
ENDBRANCH   8  19
ENDBRANCH   1   9
BRANCH   4  21
ATOM     21  S   UNL     1       2.834   5.618  18.869  0.00  0.00    +0.000 S 
ATOM     22  O   UNL     1       3.855   5.454  19.881  0.00  0.00    +0.000 OA
ATOM     23  O   UNL     1       1.664   4.760  18.878  0.00  0.00    +0.000 OA
BRANCH  21  24
ATOM     24  N   UNL     1       3.606   5.418  17.374  0.00  0.00    +0.000 N 
ATOM     25  C   UNL     1       4.997   5.543  17.448  0.00  0.00    +0.000 A 
ATOM     26  N   UNL     1       5.698   4.449  17.733  0.00  0.00    +0.000 NA
ATOM     27  C   UNL     1       7.020   4.641  17.898  0.00  0.00    +0.000 A 
ATOM     28  C   UNL     1       7.625   5.871  17.794  0.00  0.00    +0.000 A 
ATOM     29  C   UNL     1       6.789   6.922  17.488  0.00  0.00    +0.000 A 
ATOM     30  N   UNL     1       5.463   6.783  17.298  0.00  0.00    +0.000 NA
ATOM     31  H   UNL     1       3.294   6.196  16.801  0.00  0.00    +0.000 HD
ENDBRANCH  21  24
ENDBRANCH   4  21
TORSDOF 5
ENDMDL
MODEL 3
REMARK VINA RESULT:      -7.9      2.102      2.656
REMARK  Name = 
REMARK  6 active torsions:
REMARK  status: ('A' for Active; 'I' for Inactive)
REMARK    1  A    between atoms: C_1  and  C_2
REMARK    2  A    between atoms: C_8  and  N_9
REMARK    3  A    between atoms: C_10  and  S_11
REMARK    4  A    between atoms: N_12  and  C_13
REMARK    5  A    between atoms: C_16  and  S_17
REMARK    6  A    between atoms: S_17  and  N_20
REMARK                            x       y       z     vdW  Elec       q    Type
REMARK                         _______ _______ _______ _____ _____    ______ ____
ROOT
ATOM      1  C   UNL     1       2.238   7.434  18.796  0.00  0.00    +0.000 A 
ATOM      2  C   UNL     1       2.050   6.506  17.764  0.00  0.00    +0.000 A 
ATOM      3  C   UNL     1       1.837   5.156  18.026  0.00  0.00    +0.000 A 
ATOM      4  C   UNL     1       1.854   4.695  19.342  0.00  0.00    +0.000 A 
ATOM      5  C   UNL     1       2.003   5.593  20.396  0.00  0.00    +0.000 A 
ATOM      6  C   UNL     1       2.194   6.954  20.119  0.00  0.00    +0.000 A 
ENDROOT
BRANCH   1   9
ATOM      7  N   UNL     1       0.167   9.593  18.535  0.00  0.00    +0.000 NA
ATOM      8  C   UNL     1       1.437   9.792  18.411  0.00  0.00    +0.000 C 
ATOM      9  N   UNL     1       2.397   8.817  18.577  0.00  0.00    +0.000 N 
ATOM     10  H   UNL     1       3.346   9.116  18.392  0.00  0.00    +0.000 HD
BRANCH   7  18
ATOM     11  C   UNL     1      -0.835  11.766  20.464  0.00  0.00    +0.000 C 
ATOM     12  C   UNL     1      -1.561  11.286  19.240  0.00  0.00    +0.000 A 
ATOM     13  C   UNL     1      -2.879  11.735  18.977  0.00  0.00    +0.000 A 
ATOM     14 CL   UNL     1      -3.726  12.816  20.037  0.00  0.00    +0.000 Cl
ATOM     15  C   UNL     1      -3.597  11.296  17.859  0.00  0.00    +0.000 A 
ATOM     16  C   UNL     1      -3.002  10.437  16.952  0.00  0.00    +0.000 A 
ATOM     17  C   UNL     1      -1.697  10.006  17.185  0.00  0.00    +0.000 A 
ATOM     18  C   UNL     1      -0.961  10.393  18.324  0.00  0.00    +0.000 A 
ENDBRANCH   7  18
BRANCH   8  19
ATOM     19  S   UNL     1       2.184  11.325  18.026  0.00  0.00    +0.000 S 
ATOM     20  H   UNL     1       1.012  11.946  17.810  0.00  0.00    +0.000 HD
ENDBRANCH   8  19
ENDBRANCH   1   9
BRANCH   4  21
ATOM     21  S   UNL     1       1.609   2.968  19.657  0.00  0.00    +0.000 S 
ATOM     22  O   UNL     1       1.215   2.821  21.041  0.00  0.00    +0.000 OA
ATOM     23  O   UNL     1       0.763   2.436  18.605  0.00  0.00    +0.000 OA
BRANCH  21  24
ATOM     24  N   UNL     1       3.129   2.236  19.512  0.00  0.00    +0.000 N 
ATOM     25  C   UNL     1       4.055   3.015  18.810  0.00  0.00    +0.000 A 
ATOM     26  N   UNL     1       4.767   3.899  19.506  0.00  0.00    +0.000 NA
ATOM     27  C   UNL     1       5.565   4.698  18.773  0.00  0.00    +0.000 A 
ATOM     28  C   UNL     1       5.649   4.632  17.402  0.00  0.00    +0.000 A 
ATOM     29  C   UNL     1       4.866   3.669  16.803  0.00  0.00    +0.000 A 
ATOM     30  N   UNL     1       4.063   2.835  17.489  0.00  0.00    +0.000 NA
ATOM     31  H   UNL     1       2.980   1.411  18.939  0.00  0.00    +0.000 HD
ENDBRANCH  21  24
ENDBRANCH   4  21
TORSDOF 5
ENDMDL
MODEL 4
REMARK VINA RESULT:      -7.7      1.996      2.762
REMARK  Name = 
REMARK  6 active torsions:
REMARK  status: ('A' for Active; 'I' for Inactive)
REMARK    1  A    between atoms: C_1  and  C_2
REMARK    2  A    between atoms: C_8  and  N_9
REMARK    3  A    between atoms: C_10  and  S_11
REMARK    4  A    between atoms: N_12  and  C_13
REMARK    5  A    between atoms: C_16  and  S_17
REMARK    6  A    between atoms: S_17  and  N_20
REMARK                            x       y       z     vdW  Elec       q    Type
REMARK                         _______ _______ _______ _____ _____    ______ ____
ROOT
ATOM      1  C   UNL     1       0.991  10.492  19.438  0.00  0.00    +0.000 A 
ATOM      2  C   UNL     1       1.060   9.437  20.356  0.00  0.00    +0.000 A 
ATOM      3  C   UNL     1       1.675   8.231  20.036  0.00  0.00    +0.000 A 
ATOM      4  C   UNL     1       2.199   8.038  18.759  0.00  0.00    +0.000 A 
ATOM      5  C   UNL     1       2.180   9.077  17.830  0.00  0.00    +0.000 A 
ATOM      6  C   UNL     1       1.577  10.295  18.174  0.00  0.00    +0.000 A 
ENDROOT
BRANCH   1   9
ATOM      7  N   UNL     1      -1.803  11.511  19.013  0.00  0.00    +0.000 NA
ATOM      8  C   UNL     1      -0.841  12.223  19.498  0.00  0.00    +0.000 C 
ATOM      9  N   UNL     1       0.431  11.750  19.741  0.00  0.00    +0.000 N 
ATOM     10  H   UNL     1       1.089  12.445  20.070  0.00  0.00    +0.000 HD
BRANCH   7  18
ATOM     11  C   UNL     1      -4.036  12.526  20.864  0.00  0.00    +0.000 C 
ATOM     12  C   UNL     1      -4.214  12.109  19.433  0.00  0.00    +0.000 A 
ATOM     13  C   UNL     1      -5.514  12.027  18.876  0.00  0.00    +0.000 A 
ATOM     14 CL   UNL     1      -6.947  12.363  19.795  0.00  0.00    +0.000 Cl
ATOM     15  C   UNL     1      -5.724  11.624  17.553  0.00  0.00    +0.000 A 
ATOM     16  C   UNL     1      -4.642  11.340  16.739  0.00  0.00    +0.000 A 
ATOM     17  C   UNL     1      -3.355  11.441  17.265  0.00  0.00    +0.000 A 
ATOM     18  C   UNL     1      -3.110  11.800  18.607  0.00  0.00    +0.000 A 
ENDBRANCH   7  18
BRANCH   8  19
ATOM     19  S   UNL     1      -0.963  13.907  19.950  0.00  0.00    +0.000 S 
ATOM     20  H   UNL     1      -0.352  14.345  18.836  0.00  0.00    +0.000 HD
ENDBRANCH   8  19
ENDBRANCH   1   9
BRANCH   4  21
ATOM     21  S   UNL     1       2.955   6.485  18.359  0.00  0.00    +0.000 S 
ATOM     22  O   UNL     1       1.913   5.588  17.909  0.00  0.00    +0.000 OA
ATOM     23  O   UNL     1       4.098   6.749  17.506  0.00  0.00    +0.000 OA
BRANCH  21  24
ATOM     24  N   UNL     1       3.538   5.849  19.816  0.00  0.00    +0.000 N 
ATOM     25  C   UNL     1       2.981   4.608  20.141  0.00  0.00    +0.000 A 
ATOM     26  N   UNL     1       3.576   3.521  19.658  0.00  0.00    +0.000 NA
ATOM     27  C   UNL     1       2.943   2.360  19.908  0.00  0.00    +0.000 A 
ATOM     28  C   UNL     1       1.760   2.278  20.603  0.00  0.00    +0.000 A 
ATOM     29  C   UNL     1       1.251   3.475  21.057  0.00  0.00    +0.000 A 
ATOM     30  N   UNL     1       1.850   4.662  20.848  0.00  0.00    +0.000 NA
ATOM     31  H   UNL     1       3.219   6.487  20.538  0.00  0.00    +0.000 HD
ENDBRANCH  21  24
ENDBRANCH   4  21
TORSDOF 5
ENDMDL
MODEL 5
REMARK VINA RESULT:      -7.7      1.083      1.443
REMARK  Name = 
REMARK  6 active torsions:
REMARK  status: ('A' for Active; 'I' for Inactive)
REMARK    1  A    between atoms: C_1  and  C_2
REMARK    2  A    between atoms: C_8  and  N_9
REMARK    3  A    between atoms: C_10  and  S_11
REMARK    4  A    between atoms: N_12  and  C_13
REMARK    5  A    between atoms: C_16  and  S_17
REMARK    6  A    between atoms: S_17  and  N_20
REMARK                            x       y       z     vdW  Elec       q    Type
REMARK                         _______ _______ _______ _____ _____    ______ ____
ROOT
ATOM      1  C   UNL     1       1.477   9.780  19.203  0.00  0.00    +0.000 A 
ATOM      2  C   UNL     1       1.819   9.169  17.990  0.00  0.00    +0.000 A 
ATOM      3  C   UNL     1       2.192   7.829  17.928  0.00  0.00    +0.000 A 
ATOM      4  C   UNL     1       2.276   7.079  19.100  0.00  0.00    +0.000 A 
ATOM      5  C   UNL     1       1.910   7.643  20.320  0.00  0.00    +0.000 A 
ATOM      6  C   UNL     1       1.514   8.987  20.365  0.00  0.00    +0.000 A 
ENDROOT
BRANCH   1   9
ATOM      7  N   UNL     1      -1.146  11.007  18.405  0.00  0.00    +0.000 NA
ATOM      8  C   UNL     1      -0.153  11.677  18.888  0.00  0.00    +0.000 C 
ATOM      9  N   UNL     1       1.036  11.116  19.302  0.00  0.00    +0.000 N 
ATOM     10  H   UNL     1       1.738  11.778  19.605  0.00  0.00    +0.000 HD
BRANCH   7  18
ATOM     11  C   UNL     1      -3.494  12.222  19.974  0.00  0.00    +0.000 C 
ATOM     12  C   UNL     1      -3.542  11.776  18.541  0.00  0.00    +0.000 A 
ATOM     13  C   UNL     1      -4.776  11.764  17.844  0.00  0.00    +0.000 A 
ATOM     14 CL   UNL     1      -6.273  12.221  18.590  0.00  0.00    +0.000 Cl
ATOM     15  C   UNL     1      -4.866  11.337  16.515  0.00  0.00    +0.000 A 
ATOM     16  C   UNL     1      -3.723  10.959  15.833  0.00  0.00    +0.000 A 
ATOM     17  C   UNL     1      -2.498  10.990  16.498  0.00  0.00    +0.000 A 
ATOM     18  C   UNL     1      -2.378  11.371  17.851  0.00  0.00    +0.000 A 
ENDBRANCH   7  18
BRANCH   8  19
ATOM     19  S   UNL     1      -0.124  13.408  19.124  0.00  0.00    +0.000 S 
ATOM     20  H   UNL     1       0.888  13.602  18.262  0.00  0.00    +0.000 HD
ENDBRANCH   8  19
ENDBRANCH   1   9
BRANCH   4  21
ATOM     21  S   UNL     1       2.780   5.382  19.007  0.00  0.00    +0.000 S 
ATOM     22  O   UNL     1       3.869   5.191  19.939  0.00  0.00    +0.000 OA
ATOM     23  O   UNL     1       1.591   4.555  19.105  0.00  0.00    +0.000 OA
BRANCH  21  24
ATOM     24  N   UNL     1       3.431   5.162  17.459  0.00  0.00    +0.000 N 
ATOM     25  C   UNL     1       4.819   5.334  17.412  0.00  0.00    +0.000 A 
ATOM     26  N   UNL     1       5.578   4.271  17.666  0.00  0.00    +0.000 NA
ATOM     27  C   UNL     1       6.902   4.510  17.716  0.00  0.00    +0.000 A 
ATOM     28  C   UNL     1       7.454   5.755  17.528  0.00  0.00    +0.000 A 
ATOM     29  C   UNL     1       6.559   6.770  17.265  0.00  0.00    +0.000 A 
ATOM     30  N   UNL     1       5.228   6.583  17.190  0.00  0.00    +0.000 NA
ATOM     31  H   UNL     1       3.046   5.912  16.893  0.00  0.00    +0.000 HD
ENDBRANCH  21  24
ENDBRANCH   4  21
TORSDOF 5
ENDMDL
MODEL 6
REMARK VINA RESULT:      -7.6      1.637      2.294
REMARK  Name = 
REMARK  6 active torsions:
REMARK  status: ('A' for Active; 'I' for Inactive)
REMARK    1  A    between atoms: C_1  and  C_2
REMARK    2  A    between atoms: C_8  and  N_9
REMARK    3  A    between atoms: C_10  and  S_11
REMARK    4  A    between atoms: N_12  and  C_13
REMARK    5  A    between atoms: C_16  and  S_17
REMARK    6  A    between atoms: S_17  and  N_20
REMARK                            x       y       z     vdW  Elec       q    Type
REMARK                         _______ _______ _______ _____ _____    ______ ____
ROOT
ATOM      1  C   UNL     1       1.083  10.377  19.305  0.00  0.00    +0.000 A 
ATOM      2  C   UNL     1       0.942   9.651  20.494  0.00  0.00    +0.000 A 
ATOM      3  C   UNL     1       1.404   8.342  20.609  0.00  0.00    +0.000 A 
ATOM      4  C   UNL     1       1.980   7.712  19.508  0.00  0.00    +0.000 A 
ATOM      5  C   UNL     1       2.169   8.414  18.319  0.00  0.00    +0.000 A 
ATOM      6  C   UNL     1       1.720   9.738  18.224  0.00  0.00    +0.000 A 
ENDROOT
BRANCH   1   9
ATOM      7  N   UNL     1      -1.648  11.540  18.852  0.00  0.00    +0.000 NA
ATOM      8  C   UNL     1      -0.565  12.241  18.909  0.00  0.00    +0.000 C 
ATOM      9  N   UNL     1       0.685  11.722  19.165  0.00  0.00    +0.000 N 
ATOM     10  H   UNL     1       1.443  12.391  19.121  0.00  0.00    +0.000 HD
BRANCH   7  18
ATOM     11  C   UNL     1      -3.705  12.773  20.774  0.00  0.00    +0.000 C 
ATOM     12  C   UNL     1      -4.004  12.247  19.400  0.00  0.00    +0.000 A 
ATOM     13  C   UNL     1      -5.345  12.161  18.951  0.00  0.00    +0.000 A 
ATOM     14 CL   UNL     1      -6.693  12.616  19.943  0.00  0.00    +0.000 Cl
ATOM     15  C   UNL     1      -5.666  11.658  17.685  0.00  0.00    +0.000 A 
ATOM     16  C   UNL     1      -4.657  11.275  16.819  0.00  0.00    +0.000 A 
ATOM     17  C   UNL     1      -3.332  11.378  17.238  0.00  0.00    +0.000 A 
ATOM     18  C   UNL     1      -2.975  11.837  18.523  0.00  0.00    +0.000 A 
ENDBRANCH   7  18
BRANCH   8  19
ATOM     19  S   UNL     1      -0.473  13.973  18.690  0.00  0.00    +0.000 S 
ATOM     20  H   UNL     1      -1.530  14.222  19.482  0.00  0.00    +0.000 HD
ENDBRANCH   8  19
ENDBRANCH   1   9
BRANCH   4  21
ATOM     21  S   UNL     1       2.537   6.036  19.663  0.00  0.00    +0.000 S 
ATOM     22  O   UNL     1       3.980   6.037  19.560  0.00  0.00    +0.000 OA
ATOM     23  O   UNL     1       1.896   5.457  20.830  0.00  0.00    +0.000 OA
BRANCH  21  24
ATOM     24  N   UNL     1       1.960   5.214  18.300  0.00  0.00    +0.000 N 
ATOM     25  C   UNL     1       2.401   3.888  18.224  0.00  0.00    +0.000 A 
ATOM     26  N   UNL     1       1.675   2.962  18.845  0.00  0.00    +0.000 NA
ATOM     27  C   UNL     1       2.196   1.721  18.835  0.00  0.00    +0.000 A 
ATOM     28  C   UNL     1       3.396   1.410  18.240  0.00  0.00    +0.000 A 
ATOM     29  C   UNL     1       4.046   2.457  17.625  0.00  0.00    +0.000 A 
ATOM     30  N   UNL     1       3.562   3.713  17.592  0.00  0.00    +0.000 NA
ATOM     31  H   UNL     1       2.376   5.684  17.502  0.00  0.00    +0.000 HD
ENDBRANCH  21  24
ENDBRANCH   4  21
TORSDOF 5
ENDMDL
MODEL 7
REMARK VINA RESULT:      -7.6      1.543      2.216
REMARK  Name = 
REMARK  6 active torsions:
REMARK  status: ('A' for Active; 'I' for Inactive)
REMARK    1  A    between atoms: C_1  and  C_2
REMARK    2  A    between atoms: C_8  and  N_9
REMARK    3  A    between atoms: C_10  and  S_11
REMARK    4  A    between atoms: N_12  and  C_13
REMARK    5  A    between atoms: C_16  and  S_17
REMARK    6  A    between atoms: S_17  and  N_20
REMARK                            x       y       z     vdW  Elec       q    Type
REMARK                         _______ _______ _______ _____ _____    ______ ____
ROOT
ATOM      1  C   UNL     1       1.284  10.185  18.877  0.00  0.00    +0.000 A 
ATOM      2  C   UNL     1       1.169   9.513  20.100  0.00  0.00    +0.000 A 
ATOM      3  C   UNL     1       1.560   8.185  20.243  0.00  0.00    +0.000 A 
ATOM      4  C   UNL     1       2.037   7.482  19.138  0.00  0.00    +0.000 A 
ATOM      5  C   UNL     1       2.199   8.127  17.914  0.00  0.00    +0.000 A 
ATOM      6  C   UNL     1       1.822   9.471  17.789  0.00  0.00    +0.000 A 
ENDROOT
BRANCH   1   9
ATOM      7  N   UNL     1      -0.938  11.800  20.089  0.00  0.00    +0.000 NA
ATOM      8  C   UNL     1      -0.095  12.265  19.229  0.00  0.00    +0.000 C 
ATOM      9  N   UNL     1       0.957  11.546  18.704  0.00  0.00    +0.000 N 
ATOM     10  H   UNL     1       1.496  12.031  17.998  0.00  0.00    +0.000 HD
BRANCH   7  18
ATOM     11  C   UNL     1      -1.310  12.369  23.087  0.00  0.00    +0.000 C 
ATOM     12  C   UNL     1      -2.392  12.436  22.048  0.00  0.00    +0.000 A 
ATOM     13  C   UNL     1      -3.738  12.638  22.440  0.00  0.00    +0.000 A 
ATOM     14 CL   UNL     1      -4.214  12.789  24.101  0.00  0.00    +0.000 Cl
ATOM     15  C   UNL     1      -4.777  12.686  21.504  0.00  0.00    +0.000 A 
ATOM     16  C   UNL     1      -4.494  12.582  20.154  0.00  0.00    +0.000 A 
ATOM     17  C   UNL     1      -3.172  12.407  19.752  0.00  0.00    +0.000 A 
ATOM     18  C   UNL     1      -2.105  12.309  20.670  0.00  0.00    +0.000 A 
ENDBRANCH   7  18
BRANCH   8  19
ATOM     19  S   UNL     1      -0.111  13.886  18.576  0.00  0.00    +0.000 S 
ATOM     20  H   UNL     1      -1.216  13.677  17.839  0.00  0.00    +0.000 HD
ENDBRANCH   8  19
ENDBRANCH   1   9
BRANCH   4  21
ATOM     21  S   UNL     1       2.505   5.783  19.331  0.00  0.00    +0.000 S 
ATOM     22  O   UNL     1       2.128   5.368  20.665  0.00  0.00    +0.000 OA
ATOM     23  O   UNL     1       2.013   5.048  18.180  0.00  0.00    +0.000 OA
BRANCH  21  24
ATOM     24  N   UNL     1       4.197   5.745  19.278  0.00  0.00    +0.000 N 
ATOM     25  C   UNL     1       4.706   5.462  18.006  0.00  0.00    +0.000 A 
ATOM     26  N   UNL     1       4.901   6.486  17.180  0.00  0.00    +0.000 NA
ATOM     27  C   UNL     1       5.289   6.153  15.934  0.00  0.00    +0.000 A 
ATOM     28  C   UNL     1       5.469   4.855  15.519  0.00  0.00    +0.000 A 
ATOM     29  C   UNL     1       5.242   3.888  16.473  0.00  0.00    +0.000 A 
ATOM     30  N   UNL     1       4.867   4.166  17.736  0.00  0.00    +0.000 NA
ATOM     31  H   UNL     1       4.470   4.959  19.860  0.00  0.00    +0.000 HD
ENDBRANCH  21  24
ENDBRANCH   4  21
TORSDOF 5
ENDMDL
MODEL 8
REMARK VINA RESULT:      -7.6      0.667      1.787
REMARK  Name = 
REMARK  6 active torsions:
REMARK  status: ('A' for Active; 'I' for Inactive)
REMARK    1  A    between atoms: C_1  and  C_2
REMARK    2  A    between atoms: C_8  and  N_9
REMARK    3  A    between atoms: C_10  and  S_11
REMARK    4  A    between atoms: N_12  and  C_13
REMARK    5  A    between atoms: C_16  and  S_17
REMARK    6  A    between atoms: S_17  and  N_20
REMARK                            x       y       z     vdW  Elec       q    Type
REMARK                         _______ _______ _______ _____ _____    ______ ____
ROOT
ATOM      1  C   UNL     1       1.285  10.089  18.972  0.00  0.00    +0.000 A 
ATOM      2  C   UNL     1       1.210   9.359  20.165  0.00  0.00    +0.000 A 
ATOM      3  C   UNL     1       1.662   8.045  20.245  0.00  0.00    +0.000 A 
ATOM      4  C   UNL     1       2.160   7.414  19.107  0.00  0.00    +0.000 A 
ATOM      5  C   UNL     1       2.282   8.119  17.912  0.00  0.00    +0.000 A 
ATOM      6  C   UNL     1       1.845   9.449  17.851  0.00  0.00    +0.000 A 
ENDROOT
BRANCH   1   9
ATOM      7  N   UNL     1      -1.420  11.348  19.318  0.00  0.00    +0.000 NA
ATOM      8  C   UNL     1      -0.359  12.000  18.977  0.00  0.00    +0.000 C 
ATOM      9  N   UNL     1       0.895  11.440  18.863  0.00  0.00    +0.000 N 
ATOM     10  H   UNL     1       1.615  12.069  18.532  0.00  0.00    +0.000 HD
BRANCH   7  18
ATOM     11  C   UNL     1      -3.529  10.722  17.171  0.00  0.00    +0.000 C 
ATOM     12  C   UNL     1      -3.751  11.573  18.388  0.00  0.00    +0.000 A 
ATOM     13  C   UNL     1      -4.969  12.281  18.543  0.00  0.00    +0.000 A 
ATOM     14 CL   UNL     1      -6.233  12.236  17.356  0.00  0.00    +0.000 Cl
ATOM     15  C   UNL     1      -5.207  13.100  19.652  0.00  0.00    +0.000 A 
ATOM     16  C   UNL     1      -4.259  13.194  20.656  0.00  0.00    +0.000 A 
ATOM     17  C   UNL     1      -3.067  12.484  20.529  0.00  0.00    +0.000 A 
ATOM     18  C   UNL     1      -2.776  11.685  19.403  0.00  0.00    +0.000 A 
ENDBRANCH   7  18
BRANCH   8  19
ATOM     19  S   UNL     1      -0.300  13.708  18.609  0.00  0.00    +0.000 S 
ATOM     20  H   UNL     1       0.478  13.541  17.525  0.00  0.00    +0.000 HD
ENDBRANCH   8  19
ENDBRANCH   1   9
BRANCH   4  21
ATOM     21  S   UNL     1       2.705   5.730  19.220  0.00  0.00    +0.000 S 
ATOM     22  O   UNL     1       2.409   5.257  20.555  0.00  0.00    +0.000 OA
ATOM     23  O   UNL     1       2.189   5.013  18.069  0.00  0.00    +0.000 OA
BRANCH  21  24
ATOM     24  N   UNL     1       4.393   5.765  19.088  0.00  0.00    +0.000 N 
ATOM     25  C   UNL     1       4.855   5.454  17.805  0.00  0.00    +0.000 A 
ATOM     26  N   UNL     1       4.964   6.452  16.932  0.00  0.00    +0.000 NA
ATOM     27  C   UNL     1       5.309   6.087  15.683  0.00  0.00    +0.000 A 
ATOM     28  C   UNL     1       5.530   4.782  15.310  0.00  0.00    +0.000 A 
ATOM     29  C   UNL     1       5.392   3.845  16.310  0.00  0.00    +0.000 A 
ATOM     30  N   UNL     1       5.064   4.156  17.578  0.00  0.00    +0.000 NA
ATOM     31  H   UNL     1       4.728   5.017  19.687  0.00  0.00    +0.000 HD
ENDBRANCH  21  24
ENDBRANCH   4  21
TORSDOF 5
ENDMDL
MODEL 9
REMARK VINA RESULT:      -7.5      7.341      9.522
REMARK  Name = 
REMARK  6 active torsions:
REMARK  status: ('A' for Active; 'I' for Inactive)
REMARK    1  A    between atoms: C_1  and  C_2
REMARK    2  A    between atoms: C_8  and  N_9
REMARK    3  A    between atoms: C_10  and  S_11
REMARK    4  A    between atoms: N_12  and  C_13
REMARK    5  A    between atoms: C_16  and  S_17
REMARK    6  A    between atoms: S_17  and  N_20
REMARK                            x       y       z     vdW  Elec       q    Type
REMARK                         _______ _______ _______ _____ _____    ______ ____
ROOT
ATOM      1  C   UNL     1       8.576   8.678  18.861  0.00  0.00    +0.000 A 
ATOM      2  C   UNL     1       7.909   8.975  17.666  0.00  0.00    +0.000 A 
ATOM      3  C   UNL     1       7.262   7.988  16.927  0.00  0.00    +0.000 A 
ATOM      4  C   UNL     1       7.310   6.661  17.352  0.00  0.00    +0.000 A 
ATOM      5  C   UNL     1       7.934   6.333  18.553  0.00  0.00    +0.000 A 
ATOM      6  C   UNL     1       8.562   7.340  19.299  0.00  0.00    +0.000 A 
ENDROOT
BRANCH   1   9
ATOM      7  N   UNL     1       8.970  11.614  18.372  0.00  0.00    +0.000 NA
ATOM      8  C   UNL     1       9.409  10.991  19.414  0.00  0.00    +0.000 C 
ATOM      9  N   UNL     1       9.191   9.654  19.670  0.00  0.00    +0.000 N 
ATOM     10  H   UNL     1       9.648   9.299  20.500  0.00  0.00    +0.000 HD
BRANCH   7  18
ATOM     11  C   UNL     1      11.604  12.727  17.245  0.00  0.00    +0.000 C 
ATOM     12  C   UNL     1      10.360  13.527  17.502  0.00  0.00    +0.000 A 
ATOM     13  C   UNL     1      10.384  14.937  17.361  0.00  0.00    +0.000 A 
ATOM     14 CL   UNL     1      11.820  15.807  16.924  0.00  0.00    +0.000 Cl
ATOM     15  C   UNL     1       9.252  15.721  17.610  0.00  0.00    +0.000 A 
ATOM     16  C   UNL     1       8.058  15.115  17.958  0.00  0.00    +0.000 A 
ATOM     17  C   UNL     1       8.012  13.728  18.076  0.00  0.00    +0.000 A 
ATOM     18  C   UNL     1       9.146  12.911  17.877  0.00  0.00    +0.000 A 
ENDBRANCH   7  18
BRANCH   8  19
ATOM     19  S   UNL     1      10.346  11.713  20.701  0.00  0.00    +0.000 S 
ATOM     20  H   UNL     1      11.522  11.514  20.081  0.00  0.00    +0.000 HD
ENDBRANCH   8  19
ENDBRANCH   1   9
BRANCH   4  21
ATOM     21  S   UNL     1       6.505   5.413  16.384  0.00  0.00    +0.000 S 
ATOM     22  O   UNL     1       5.272   5.974  15.874  0.00  0.00    +0.000 OA
ATOM     23  O   UNL     1       7.480   4.859  15.464  0.00  0.00    +0.000 OA
BRANCH  21  24
ATOM     24  N   UNL     1       6.061   4.185  17.463  0.00  0.00    +0.000 N 
ATOM     25  C   UNL     1       4.710   4.225  17.824  0.00  0.00    +0.000 A 
ATOM     26  N   UNL     1       3.846   3.580  17.044  0.00  0.00    +0.000 NA
ATOM     27  C   UNL     1       2.550   3.737  17.371  0.00  0.00    +0.000 A 
ATOM     28  C   UNL     1       2.124   4.511  18.425  0.00  0.00    +0.000 A 
ATOM     29  C   UNL     1       3.118   5.120  19.158  0.00  0.00    +0.000 A 
ATOM     30  N   UNL     1       4.429   4.984  18.884  0.00  0.00    +0.000 NA
ATOM     31  H   UNL     1       6.576   4.375  18.317  0.00  0.00    +0.000 HD
ENDBRANCH  21  24
ENDBRANCH   4  21
TORSDOF 5
ENDMDL
