MODEL 1
REMARK VINA RESULT:      -9.1      0.000      0.000
REMARK  Name = 
REMARK  11 active torsions:
REMARK  status: ('A' for Active; 'I' for Inactive)
REMARK    1  A    between atoms: C_1  and  C_2
REMARK    2  A    between atoms: C_5  and  C_6
REMARK    3  A    between atoms: C_6  and  N_7
REMARK    4  A    between atoms: C_6  and  C_27
REMARK    5  A    between atoms: N_7  and  C_8
REMARK    6  A    between atoms: C_9  and  N_10
REMARK    7  A    between atoms: N_10  and  C_11
REMARK    8  A    between atoms: C_15  and  C_16
REMARK    9  A    between atoms: N_18  and  C_19
REMARK   10  A    between atoms: N_18  and  C_20
REMARK   11  A    between atoms: C_21  and  O_22
REMARK                            x       y       z     vdW  Elec       q    Type
REMARK                         _______ _______ _______ _____ _____    ______ ____
ROOT
ATOM      1  C   UNL     1       4.118   3.757  18.987  0.00  0.00    +0.000 C 
ATOM      2  C   UNL     1       3.131   4.572  19.508  0.00  0.00    +0.000 C 
ATOM      3  C   UNL     1       2.080   3.568  19.205  0.00  0.00    +0.000 C 
ATOM      4  O   UNL     1       0.891   3.425  19.353  0.00  0.00    +0.000 OA
ATOM      5  C   UNL     1       3.108   2.781  18.495  0.00  0.00    +0.000 C 
ATOM      6  O   UNL     1       3.078   1.755  17.863  0.00  0.00    +0.000 OA
ENDROOT
BRANCH   1   7
ATOM      7  N   UNL     1       5.423   3.644  18.801  0.00  0.00    +0.000 N 
ATOM      8  H   UNL     1       5.950   2.992  19.383  0.00  0.00    +0.000 HD
BRANCH   7   9
ATOM      9  C   UNL     1       6.361   4.540  18.100  0.00  0.00    +0.000 C 
BRANCH   9  14
ATOM     10  C   UNL     1       6.141   3.555  13.362  0.00  0.00    +0.000 C 
ATOM     11  C   UNL     1       5.871   4.408  14.537  0.00  0.00    +0.000 A 
ATOM     12  C   UNL     1       5.232   5.617  14.705  0.00  0.00    +0.000 A 
ATOM     13  C   UNL     1       5.289   5.906  16.091  0.00  0.00    +0.000 A 
ATOM     14  C   UNL     1       5.950   4.862  16.690  0.00  0.00    +0.000 A 
ATOM     15  O   UNL     1       6.322   3.951  15.736  0.00  0.00    +0.000 OA
ENDBRANCH   9  14
BRANCH   9  16
ATOM     16  C   UNL     1       6.755   5.705  18.983  0.00  0.00    +0.000 C 
ATOM     17  C   UNL     1       8.072   5.611  19.723  0.00  0.00    +0.000 C 
ATOM     18  C   UNL     1       7.881   6.676  18.685  0.00  0.00    +0.000 C 
ENDBRANCH   9  16
ENDBRANCH   7   9
ENDBRANCH   1   7
BRANCH   2  19
ATOM     19  N   UNL     1       2.917   5.742  20.087  0.00  0.00    +0.000 N 
ATOM     20  H   UNL     1       2.402   5.749  20.979  0.00  0.00    +0.000 HD
BRANCH  19  21
ATOM     21  C   UNL     1       2.570   6.967  19.441  0.00  0.00    +0.000 A 
ATOM     22  C   UNL     1       2.910   7.240  18.116  0.00  0.00    +0.000 A 
ATOM     23  C   UNL     1       2.531   8.436  17.516  0.00  0.00    +0.000 A 
ATOM     24  C   UNL     1       1.718   9.334  18.206  0.00  0.00    +0.000 A 
ATOM     25  C   UNL     1       1.344   9.094  19.540  0.00  0.00    +0.000 A 
ATOM     26  C   UNL     1       1.887   7.969  20.172  0.00  0.00    +0.000 A 
BRANCH  25  27
ATOM     27  C   UNL     1       0.451  10.122  20.160  0.00  0.00    +0.000 C 
ATOM     28  O   UNL     1       0.811  10.551  21.258  0.00  0.00    +0.000 OA
ATOM     29  N   UNL     1      -0.699  10.617  19.530  0.00  0.00    +0.000 N 
ATOM     30  C   UNL     1      -1.260  10.203  18.251  0.00  0.00    +0.000 C 
ATOM     31  C   UNL     1      -1.478  11.630  20.234  0.00  0.00    +0.000 C 
ENDBRANCH  25  27
BRANCH  26  32
ATOM     32  O   UNL     1       1.837   7.804  21.536  0.00  0.00    +0.000 OA
ATOM     33  H   UNL     1       2.512   7.130  21.747  0.00  0.00    +0.000 HD
ENDBRANCH  26  32
ENDBRANCH  19  21
ENDBRANCH   2  19
TORSDOF 8
ENDMDL
MODEL 2
REMARK VINA RESULT:      -9.0      0.950      1.115
REMARK  Name = 
REMARK  11 active torsions:
REMARK  status: ('A' for Active; 'I' for Inactive)
REMARK    1  A    between atoms: C_1  and  C_2
REMARK    2  A    between atoms: C_5  and  C_6
REMARK    3  A    between atoms: C_6  and  N_7
REMARK    4  A    between atoms: C_6  and  C_27
REMARK    5  A    between atoms: N_7  and  C_8
REMARK    6  A    between atoms: C_9  and  N_10
REMARK    7  A    between atoms: N_10  and  C_11
REMARK    8  A    between atoms: C_15  and  C_16
REMARK    9  A    between atoms: N_18  and  C_19
REMARK   10  A    between atoms: N_18  and  C_20
REMARK   11  A    between atoms: C_21  and  O_22
REMARK                            x       y       z     vdW  Elec       q    Type
REMARK                         _______ _______ _______ _____ _____    ______ ____
ROOT
ATOM      1  C   UNL     1       4.511   3.738  18.893  0.00  0.00    +0.000 C 
ATOM      2  C   UNL     1       3.492   4.498  19.435  0.00  0.00    +0.000 C 
ATOM      3  C   UNL     1       2.506   3.407  19.223  0.00  0.00    +0.000 C 
ATOM      4  O   UNL     1       1.339   3.183  19.437  0.00  0.00    +0.000 OA
ATOM      5  C   UNL     1       3.554   2.673  18.487  0.00  0.00    +0.000 C 
ATOM      6  O   UNL     1       3.571   1.623  17.894  0.00  0.00    +0.000 OA
ENDROOT
BRANCH   1   7
ATOM      7  N   UNL     1       5.810   3.715  18.644  0.00  0.00    +0.000 N 
ATOM      8  H   UNL     1       6.421   3.176  19.258  0.00  0.00    +0.000 HD
BRANCH   7   9
ATOM      9  C   UNL     1       6.628   4.605  17.799  0.00  0.00    +0.000 C 
BRANCH   9  14
ATOM     10  C   UNL     1       7.776   5.030  13.112  0.00  0.00    +0.000 C 
ATOM     11  C   UNL     1       6.832   4.730  14.208  0.00  0.00    +0.000 A 
ATOM     12  C   UNL     1       5.518   4.319  14.243  0.00  0.00    +0.000 A 
ATOM     13  C   UNL     1       5.180   4.187  15.613  0.00  0.00    +0.000 A 
ATOM     14  C   UNL     1       6.301   4.518  16.334  0.00  0.00    +0.000 A 
ATOM     15  O   UNL     1       7.310   4.866  15.474  0.00  0.00    +0.000 OA
ENDBRANCH   9  14
BRANCH   9  16
ATOM     16  C   UNL     1       6.714   5.990  18.402  0.00  0.00    +0.000 C 
ATOM     17  C   UNL     1       8.020   6.394  19.053  0.00  0.00    +0.000 C 
ATOM     18  C   UNL     1       7.540   7.131  17.838  0.00  0.00    +0.000 C 
ENDBRANCH   9  16
ENDBRANCH   7   9
ENDBRANCH   1   7
BRANCH   2  19
ATOM     19  N   UNL     1       3.218   5.670  19.985  0.00  0.00    +0.000 N 
ATOM     20  H   UNL     1       2.713   5.673  20.882  0.00  0.00    +0.000 HD
BRANCH  19  21
ATOM     21  C   UNL     1       2.797   6.854  19.309  0.00  0.00    +0.000 A 
ATOM     22  C   UNL     1       3.169   7.143  17.996  0.00  0.00    +0.000 A 
ATOM     23  C   UNL     1       2.715   8.296  17.364  0.00  0.00    +0.000 A 
ATOM     24  C   UNL     1       1.801   9.129  18.008  0.00  0.00    +0.000 A 
ATOM     25  C   UNL     1       1.392   8.870  19.329  0.00  0.00    +0.000 A 
ATOM     26  C   UNL     1       2.001   7.802  19.998  0.00  0.00    +0.000 A 
BRANCH  25  27
ATOM     27  C   UNL     1       0.389   9.824  19.898  0.00  0.00    +0.000 C 
ATOM     28  O   UNL     1      -0.556   9.311  20.502  0.00  0.00    +0.000 OA
ATOM     29  N   UNL     1       0.519  11.216  19.806  0.00  0.00    +0.000 N 
ATOM     30  C   UNL     1       1.560  11.969  19.119  0.00  0.00    +0.000 C 
ATOM     31  C   UNL     1      -0.520  12.039  20.416  0.00  0.00    +0.000 C 
ENDBRANCH  25  27
BRANCH  26  32
ATOM     32  O   UNL     1       1.907   7.646  21.360  0.00  0.00    +0.000 OA
ATOM     33  H   UNL     1       0.951   7.653  21.564  0.00  0.00    +0.000 HD
ENDBRANCH  26  32
ENDBRANCH  19  21
ENDBRANCH   2  19
TORSDOF 8
ENDMDL
MODEL 3
REMARK VINA RESULT:      -8.8      1.010      2.574
REMARK  Name = 
REMARK  11 active torsions:
REMARK  status: ('A' for Active; 'I' for Inactive)
REMARK    1  A    between atoms: C_1  and  C_2
REMARK    2  A    between atoms: C_5  and  C_6
REMARK    3  A    between atoms: C_6  and  N_7
REMARK    4  A    between atoms: C_6  and  C_27
REMARK    5  A    between atoms: N_7  and  C_8
REMARK    6  A    between atoms: C_9  and  N_10
REMARK    7  A    between atoms: N_10  and  C_11
REMARK    8  A    between atoms: C_15  and  C_16
REMARK    9  A    between atoms: N_18  and  C_19
REMARK   10  A    between atoms: N_18  and  C_20
REMARK   11  A    between atoms: C_21  and  O_22
REMARK                            x       y       z     vdW  Elec       q    Type
REMARK                         _______ _______ _______ _____ _____    ______ ____
ROOT
ATOM      1  C   UNL     1       3.517   3.918  18.920  0.00  0.00    +0.000 C 
ATOM      2  C   UNL     1       2.723   4.722  19.716  0.00  0.00    +0.000 C 
ATOM      3  C   UNL     1       1.714   3.644  19.874  0.00  0.00    +0.000 C 
ATOM      4  O   UNL     1       0.671   3.454  20.452  0.00  0.00    +0.000 OA
ATOM      5  C   UNL     1       2.475   2.856  18.884  0.00  0.00    +0.000 C 
ATOM      6  O   UNL     1       2.299   1.782  18.366  0.00  0.00    +0.000 OA
ENDROOT
BRANCH   1   7
ATOM      7  N   UNL     1       4.672   3.857  18.279  0.00  0.00    +0.000 N 
ATOM      8  H   UNL     1       5.394   3.223  18.622  0.00  0.00    +0.000 HD
BRANCH   7   9
ATOM      9  C   UNL     1       5.267   4.793  17.306  0.00  0.00    +0.000 C 
BRANCH   9  14
ATOM     10  C   UNL     1       7.894   8.850  17.631  0.00  0.00    +0.000 C 
ATOM     11  C   UNL     1       7.598   7.448  17.990  0.00  0.00    +0.000 A 
ATOM     12  C   UNL     1       8.187   6.544  18.846  0.00  0.00    +0.000 A 
ATOM     13  C   UNL     1       7.417   5.357  18.759  0.00  0.00    +0.000 A 
ATOM     14  C   UNL     1       6.405   5.602  17.864  0.00  0.00    +0.000 A 
ATOM     15  O   UNL     1       6.525   6.879  17.380  0.00  0.00    +0.000 OA
ENDBRANCH   9  14
BRANCH   9  16
ATOM     16  C   UNL     1       5.497   4.111  15.975  0.00  0.00    +0.000 C 
ATOM     17  C   UNL     1       5.516   4.979  14.735  0.00  0.00    +0.000 C 
ATOM     18  C   UNL     1       6.757   4.242  15.140  0.00  0.00    +0.000 C 
ENDBRANCH   9  16
ENDBRANCH   7   9
ENDBRANCH   1   7
BRANCH   2  19
ATOM     19  N   UNL     1       2.643   5.922  20.267  0.00  0.00    +0.000 N 
ATOM     20  H   UNL     1       2.201   5.996  21.194  0.00  0.00    +0.000 HD
BRANCH  19  21
ATOM     21  C   UNL     1       2.338   7.149  19.604  0.00  0.00    +0.000 A 
ATOM     22  C   UNL     1       2.634   7.370  18.259  0.00  0.00    +0.000 A 
ATOM     23  C   UNL     1       2.297   8.571  17.644  0.00  0.00    +0.000 A 
ATOM     24  C   UNL     1       1.569   9.531  18.344  0.00  0.00    +0.000 A 
ATOM     25  C   UNL     1       1.241   9.346  19.699  0.00  0.00    +0.000 A 
ATOM     26  C   UNL     1       1.747   8.207  20.337  0.00  0.00    +0.000 A 
BRANCH  25  27
ATOM     27  C   UNL     1       0.437  10.439  20.329  0.00  0.00    +0.000 C 
ATOM     28  O   UNL     1       0.947  10.977  21.315  0.00  0.00    +0.000 OA
ATOM     29  N   UNL     1      -0.794  10.874  19.821  0.00  0.00    +0.000 N 
ATOM     30  C   UNL     1      -1.528  10.334  18.685  0.00  0.00    +0.000 C 
ATOM     31  C   UNL     1      -1.473  11.960  20.519  0.00  0.00    +0.000 C 
ENDBRANCH  25  27
BRANCH  26  32
ATOM     32  O   UNL     1       1.748   8.078  21.705  0.00  0.00    +0.000 OA
ATOM     33  H   UNL     1       2.488   7.474  21.915  0.00  0.00    +0.000 HD
ENDBRANCH  26  32
ENDBRANCH  19  21
ENDBRANCH   2  19
TORSDOF 8
ENDMDL
MODEL 4
REMARK VINA RESULT:      -8.8      1.070      1.276
REMARK  Name = 
REMARK  11 active torsions:
REMARK  status: ('A' for Active; 'I' for Inactive)
REMARK    1  A    between atoms: C_1  and  C_2
REMARK    2  A    between atoms: C_5  and  C_6
REMARK    3  A    between atoms: C_6  and  N_7
REMARK    4  A    between atoms: C_6  and  C_27
REMARK    5  A    between atoms: N_7  and  C_8
REMARK    6  A    between atoms: C_9  and  N_10
REMARK    7  A    between atoms: N_10  and  C_11
REMARK    8  A    between atoms: C_15  and  C_16
REMARK    9  A    between atoms: N_18  and  C_19
REMARK   10  A    between atoms: N_18  and  C_20
REMARK   11  A    between atoms: C_21  and  O_22
REMARK                            x       y       z     vdW  Elec       q    Type
REMARK                         _______ _______ _______ _____ _____    ______ ____
ROOT
ATOM      1  C   UNL     1       4.193   4.850  18.591  0.00  0.00    +0.000 C 
ATOM      2  C   UNL     1       3.188   5.185  19.478  0.00  0.00    +0.000 C 
ATOM      3  C   UNL     1       2.732   3.774  19.562  0.00  0.00    +0.000 C 
ATOM      4  O   UNL     1       1.901   3.122  20.147  0.00  0.00    +0.000 OA
ATOM      5  C   UNL     1       3.688   3.453  18.485  0.00  0.00    +0.000 C 
ATOM      6  O   UNL     1       3.945   2.445  17.875  0.00  0.00    +0.000 OA
ENDROOT
BRANCH   1   7
ATOM      7  N   UNL     1       5.226   5.327  17.917  0.00  0.00    +0.000 N 
ATOM      8  H   UNL     1       5.144   6.240  17.468  0.00  0.00    +0.000 HD
BRANCH   7   9
ATOM      9  C   UNL     1       6.421   4.635  17.399  0.00  0.00    +0.000 C 
BRANCH   9  14
ATOM     10  C   UNL     1       8.114   5.494  12.942  0.00  0.00    +0.000 C 
ATOM     11  C   UNL     1       7.179   4.850  13.888  0.00  0.00    +0.000 A 
ATOM     12  C   UNL     1       6.132   3.969  13.734  0.00  0.00    +0.000 A 
ATOM     13  C   UNL     1       5.638   3.710  15.037  0.00  0.00    +0.000 A 
ATOM     14  C   UNL     1       6.409   4.438  15.909  0.00  0.00    +0.000 A 
ATOM     15  O   UNL     1       7.344   5.150  15.204  0.00  0.00    +0.000 OA
ENDBRANCH   9  14
BRANCH   9  16
ATOM     16  C   UNL     1       7.682   5.212  18.006  0.00  0.00    +0.000 C 
ATOM     17  C   UNL     1       7.698   6.693  18.317  0.00  0.00    +0.000 C 
ATOM     18  C   UNL     1       7.811   5.701  19.436  0.00  0.00    +0.000 C 
ENDBRANCH   9  16
ENDBRANCH   7   9
ENDBRANCH   1   7
BRANCH   2  19
ATOM     19  N   UNL     1       2.649   6.196  20.138  0.00  0.00    +0.000 N 
ATOM     20  H   UNL     1       1.972   5.977  20.883  0.00  0.00    +0.000 HD
BRANCH  19  21
ATOM     21  C   UNL     1       2.220   7.443  19.592  0.00  0.00    +0.000 A 
ATOM     22  C   UNL     1       2.393   7.775  18.248  0.00  0.00    +0.000 A 
ATOM     23  C   UNL     1       1.936   8.991  17.750  0.00  0.00    +0.000 A 
ATOM     24  C   UNL     1       1.211   9.851  18.572  0.00  0.00    +0.000 A 
ATOM     25  C   UNL     1       1.005   9.552  19.931  0.00  0.00    +0.000 A 
ATOM     26  C   UNL     1       1.627   8.408  20.443  0.00  0.00    +0.000 A 
BRANCH  25  27
ATOM     27  C   UNL     1       0.190  10.545  20.698  0.00  0.00    +0.000 C 
ATOM     28  O   UNL     1       0.632  10.858  21.806  0.00  0.00    +0.000 OA
ATOM     29  N   UNL     1      -0.977  11.133  20.192  0.00  0.00    +0.000 N 
ATOM     30  C   UNL     1      -1.630  10.859  18.919  0.00  0.00    +0.000 C 
ATOM     31  C   UNL     1      -1.674  12.099  21.034  0.00  0.00    +0.000 C 
ENDBRANCH  25  27
BRANCH  26  32
ATOM     32  O   UNL     1       1.746   8.186  21.795  0.00  0.00    +0.000 OA
ATOM     33  H   UNL     1       1.436   7.271  21.942  0.00  0.00    +0.000 HD
ENDBRANCH  26  32
ENDBRANCH  19  21
ENDBRANCH   2  19
TORSDOF 8
ENDMDL
MODEL 5
REMARK VINA RESULT:      -8.6      1.640      3.130
REMARK  Name = 
REMARK  11 active torsions:
REMARK  status: ('A' for Active; 'I' for Inactive)
REMARK    1  A    between atoms: C_1  and  C_2
REMARK    2  A    between atoms: C_5  and  C_6
REMARK    3  A    between atoms: C_6  and  N_7
REMARK    4  A    between atoms: C_6  and  C_27
REMARK    5  A    between atoms: N_7  and  C_8
REMARK    6  A    between atoms: C_9  and  N_10
REMARK    7  A    between atoms: N_10  and  C_11
REMARK    8  A    between atoms: C_15  and  C_16
REMARK    9  A    between atoms: N_18  and  C_19
REMARK   10  A    between atoms: N_18  and  C_20
REMARK   11  A    between atoms: C_21  and  O_22
REMARK                            x       y       z     vdW  Elec       q    Type
REMARK                         _______ _______ _______ _____ _____    ______ ____
ROOT
ATOM      1  C   UNL     1       3.935   5.119  17.852  0.00  0.00    +0.000 C 
ATOM      2  C   UNL     1       3.382   5.390  19.089  0.00  0.00    +0.000 C 
ATOM      3  C   UNL     1       3.420   3.955  19.470  0.00  0.00    +0.000 C 
ATOM      4  O   UNL     1       3.154   3.260  20.420  0.00  0.00    +0.000 OA
ATOM      5  C   UNL     1       3.843   3.652  18.088  0.00  0.00    +0.000 C 
ATOM      6  O   UNL     1       4.068   2.627  17.495  0.00  0.00    +0.000 OA
ENDROOT
BRANCH   1   7
ATOM      7  N   UNL     1       4.383   5.673  16.737  0.00  0.00    +0.000 N 
ATOM      8  H   UNL     1       3.723   5.871  15.985  0.00  0.00    +0.000 HD
BRANCH   7   9
ATOM      9  C   UNL     1       5.759   5.781  16.220  0.00  0.00    +0.000 C 
BRANCH   9  14
ATOM     10  C   UNL     1       8.407   9.385  18.083  0.00  0.00    +0.000 C 
ATOM     11  C   UNL     1       7.947   7.982  18.044  0.00  0.00    +0.000 A 
ATOM     12  C   UNL     1       8.222   6.871  18.810  0.00  0.00    +0.000 A 
ATOM     13  C   UNL     1       7.445   5.816  18.272  0.00  0.00    +0.000 A 
ATOM     14  C   UNL     1       6.738   6.338  17.217  0.00  0.00    +0.000 A 
ATOM     15  O   UNL     1       7.058   7.662  17.066  0.00  0.00    +0.000 OA
ENDBRANCH   9  14
BRANCH   9  16
ATOM     16  C   UNL     1       6.163   4.515  15.495  0.00  0.00    +0.000 C 
ATOM     17  C   UNL     1       5.393   4.145  14.246  0.00  0.00    +0.000 C 
ATOM     18  C   UNL     1       6.852   4.472  14.144  0.00  0.00    +0.000 C 
ENDBRANCH   9  16
ENDBRANCH   7   9
ENDBRANCH   1   7
BRANCH   2  19
ATOM     19  N   UNL     1       2.938   6.368  19.862  0.00  0.00    +0.000 N 
ATOM     20  H   UNL     1       2.482   6.109  20.749  0.00  0.00    +0.000 HD
BRANCH  19  21
ATOM     21  C   UNL     1       2.289   7.566  19.439  0.00  0.00    +0.000 A 
ATOM     22  C   UNL     1       2.283   7.988  18.109  0.00  0.00    +0.000 A 
ATOM     23  C   UNL     1       1.617   9.150  17.733  0.00  0.00    +0.000 A 
ATOM     24  C   UNL     1       0.862   9.853  18.671  0.00  0.00    +0.000 A 
ATOM     25  C   UNL     1       0.832   9.457  20.020  0.00  0.00    +0.000 A 
ATOM     26  C   UNL     1       1.653   8.389  20.400  0.00  0.00    +0.000 A 
BRANCH  25  27
ATOM     27  C   UNL     1      -0.035  10.281  20.920  0.00  0.00    +0.000 C 
ATOM     28  O   UNL     1      -0.974   9.684  21.451  0.00  0.00    +0.000 OA
ATOM     29  N   UNL     1       0.213  11.632  21.196  0.00  0.00    +0.000 N 
ATOM     30  C   UNL     1       1.263  12.475  20.640  0.00  0.00    +0.000 C 
ATOM     31  C   UNL     1      -0.698  12.321  22.103  0.00  0.00    +0.000 C 
ENDBRANCH  25  27
BRANCH  26  32
ATOM     32  O   UNL     1       1.932   8.117  21.718  0.00  0.00    +0.000 OA
ATOM     33  H   UNL     1       2.004   7.145  21.780  0.00  0.00    +0.000 HD
ENDBRANCH  26  32
ENDBRANCH  19  21
ENDBRANCH   2  19
TORSDOF 8
ENDMDL
MODEL 6
REMARK VINA RESULT:      -8.6      1.484      2.904
REMARK  Name = 
REMARK  11 active torsions:
REMARK  status: ('A' for Active; 'I' for Inactive)
REMARK    1  A    between atoms: C_1  and  C_2
REMARK    2  A    between atoms: C_5  and  C_6
REMARK    3  A    between atoms: C_6  and  N_7
REMARK    4  A    between atoms: C_6  and  C_27
REMARK    5  A    between atoms: N_7  and  C_8
REMARK    6  A    between atoms: C_9  and  N_10
REMARK    7  A    between atoms: N_10  and  C_11
REMARK    8  A    between atoms: C_15  and  C_16
REMARK    9  A    between atoms: N_18  and  C_19
REMARK   10  A    between atoms: N_18  and  C_20
REMARK   11  A    between atoms: C_21  and  O_22
REMARK                            x       y       z     vdW  Elec       q    Type
REMARK                         _______ _______ _______ _____ _____    ______ ____
ROOT
ATOM      1  C   UNL     1       4.189   3.393  18.457  0.00  0.00    +0.000 C 
ATOM      2  C   UNL     1       3.067   4.018  18.965  0.00  0.00    +0.000 C 
ATOM      3  C   UNL     1       3.230   3.343  20.278  0.00  0.00    +0.000 C 
ATOM      4  O   UNL     1       2.699   3.325  21.361  0.00  0.00    +0.000 OA
ATOM      5  C   UNL     1       4.318   2.548  19.676  0.00  0.00    +0.000 C 
ATOM      6  O   UNL     1       5.018   1.655  20.085  0.00  0.00    +0.000 OA
ENDROOT
BRANCH   1   7
ATOM      7  N   UNL     1       4.984   3.315  17.403  0.00  0.00    +0.000 N 
ATOM      8  H   UNL     1       5.408   2.416  17.169  0.00  0.00    +0.000 HD
BRANCH   7   9
ATOM      9  C   UNL     1       5.658   4.384  16.643  0.00  0.00    +0.000 C 
BRANCH   9  14
ATOM     10  C   UNL     1       7.846   8.581  17.675  0.00  0.00    +0.000 C 
ATOM     11  C   UNL     1       7.561   7.154  17.930  0.00  0.00    +0.000 A 
ATOM     12  C   UNL     1       7.972   6.263  18.896  0.00  0.00    +0.000 A 
ATOM     13  C   UNL     1       7.329   5.035  18.601  0.00  0.00    +0.000 A 
ATOM     14  C   UNL     1       6.562   5.244  17.481  0.00  0.00    +0.000 A 
ATOM     15  O   UNL     1       6.717   6.539  17.060  0.00  0.00    +0.000 OA
ENDBRANCH   9  14
BRANCH   9  16
ATOM     16  C   UNL     1       6.228   3.846  15.348  0.00  0.00    +0.000 C 
ATOM     17  C   UNL     1       5.417   4.046  14.086  0.00  0.00    +0.000 C 
ATOM     18  C   UNL     1       6.758   4.702  14.213  0.00  0.00    +0.000 C 
ENDBRANCH   9  16
ENDBRANCH   7   9
ENDBRANCH   1   7
BRANCH   2  19
ATOM     19  N   UNL     1       2.105   4.877  18.669  0.00  0.00    +0.000 N 
ATOM     20  H   UNL     1       1.516   4.674  17.848  0.00  0.00    +0.000 HD
BRANCH  19  21
ATOM     21  C   UNL     1       2.177   6.301  18.739  0.00  0.00    +0.000 A 
ATOM     22  C   UNL     1       2.664   7.081  17.690  0.00  0.00    +0.000 A 
ATOM     23  C   UNL     1       2.694   8.468  17.789  0.00  0.00    +0.000 A 
ATOM     24  C   UNL     1       2.144   9.098  18.904  0.00  0.00    +0.000 A 
ATOM     25  C   UNL     1       1.633   8.350  19.980  0.00  0.00    +0.000 A 
ATOM     26  C   UNL     1       1.778   6.959  19.928  0.00  0.00    +0.000 A 
BRANCH  25  27
ATOM     27  C   UNL     1       1.049   9.145  21.105  0.00  0.00    +0.000 C 
ATOM     28  O   UNL     1       1.597   9.004  22.201  0.00  0.00    +0.000 OA
ATOM     29  N   UNL     1      -0.019  10.036  20.940  0.00  0.00    +0.000 N 
ATOM     30  C   UNL     1      -0.776  10.300  19.723  0.00  0.00    +0.000 C 
ATOM     31  C   UNL     1      -0.488  10.764  22.114  0.00  0.00    +0.000 C 
ENDBRANCH  25  27
BRANCH  26  32
ATOM     32  O   UNL     1       1.598   6.165  21.035  0.00  0.00    +0.000 OA
ATOM     33  H   UNL     1       2.482   5.811  21.256  0.00  0.00    +0.000 HD
ENDBRANCH  26  32
ENDBRANCH  19  21
ENDBRANCH   2  19
TORSDOF 8
ENDMDL
MODEL 7
REMARK VINA RESULT:      -8.4      0.908      1.033
REMARK  Name = 
REMARK  11 active torsions:
REMARK  status: ('A' for Active; 'I' for Inactive)
REMARK    1  A    between atoms: C_1  and  C_2
REMARK    2  A    between atoms: C_5  and  C_6
REMARK    3  A    between atoms: C_6  and  N_7
REMARK    4  A    between atoms: C_6  and  C_27
REMARK    5  A    between atoms: N_7  and  C_8
REMARK    6  A    between atoms: C_9  and  N_10
REMARK    7  A    between atoms: N_10  and  C_11
REMARK    8  A    between atoms: C_15  and  C_16
REMARK    9  A    between atoms: N_18  and  C_19
REMARK   10  A    between atoms: N_18  and  C_20
REMARK   11  A    between atoms: C_21  and  O_22
REMARK                            x       y       z     vdW  Elec       q    Type
REMARK                         _______ _______ _______ _____ _____    ______ ____
ROOT
ATOM      1  C   UNL     1       3.567   4.103  18.571  0.00  0.00    +0.000 C 
ATOM      2  C   UNL     1       2.925   4.642  19.669  0.00  0.00    +0.000 C 
ATOM      3  C   UNL     1       2.622   3.292  20.210  0.00  0.00    +0.000 C 
ATOM      4  O   UNL     1       2.100   2.798  21.180  0.00  0.00    +0.000 OA
ATOM      5  C   UNL     1       3.151   2.726  18.953  0.00  0.00    +0.000 C 
ATOM      6  O   UNL     1       3.239   1.604  18.520  0.00  0.00    +0.000 OA
ENDROOT
BRANCH   1   7
ATOM      7  N   UNL     1       4.259   4.403  17.484  0.00  0.00    +0.000 N 
ATOM      8  H   UNL     1       3.844   4.222  16.569  0.00  0.00    +0.000 HD
BRANCH   7   9
ATOM      9  C   UNL     1       5.700   4.670  17.322  0.00  0.00    +0.000 C 
BRANCH   9  14
ATOM     10  C   UNL     1       5.130   3.480  12.660  0.00  0.00    +0.000 C 
ATOM     11  C   UNL     1       5.901   4.055  13.781  0.00  0.00    +0.000 A 
ATOM     12  C   UNL     1       7.138   4.654  13.873  0.00  0.00    +0.000 A 
ATOM     13  C   UNL     1       7.306   5.009  15.235  0.00  0.00    +0.000 A 
ATOM     14  C   UNL     1       6.168   4.614  15.894  0.00  0.00    +0.000 A 
ATOM     15  O   UNL     1       5.313   4.014  15.007  0.00  0.00    +0.000 OA
ENDBRANCH   9  14
BRANCH   9  16
ATOM     16  C   UNL     1       6.119   5.875  18.135  0.00  0.00    +0.000 C 
ATOM     17  C   UNL     1       7.025   5.640  19.325  0.00  0.00    +0.000 C 
ATOM     18  C   UNL     1       7.520   6.455  18.167  0.00  0.00    +0.000 C 
ENDBRANCH   9  16
ENDBRANCH   7   9
ENDBRANCH   1   7
BRANCH   2  19
ATOM     19  N   UNL     1       2.592   5.783  20.250  0.00  0.00    +0.000 N 
ATOM     20  H   UNL     1       1.929   5.745  21.038  0.00  0.00    +0.000 HD
BRANCH  19  21
ATOM     21  C   UNL     1       2.340   7.030  19.604  0.00  0.00    +0.000 A 
ATOM     22  C   UNL     1       2.700   7.277  18.279  0.00  0.00    +0.000 A 
ATOM     23  C   UNL     1       2.413   8.497  17.678  0.00  0.00    +0.000 A 
ATOM     24  C   UNL     1       1.672   9.455  18.367  0.00  0.00    +0.000 A 
ATOM     25  C   UNL     1       1.280   9.245  19.702  0.00  0.00    +0.000 A 
ATOM     26  C   UNL     1       1.735   8.082  20.334  0.00  0.00    +0.000 A 
BRANCH  25  27
ATOM     27  C   UNL     1       0.468  10.339  20.321  0.00  0.00    +0.000 C 
ATOM     28  O   UNL     1       0.955  10.863  21.325  0.00  0.00    +0.000 OA
ATOM     29  N   UNL     1      -0.745  10.790  19.784  0.00  0.00    +0.000 N 
ATOM     30  C   UNL     1      -1.453  10.267  18.623  0.00  0.00    +0.000 C 
ATOM     31  C   UNL     1      -1.434  11.874  20.474  0.00  0.00    +0.000 C 
ENDBRANCH  25  27
BRANCH  26  32
ATOM     32  O   UNL     1       1.672   7.922  21.698  0.00  0.00    +0.000 OA
ATOM     33  H   UNL     1       2.321   8.550  22.070  0.00  0.00    +0.000 HD
ENDBRANCH  26  32
ENDBRANCH  19  21
ENDBRANCH   2  19
TORSDOF 8
ENDMDL
MODEL 8
REMARK VINA RESULT:      -8.3      1.271      1.545
REMARK  Name = 
REMARK  11 active torsions:
REMARK  status: ('A' for Active; 'I' for Inactive)
REMARK    1  A    between atoms: C_1  and  C_2
REMARK    2  A    between atoms: C_5  and  C_6
REMARK    3  A    between atoms: C_6  and  N_7
REMARK    4  A    between atoms: C_6  and  C_27
REMARK    5  A    between atoms: N_7  and  C_8
REMARK    6  A    between atoms: C_9  and  N_10
REMARK    7  A    between atoms: N_10  and  C_11
REMARK    8  A    between atoms: C_15  and  C_16
REMARK    9  A    between atoms: N_18  and  C_19
REMARK   10  A    between atoms: N_18  and  C_20
REMARK   11  A    between atoms: C_21  and  O_22
REMARK                            x       y       z     vdW  Elec       q    Type
REMARK                         _______ _______ _______ _____ _____    ______ ____
ROOT
ATOM      1  C   UNL     1       3.275   4.458  18.112  0.00  0.00    +0.000 C 
ATOM      2  C   UNL     1       2.736   5.036  19.245  0.00  0.00    +0.000 C 
ATOM      3  C   UNL     1       2.063   3.769  19.626  0.00  0.00    +0.000 C 
ATOM      4  O   UNL     1       1.377   3.338  20.521  0.00  0.00    +0.000 OA
ATOM      5  C   UNL     1       2.492   3.211  18.329  0.00  0.00    +0.000 C 
ATOM      6  O   UNL     1       2.307   2.155  17.777  0.00  0.00    +0.000 OA
ENDROOT
BRANCH   1   7
ATOM      7  N   UNL     1       4.079   4.670  17.083  0.00  0.00    +0.000 N 
ATOM      8  H   UNL     1       3.703   4.587  16.137  0.00  0.00    +0.000 HD
BRANCH   7   9
ATOM      9  C   UNL     1       5.552   4.699  17.022  0.00  0.00    +0.000 C 
BRANCH   9  14
ATOM     10  C   UNL     1       5.306   3.318  12.385  0.00  0.00    +0.000 C 
ATOM     11  C   UNL     1       5.982   3.973  13.523  0.00  0.00    +0.000 A 
ATOM     12  C   UNL     1       7.178   4.643  13.658  0.00  0.00    +0.000 A 
ATOM     13  C   UNL     1       7.251   5.054  15.012  0.00  0.00    +0.000 A 
ATOM     14  C   UNL     1       6.101   4.620  15.625  0.00  0.00    +0.000 A 
ATOM     15  O   UNL     1       5.330   3.942  14.716  0.00  0.00    +0.000 OA
ENDBRANCH   9  14
BRANCH   9  16
ATOM     16  C   UNL     1       6.106   5.786  17.917  0.00  0.00    +0.000 C 
ATOM     17  C   UNL     1       6.444   5.417  19.346  0.00  0.00    +0.000 C 
ATOM     18  C   UNL     1       7.537   5.852  18.416  0.00  0.00    +0.000 C 
ENDBRANCH   9  16
ENDBRANCH   7   9
ENDBRANCH   1   7
BRANCH   2  19
ATOM     19  N   UNL     1       2.682   6.161  19.940  0.00  0.00    +0.000 N 
ATOM     20  H   UNL     1       2.393   6.103  20.927  0.00  0.00    +0.000 HD
BRANCH  19  21
ATOM     21  C   UNL     1       2.209   7.428  19.481  0.00  0.00    +0.000 A 
ATOM     22  C   UNL     1       2.305   7.829  18.149  0.00  0.00    +0.000 A 
ATOM     23  C   UNL     1       1.808   9.061  17.738  0.00  0.00    +0.000 A 
ATOM     24  C   UNL     1       1.118   9.869  18.640  0.00  0.00    +0.000 A 
ATOM     25  C   UNL     1       0.989   9.499  19.991  0.00  0.00    +0.000 A 
ATOM     26  C   UNL     1       1.651   8.339  20.411  0.00  0.00    +0.000 A 
BRANCH  25  27
ATOM     27  C   UNL     1       0.204  10.439  20.851  0.00  0.00    +0.000 C 
ATOM     28  O   UNL     1      -0.737   9.939  21.471  0.00  0.00    +0.000 OA
ATOM     29  N   UNL     1       0.529  11.794  20.997  0.00  0.00    +0.000 N 
ATOM     30  C   UNL     1       1.591  12.532  20.326  0.00  0.00    +0.000 C 
ATOM     31  C   UNL     1      -0.306  12.604  21.877  0.00  0.00    +0.000 C 
ENDBRANCH  25  27
BRANCH  26  32
ATOM     32  O   UNL     1       1.845   8.051  21.741  0.00  0.00    +0.000 OA
ATOM     33  H   UNL     1       1.277   8.675  22.234  0.00  0.00    +0.000 HD
ENDBRANCH  26  32
ENDBRANCH  19  21
ENDBRANCH   2  19
TORSDOF 8
ENDMDL
MODEL 9
REMARK VINA RESULT:      -8.3      1.081      2.615
REMARK  Name = 
REMARK  11 active torsions:
REMARK  status: ('A' for Active; 'I' for Inactive)
REMARK    1  A    between atoms: C_1  and  C_2
REMARK    2  A    between atoms: C_5  and  C_6
REMARK    3  A    between atoms: C_6  and  N_7
REMARK    4  A    between atoms: C_6  and  C_27
REMARK    5  A    between atoms: N_7  and  C_8
REMARK    6  A    between atoms: C_9  and  N_10
REMARK    7  A    between atoms: N_10  and  C_11
REMARK    8  A    between atoms: C_15  and  C_16
REMARK    9  A    between atoms: N_18  and  C_19
REMARK   10  A    between atoms: N_18  and  C_20
REMARK   11  A    between atoms: C_21  and  O_22
REMARK                            x       y       z     vdW  Elec       q    Type
REMARK                         _______ _______ _______ _____ _____    ______ ____
ROOT
ATOM      1  C   UNL     1       3.164   4.187  18.299  0.00  0.00    +0.000 C 
ATOM      2  C   UNL     1       2.582   4.987  19.264  0.00  0.00    +0.000 C 
ATOM      3  C   UNL     1       1.521   3.980  19.521  0.00  0.00    +0.000 C 
ATOM      4  O   UNL     1       0.572   3.827  20.252  0.00  0.00    +0.000 OA
ATOM      5  C   UNL     1       2.040   3.213  18.372  0.00  0.00    +0.000 C 
ATOM      6  O   UNL     1       1.690   2.198  17.825  0.00  0.00    +0.000 OA
ENDROOT
BRANCH   1   7
ATOM      7  N   UNL     1       4.191   4.087  17.472  0.00  0.00    +0.000 N 
ATOM      8  H   UNL     1       4.815   3.283  17.554  0.00  0.00    +0.000 HD
BRANCH   7   9
ATOM      9  C   UNL     1       4.824   5.109  16.618  0.00  0.00    +0.000 C 
BRANCH   9  14
ATOM     10  C   UNL     1       8.321   5.470  19.950  0.00  0.00    +0.000 C 
ATOM     11  C   UNL     1       7.535   5.992  18.814  0.00  0.00    +0.000 A 
ATOM     12  C   UNL     1       7.583   7.159  18.084  0.00  0.00    +0.000 A 
ATOM     13  C   UNL     1       6.565   7.055  17.104  0.00  0.00    +0.000 A 
ATOM     14  C   UNL     1       5.959   5.836  17.285  0.00  0.00    +0.000 A 
ATOM     15  O   UNL     1       6.543   5.190  18.344  0.00  0.00    +0.000 OA
ENDBRANCH   9  14
BRANCH   9  16
ATOM     16  C   UNL     1       5.077   4.568  15.228  0.00  0.00    +0.000 C 
ATOM     17  C   UNL     1       6.319   5.041  14.504  0.00  0.00    +0.000 C 
ATOM     18  C   UNL     1       6.180   3.592  14.865  0.00  0.00    +0.000 C 
ENDBRANCH   9  16
ENDBRANCH   7   9
ENDBRANCH   1   7
BRANCH   2  19
ATOM     19  N   UNL     1       2.696   6.145  19.894  0.00  0.00    +0.000 N 
ATOM     20  H   UNL     1       2.488   6.166  20.902  0.00  0.00    +0.000 HD
BRANCH  19  21
ATOM     21  C   UNL     1       2.311   7.428  19.401  0.00  0.00    +0.000 A 
ATOM     22  C   UNL     1       2.552   7.833  18.088  0.00  0.00    +0.000 A 
ATOM     23  C   UNL     1       2.137   9.082  17.641  0.00  0.00    +0.000 A 
ATOM     24  C   UNL     1       1.387   9.907  18.477  0.00  0.00    +0.000 A 
ATOM     25  C   UNL     1       1.113   9.535  19.805  0.00  0.00    +0.000 A 
ATOM     26  C   UNL     1       1.694   8.353  20.279  0.00  0.00    +0.000 A 
BRANCH  25  27
ATOM     27  C   UNL     1       0.278  10.497  20.591  0.00  0.00    +0.000 C 
ATOM     28  O   UNL     1       0.741  10.841  21.681  0.00  0.00    +0.000 OA
ATOM     29  N   UNL     1      -0.931  11.025  20.118  0.00  0.00    +0.000 N 
ATOM     30  C   UNL     1      -1.612  10.708  18.870  0.00  0.00    +0.000 C 
ATOM     31  C   UNL     1      -1.644  11.966  20.974  0.00  0.00    +0.000 C 
ENDBRANCH  25  27
BRANCH  26  32
ATOM     32  O   UNL     1       1.746   8.052  21.619  0.00  0.00    +0.000 OA
ATOM     33  H   UNL     1       0.964   7.494  21.797  0.00  0.00    +0.000 HD
ENDBRANCH  26  32
ENDBRANCH  19  21
ENDBRANCH   2  19
TORSDOF 8
ENDMDL
