MODEL 1
REMARK VINA RESULT:      -8.4      0.000      0.000
REMARK  Name = 
REMARK  12 active torsions:
REMARK  status: ('A' for Active; 'I' for Inactive)
REMARK    1  A    between atoms: C_1  and  C_2
REMARK    2  A    between atoms: C_2  and  C_3
REMARK    3  A    between atoms: C_2  and  C_20
REMARK    4  A    between atoms: C_2  and  S_24
REMARK    5  A    between atoms: C_3  and  C_4
REMARK    6  A    between atoms: C_4  and  C_5
REMARK    7  A    between atoms: C_10  and  O_11
REMARK    8  A    between atoms: O_11  and  C_12
REMARK    9  A    between atoms: C_12  and  C_13
REMARK   10  A    between atoms: C_13  and  C_14
REMARK   11  A    between atoms: N_22  and  O_23
REMARK   12  A    between atoms: S_24  and  C_25
REMARK                            x       y       z     vdW  Elec       q    Type
REMARK                         _______ _______ _______ _____ _____    ______ ____
ROOT
ATOM      1  C   UNL     1       2.492   3.931  18.486  0.00  0.00    +0.000 A 
ATOM      2  C   UNL     1       2.390   2.598  18.942  0.00  0.00    +0.000 A 
ATOM      3  C   UNL     1       1.762   2.281  20.145  0.00  0.00    +0.000 A 
ATOM      4  C   UNL     1       1.195   3.290  20.904  0.00  0.00    +0.000 A 
ATOM      5  C   UNL     1       1.312   4.615  20.488  0.00  0.00    +0.000 A 
ATOM      6  C   UNL     1       2.013   4.964  19.316  0.00  0.00    +0.000 A 
ENDROOT
BRANCH   1   7
ATOM      7  C   UNL     1       3.151   4.160  17.138  0.00  0.00    +0.000 C 
BRANCH   7   8
ATOM      8  C   UNL     1       4.665   3.821  17.145  0.00  0.00    +0.000 C 
BRANCH   8  10
ATOM      9  C   UNL     1       4.880   6.347  16.876  0.00  0.00    +0.000 C 
ATOM     10  C   UNL     1       5.603   4.995  16.746  0.00  0.00    +0.000 C 
BRANCH  10  11
ATOM     11  C   UNL     1       6.136   4.792  15.334  0.00  0.00    +0.000 C 
ATOM     12  O   UNL     1       6.546   5.724  14.639  0.00  0.00    +0.000 OA
ATOM     13  N   UNL     1       6.103   3.507  14.842  0.00  0.00    +0.000 N 
ATOM     14  H   UNL     1       6.182   2.694  15.463  0.00  0.00    +0.000 HD
BRANCH  13  15
ATOM     15  O   UNL     1       6.643   3.345  13.546  0.00  0.00    +0.000 OA
ATOM     16  H   UNL     1       7.607   3.268  13.721  0.00  0.00    +0.000 HD
ENDBRANCH  13  15
ENDBRANCH  10  11
BRANCH  10  17
ATOM     17  S   UNL     1       7.057   5.007  17.848  0.00  0.00    +0.000 S 
ATOM     18  C   UNL     1       7.614   6.699  17.941  0.00  0.00    +0.000 C 
ATOM     19  O   UNL     1       6.618   4.631  19.183  0.00  0.00    +0.000 OA
ATOM     20  O   UNL     1       8.109   4.240  17.196  0.00  0.00    +0.000 OA
ENDBRANCH  10  17
ENDBRANCH   8  10
ENDBRANCH   7   8
ENDBRANCH   1   7
BRANCH   6  21
ATOM     21  O   UNL     1       2.280   6.282  18.976  0.00  0.00    +0.000 OA
BRANCH  21  22
ATOM     22  C   UNL     1       2.118   7.198  20.074  0.00  0.00    +0.000 C 
BRANCH  22  23
ATOM     23  C   UNL     1       1.580   8.580  19.684  0.00  0.00    +0.000 C 
BRANCH  23  24
ATOM     24  C   UNL     1       0.577   9.094  20.753  0.00  0.00    +0.000 C 
ATOM     25  C   UNL     1       0.186  10.569  20.550  0.00  0.00    +0.000 C 
ATOM     26  C   UNL     1      -0.728  11.061  21.668  0.00  0.00    +0.000 C 
ATOM     27  O   UNL     1      -0.125  10.857  22.943  0.00  0.00    +0.000 OA
ATOM     28  C   UNL     1       0.120   9.476  23.202  0.00  0.00    +0.000 C 
ATOM     29  C   UNL     1       1.103   8.901  22.183  0.00  0.00    +0.000 C 
ENDBRANCH  23  24
ENDBRANCH  22  23
ENDBRANCH  21  22
ENDBRANCH   6  21
TORSDOF 10
ENDMDL
MODEL 2
REMARK VINA RESULT:      -8.4      2.294      5.626
REMARK  Name = 
REMARK  12 active torsions:
REMARK  status: ('A' for Active; 'I' for Inactive)
REMARK    1  A    between atoms: C_1  and  C_2
REMARK    2  A    between atoms: C_2  and  C_3
REMARK    3  A    between atoms: C_2  and  C_20
REMARK    4  A    between atoms: C_2  and  S_24
REMARK    5  A    between atoms: C_3  and  C_4
REMARK    6  A    between atoms: C_4  and  C_5
REMARK    7  A    between atoms: C_10  and  O_11
REMARK    8  A    between atoms: O_11  and  C_12
REMARK    9  A    between atoms: C_12  and  C_13
REMARK   10  A    between atoms: C_13  and  C_14
REMARK   11  A    between atoms: N_22  and  O_23
REMARK   12  A    between atoms: S_24  and  C_25
REMARK                            x       y       z     vdW  Elec       q    Type
REMARK                         _______ _______ _______ _____ _____    ______ ____
ROOT
ATOM      1  C   UNL     1       2.694   7.731  18.115  0.00  0.00    +0.000 A 
ATOM      2  C   UNL     1       2.225   9.001  17.714  0.00  0.00    +0.000 A 
ATOM      3  C   UNL     1       1.438   9.789  18.551  0.00  0.00    +0.000 A 
ATOM      4  C   UNL     1       1.126   9.335  19.821  0.00  0.00    +0.000 A 
ATOM      5  C   UNL     1       1.553   8.071  20.225  0.00  0.00    +0.000 A 
ATOM      6  C   UNL     1       2.281   7.225  19.364  0.00  0.00    +0.000 A 
ENDROOT
BRANCH   1   7
ATOM      7  C   UNL     1       3.586   6.976  17.146  0.00  0.00    +0.000 C 
BRANCH   7   8
ATOM      8  C   UNL     1       5.072   6.954  17.591  0.00  0.00    +0.000 C 
BRANCH   8  10
ATOM      9  C   UNL     1       4.705   4.454  17.253  0.00  0.00    +0.000 C 
ATOM     10  C   UNL     1       5.719   5.541  17.652  0.00  0.00    +0.000 C 
BRANCH  10  11
ATOM     11  C   UNL     1       6.288   5.277  19.039  0.00  0.00    +0.000 C 
ATOM     12  O   UNL     1       5.666   4.661  19.906  0.00  0.00    +0.000 OA
ATOM     13  N   UNL     1       7.534   5.801  19.303  0.00  0.00    +0.000 N 
ATOM     14  H   UNL     1       8.229   5.930  18.559  0.00  0.00    +0.000 HD
BRANCH  13  15
ATOM     15  O   UNL     1       8.052   5.502  20.584  0.00  0.00    +0.000 OA
ATOM     16  H   UNL     1       7.729   4.588  20.740  0.00  0.00    +0.000 HD
ENDBRANCH  13  15
ENDBRANCH  10  11
BRANCH  10  17
ATOM     17  S   UNL     1       7.128   5.472  16.495  0.00  0.00    +0.000 S 
ATOM     18  C   UNL     1       6.456   5.060  14.895  0.00  0.00    +0.000 C 
ATOM     19  O   UNL     1       7.692   6.809  16.386  0.00  0.00    +0.000 OA
ATOM     20  O   UNL     1       7.980   4.366  16.906  0.00  0.00    +0.000 OA
ENDBRANCH  10  17
ENDBRANCH   8  10
ENDBRANCH   7   8
ENDBRANCH   1   7
BRANCH   6  21
ATOM     21  O   UNL     1       2.569   5.908  19.688  0.00  0.00    +0.000 OA
BRANCH  21  22
ATOM     22  C   UNL     1       1.727   5.379  20.729  0.00  0.00    +0.000 C 
BRANCH  22  23
ATOM     23  C   UNL     1       0.892   4.159  20.322  0.00  0.00    +0.000 C 
BRANCH  23  24
ATOM     24  C   UNL     1       1.799   2.908  20.162  0.00  0.00    +0.000 C 
ATOM     25  C   UNL     1       3.064   2.968  21.039  0.00  0.00    +0.000 C 
ATOM     26  C   UNL     1       3.971   1.768  20.788  0.00  0.00    +0.000 C 
ATOM     27  O   UNL     1       4.305   1.664  19.407  0.00  0.00    +0.000 OA
ATOM     28  C   UNL     1       3.149   1.472  18.592  0.00  0.00    +0.000 C 
ATOM     29  C   UNL     1       2.206   2.669  18.701  0.00  0.00    +0.000 C 
ENDBRANCH  23  24
ENDBRANCH  22  23
ENDBRANCH  21  22
ENDBRANCH   6  21
TORSDOF 10
ENDMDL
MODEL 3
REMARK VINA RESULT:      -8.3      2.349      5.583
REMARK  Name = 
REMARK  12 active torsions:
REMARK  status: ('A' for Active; 'I' for Inactive)
REMARK    1  A    between atoms: C_1  and  C_2
REMARK    2  A    between atoms: C_2  and  C_3
REMARK    3  A    between atoms: C_2  and  C_20
REMARK    4  A    between atoms: C_2  and  S_24
REMARK    5  A    between atoms: C_3  and  C_4
REMARK    6  A    between atoms: C_4  and  C_5
REMARK    7  A    between atoms: C_10  and  O_11
REMARK    8  A    between atoms: O_11  and  C_12
REMARK    9  A    between atoms: C_12  and  C_13
REMARK   10  A    between atoms: C_13  and  C_14
REMARK   11  A    between atoms: N_22  and  O_23
REMARK   12  A    between atoms: S_24  and  C_25
REMARK                            x       y       z     vdW  Elec       q    Type
REMARK                         _______ _______ _______ _____ _____    ______ ____
ROOT
ATOM      1  C   UNL     1       2.786   6.817  18.411  0.00  0.00    +0.000 A 
ATOM      2  C   UNL     1       2.489   7.913  17.573  0.00  0.00    +0.000 A 
ATOM      3  C   UNL     1       1.818   9.038  18.048  0.00  0.00    +0.000 A 
ATOM      4  C   UNL     1       1.456   9.103  19.383  0.00  0.00    +0.000 A 
ATOM      5  C   UNL     1       1.713   8.018  20.220  0.00  0.00    +0.000 A 
ATOM      6  C   UNL     1       2.317   6.839  19.740  0.00  0.00    +0.000 A 
ENDROOT
BRANCH   1   7
ATOM      7  C   UNL     1       3.564   5.663  17.804  0.00  0.00    +0.000 C 
BRANCH   7   8
ATOM      8  C   UNL     1       4.736   6.137  16.905  0.00  0.00    +0.000 C 
BRANCH   8  10
ATOM      9  C   UNL     1       6.076   5.150  18.837  0.00  0.00    +0.000 C 
ATOM     10  C   UNL     1       6.155   5.902  17.496  0.00  0.00    +0.000 C 
BRANCH  10  11
ATOM     11  C   UNL     1       6.890   7.226  17.654  0.00  0.00    +0.000 C 
ATOM     12  O   UNL     1       6.497   8.270  17.131  0.00  0.00    +0.000 OA
ATOM     13  N   UNL     1       8.056   7.199  18.385  0.00  0.00    +0.000 N 
ATOM     14  H   UNL     1       8.196   6.525  19.145  0.00  0.00    +0.000 HD
BRANCH  13  15
ATOM     15  O   UNL     1       8.692   8.451  18.548  0.00  0.00    +0.000 OA
ATOM     16  H   UNL     1       7.946   9.085  18.466  0.00  0.00    +0.000 HD
ENDBRANCH  13  15
ENDBRANCH  10  11
BRANCH  10  17
ATOM     17  S   UNL     1       7.138   4.903  16.328  0.00  0.00    +0.000 S 
ATOM     18  C   UNL     1       6.015   3.734  15.584  0.00  0.00    +0.000 C 
ATOM     19  O   UNL     1       7.605   5.778  15.264  0.00  0.00    +0.000 OA
ATOM     20  O   UNL     1       8.104   4.141  17.107  0.00  0.00    +0.000 OA
ENDBRANCH  10  17
ENDBRANCH   8  10
ENDBRANCH   7   8
ENDBRANCH   1   7
BRANCH   6  21
ATOM     21  O   UNL     1       2.428   5.694  20.515  0.00  0.00    +0.000 OA
BRANCH  21  22
ATOM     22  C   UNL     1       1.220   4.912  20.554  0.00  0.00    +0.000 C 
BRANCH  22  23
ATOM     23  C   UNL     1       1.390   3.496  21.118  0.00  0.00    +0.000 C 
BRANCH  23  24
ATOM     24  C   UNL     1       2.009   2.556  20.048  0.00  0.00    +0.000 C 
ATOM     25  C   UNL     1       3.540   2.444  20.160  0.00  0.00    +0.000 C 
ATOM     26  C   UNL     1       4.119   1.586  19.040  0.00  0.00    +0.000 C 
ATOM     27  O   UNL     1       3.730   2.087  17.764  0.00  0.00    +0.000 OA
ATOM     28  C   UNL     1       2.314   2.070  17.594  0.00  0.00    +0.000 C 
ATOM     29  C   UNL     1       1.634   2.977  18.619  0.00  0.00    +0.000 C 
ENDBRANCH  23  24
ENDBRANCH  22  23
ENDBRANCH  21  22
ENDBRANCH   6  21
TORSDOF 10
ENDMDL
MODEL 4
REMARK VINA RESULT:      -8.2      1.083      1.480
REMARK  Name = 
REMARK  12 active torsions:
REMARK  status: ('A' for Active; 'I' for Inactive)
REMARK    1  A    between atoms: C_1  and  C_2
REMARK    2  A    between atoms: C_2  and  C_3
REMARK    3  A    between atoms: C_2  and  C_20
REMARK    4  A    between atoms: C_2  and  S_24
REMARK    5  A    between atoms: C_3  and  C_4
REMARK    6  A    between atoms: C_4  and  C_5
REMARK    7  A    between atoms: C_10  and  O_11
REMARK    8  A    between atoms: O_11  and  C_12
REMARK    9  A    between atoms: C_12  and  C_13
REMARK   10  A    between atoms: C_13  and  C_14
REMARK   11  A    between atoms: N_22  and  O_23
REMARK   12  A    between atoms: S_24  and  C_25
REMARK                            x       y       z     vdW  Elec       q    Type
REMARK                         _______ _______ _______ _____ _____    ______ ____
ROOT
ATOM      1  C   UNL     1       2.592   4.424  18.597  0.00  0.00    +0.000 A 
ATOM      2  C   UNL     1       2.267   3.064  18.405  0.00  0.00    +0.000 A 
ATOM      3  C   UNL     1       1.561   2.338  19.362  0.00  0.00    +0.000 A 
ATOM      4  C   UNL     1       1.137   2.967  20.520  0.00  0.00    +0.000 A 
ATOM      5  C   UNL     1       1.474   4.301  20.742  0.00  0.00    +0.000 A 
ATOM      6  C   UNL     1       2.257   5.030  19.825  0.00  0.00    +0.000 A 
ENDROOT
BRANCH   1   7
ATOM      7  C   UNL     1       3.320   5.135  17.470  0.00  0.00    +0.000 C 
BRANCH   7   8
ATOM      8  C   UNL     1       4.569   4.357  16.978  0.00  0.00    +0.000 C 
BRANCH   8  10
ATOM      9  C   UNL     1       5.459   6.733  16.724  0.00  0.00    +0.000 C 
ATOM     10  C   UNL     1       5.818   5.236  16.686  0.00  0.00    +0.000 C 
BRANCH  10  11
ATOM     11  C   UNL     1       6.435   4.855  15.348  0.00  0.00    +0.000 C 
ATOM     12  O   UNL     1       6.026   3.908  14.674  0.00  0.00    +0.000 OA
ATOM     13  N   UNL     1       7.516   5.600  14.934  0.00  0.00    +0.000 N 
ATOM     14  H   UNL     1       7.622   6.585  15.202  0.00  0.00    +0.000 HD
BRANCH  13  15
ATOM     15  O   UNL     1       8.039   5.248  13.669  0.00  0.00    +0.000 OA
ATOM     16  H   UNL     1       8.841   4.732  13.903  0.00  0.00    +0.000 HD
ENDBRANCH  13  15
ENDBRANCH  10  11
BRANCH  10  17
ATOM     17  S   UNL     1       7.092   4.914  17.952  0.00  0.00    +0.000 S 
ATOM     18  C   UNL     1       7.732   6.503  18.449  0.00  0.00    +0.000 C 
ATOM     19  O   UNL     1       6.439   4.337  19.117  0.00  0.00    +0.000 OA
ATOM     20  O   UNL     1       8.178   4.191  17.307  0.00  0.00    +0.000 OA
ENDBRANCH  10  17
ENDBRANCH   8  10
ENDBRANCH   7   8
ENDBRANCH   1   7
BRANCH   6  21
ATOM     21  O   UNL     1       2.739   6.300  20.105  0.00  0.00    +0.000 OA
BRANCH  21  22
ATOM     22  C   UNL     1       1.753   7.334  19.932  0.00  0.00    +0.000 C 
BRANCH  22  23
ATOM     23  C   UNL     1       1.197   7.916  21.237  0.00  0.00    +0.000 C 
BRANCH  23  24
ATOM     24  C   UNL     1       0.927   9.438  21.081  0.00  0.00    +0.000 C 
ATOM     25  C   UNL     1      -0.024   9.994  22.157  0.00  0.00    +0.000 C 
ATOM     26  C   UNL     1      -0.334  11.468  21.918  0.00  0.00    +0.000 C 
ATOM     27  O   UNL     1      -0.860  11.670  20.609  0.00  0.00    +0.000 OA
ATOM     28  C   UNL     1       0.067  11.284  19.596  0.00  0.00    +0.000 C 
ATOM     29  C   UNL     1       0.381   9.791  19.690  0.00  0.00    +0.000 C 
ENDBRANCH  23  24
ENDBRANCH  22  23
ENDBRANCH  21  22
ENDBRANCH   6  21
TORSDOF 10
ENDMDL
MODEL 5
REMARK VINA RESULT:      -8.2      2.345      5.594
REMARK  Name = 
REMARK  12 active torsions:
REMARK  status: ('A' for Active; 'I' for Inactive)
REMARK    1  A    between atoms: C_1  and  C_2
REMARK    2  A    between atoms: C_2  and  C_3
REMARK    3  A    between atoms: C_2  and  C_20
REMARK    4  A    between atoms: C_2  and  S_24
REMARK    5  A    between atoms: C_3  and  C_4
REMARK    6  A    between atoms: C_4  and  C_5
REMARK    7  A    between atoms: C_10  and  O_11
REMARK    8  A    between atoms: O_11  and  C_12
REMARK    9  A    between atoms: C_12  and  C_13
REMARK   10  A    between atoms: C_13  and  C_14
REMARK   11  A    between atoms: N_22  and  O_23
REMARK   12  A    between atoms: S_24  and  C_25
REMARK                            x       y       z     vdW  Elec       q    Type
REMARK                         _______ _______ _______ _____ _____    ______ ____
ROOT
ATOM      1  C   UNL     1       2.811   7.092  18.301  0.00  0.00    +0.000 A 
ATOM      2  C   UNL     1       2.192   8.198  17.679  0.00  0.00    +0.000 A 
ATOM      3  C   UNL     1       1.402   9.094  18.397  0.00  0.00    +0.000 A 
ATOM      4  C   UNL     1       1.238   8.918  19.760  0.00  0.00    +0.000 A 
ATOM      5  C   UNL     1       1.815   7.815  20.387  0.00  0.00    +0.000 A 
ATOM      6  C   UNL     1       2.551   6.853  19.665  0.00  0.00    +0.000 A 
ENDROOT
BRANCH   1   7
ATOM      7  C   UNL     1       3.692   6.207  17.436  0.00  0.00    +0.000 C 
BRANCH   7   8
ATOM      8  C   UNL     1       5.178   6.655  17.437  0.00  0.00    +0.000 C 
BRANCH   8  10
ATOM      9  C   UNL     1       5.481   4.424  18.634  0.00  0.00    +0.000 C 
ATOM     10  C   UNL     1       6.192   5.564  17.883  0.00  0.00    +0.000 C 
BRANCH  10  11
ATOM     11  C   UNL     1       7.293   6.180  18.736  0.00  0.00    +0.000 C 
ATOM     12  O   UNL     1       7.674   5.675  19.793  0.00  0.00    +0.000 OA
ATOM     13  N   UNL     1       7.826   7.367  18.289  0.00  0.00    +0.000 N 
ATOM     14  H   UNL     1       7.866   7.594  17.289  0.00  0.00    +0.000 HD
BRANCH  13  15
ATOM     15  O   UNL     1       8.875   7.891  19.080  0.00  0.00    +0.000 OA
ATOM     16  H   UNL     1       8.484   7.896  19.981  0.00  0.00    +0.000 HD
ENDBRANCH  13  15
ENDBRANCH  10  11
BRANCH  10  17
ATOM     17  S   UNL     1       7.012   4.865  16.411  0.00  0.00    +0.000 S 
ATOM     18  C   UNL     1       5.858   3.718  15.680  0.00  0.00    +0.000 C 
ATOM     19  O   UNL     1       7.210   5.938  15.448  0.00  0.00    +0.000 OA
ATOM     20  O   UNL     1       8.157   4.094  16.871  0.00  0.00    +0.000 OA
ENDBRANCH  10  17
ENDBRANCH   8  10
ENDBRANCH   7   8
ENDBRANCH   1   7
BRANCH   6  21
ATOM     21  O   UNL     1       2.989   5.670  20.240  0.00  0.00    +0.000 OA
BRANCH  21  22
ATOM     22  C   UNL     1       1.968   4.988  20.990  0.00  0.00    +0.000 C 
BRANCH  22  23
ATOM     23  C   UNL     1       0.893   4.304  20.137  0.00  0.00    +0.000 C 
BRANCH  23  24
ATOM     24  C   UNL     1       1.491   3.082  19.386  0.00  0.00    +0.000 C 
ATOM     25  C   UNL     1       2.737   2.502  20.080  0.00  0.00    +0.000 C 
ATOM     26  C   UNL     1       3.346   1.363  19.267  0.00  0.00    +0.000 C 
ATOM     27  O   UNL     1       3.645   1.790  17.941  0.00  0.00    +0.000 OA
ATOM     28  C   UNL     1       2.474   2.204  17.238  0.00  0.00    +0.000 C 
ATOM     29  C   UNL     1       1.829   3.408  17.924  0.00  0.00    +0.000 C 
ENDBRANCH  23  24
ENDBRANCH  22  23
ENDBRANCH  21  22
ENDBRANCH   6  21
TORSDOF 10
ENDMDL
MODEL 6
REMARK VINA RESULT:      -8.2      1.001      1.133
REMARK  Name = 
REMARK  12 active torsions:
REMARK  status: ('A' for Active; 'I' for Inactive)
REMARK    1  A    between atoms: C_1  and  C_2
REMARK    2  A    between atoms: C_2  and  C_3
REMARK    3  A    between atoms: C_2  and  C_20
REMARK    4  A    between atoms: C_2  and  S_24
REMARK    5  A    between atoms: C_3  and  C_4
REMARK    6  A    between atoms: C_4  and  C_5
REMARK    7  A    between atoms: C_10  and  O_11
REMARK    8  A    between atoms: O_11  and  C_12
REMARK    9  A    between atoms: C_12  and  C_13
REMARK   10  A    between atoms: C_13  and  C_14
REMARK   11  A    between atoms: N_22  and  O_23
REMARK   12  A    between atoms: S_24  and  C_25
REMARK                            x       y       z     vdW  Elec       q    Type
REMARK                         _______ _______ _______ _____ _____    ______ ____
ROOT
ATOM      1  C   UNL     1       3.035   4.031  18.315  0.00  0.00    +0.000 A 
ATOM      2  C   UNL     1       3.381   2.900  19.087  0.00  0.00    +0.000 A 
ATOM      3  C   UNL     1       2.937   2.745  20.398  0.00  0.00    +0.000 A 
ATOM      4  C   UNL     1       2.112   3.705  20.957  0.00  0.00    +0.000 A 
ATOM      5  C   UNL     1       1.783   4.844  20.222  0.00  0.00    +0.000 A 
ATOM      6  C   UNL     1       2.287   5.059  18.924  0.00  0.00    +0.000 A 
ENDROOT
BRANCH   1   7
ATOM      7  C   UNL     1       3.530   4.076  16.880  0.00  0.00    +0.000 C 
BRANCH   7   8
ATOM      8  C   UNL     1       5.057   3.827  16.764  0.00  0.00    +0.000 C 
BRANCH   8  10
ATOM      9  C   UNL     1       5.001   6.287  16.098  0.00  0.00    +0.000 C 
ATOM     10  C   UNL     1       5.879   5.029  16.220  0.00  0.00    +0.000 C 
BRANCH  10  11
ATOM     11  C   UNL     1       6.517   4.675  14.884  0.00  0.00    +0.000 C 
ATOM     12  O   UNL     1       7.403   5.359  14.369  0.00  0.00    +0.000 OA
ATOM     13  N   UNL     1       6.026   3.559  14.244  0.00  0.00    +0.000 N 
ATOM     14  H   UNL     1       5.637   2.768  14.769  0.00  0.00    +0.000 HD
BRANCH  13  15
ATOM     15  O   UNL     1       6.668   3.233  13.027  0.00  0.00    +0.000 OA
ATOM     16  H   UNL     1       6.224   2.396  12.767  0.00  0.00    +0.000 HD
ENDBRANCH  13  15
ENDBRANCH  10  11
BRANCH  10  17
ATOM     17  S   UNL     1       7.252   5.390  17.367  0.00  0.00    +0.000 S 
ATOM     18  C   UNL     1       6.547   5.455  19.004  0.00  0.00    +0.000 C 
ATOM     19  O   UNL     1       8.170   4.262  17.345  0.00  0.00    +0.000 OA
ATOM     20  O   UNL     1       7.746   6.723  17.054  0.00  0.00    +0.000 OA
ENDBRANCH  10  17
ENDBRANCH   8  10
ENDBRANCH   7   8
ENDBRANCH   1   7
BRANCH   6  21
ATOM     21  O   UNL     1       2.107   6.255  18.247  0.00  0.00    +0.000 OA
BRANCH  21  22
ATOM     22  C   UNL     1       2.488   7.410  19.017  0.00  0.00    +0.000 C 
BRANCH  22  23
ATOM     23  C   UNL     1       1.811   8.718  18.591  0.00  0.00    +0.000 C 
BRANCH  23  24
ATOM     24  C   UNL     1       0.911   9.261  19.735  0.00  0.00    +0.000 C 
ATOM     25  C   UNL     1       0.988  10.791  19.885  0.00  0.00    +0.000 C 
ATOM     26  C   UNL     1       0.162  11.276  21.073  0.00  0.00    +0.000 C 
ATOM     27  O   UNL     1       0.563  10.619  22.272  0.00  0.00    +0.000 OA
ATOM     28  C   UNL     1       0.370   9.207  22.196  0.00  0.00    +0.000 C 
ATOM     29  C   UNL     1       1.228   8.602  21.086  0.00  0.00    +0.000 C 
ENDBRANCH  23  24
ENDBRANCH  22  23
ENDBRANCH  21  22
ENDBRANCH   6  21
TORSDOF 10
ENDMDL
MODEL 7
REMARK VINA RESULT:      -8.1      1.474      1.784
REMARK  Name = 
REMARK  12 active torsions:
REMARK  status: ('A' for Active; 'I' for Inactive)
REMARK    1  A    between atoms: C_1  and  C_2
REMARK    2  A    between atoms: C_2  and  C_3
REMARK    3  A    between atoms: C_2  and  C_20
REMARK    4  A    between atoms: C_2  and  S_24
REMARK    5  A    between atoms: C_3  and  C_4
REMARK    6  A    between atoms: C_4  and  C_5
REMARK    7  A    between atoms: C_10  and  O_11
REMARK    8  A    between atoms: O_11  and  C_12
REMARK    9  A    between atoms: C_12  and  C_13
REMARK   10  A    between atoms: C_13  and  C_14
REMARK   11  A    between atoms: N_22  and  O_23
REMARK   12  A    between atoms: S_24  and  C_25
REMARK                            x       y       z     vdW  Elec       q    Type
REMARK                         _______ _______ _______ _____ _____    ______ ____
ROOT
ATOM      1  C   UNL     1       2.601   4.034  18.243  0.00  0.00    +0.000 A 
ATOM      2  C   UNL     1       2.171   2.707  18.464  0.00  0.00    +0.000 A 
ATOM      3  C   UNL     1       1.451   2.350  19.602  0.00  0.00    +0.000 A 
ATOM      4  C   UNL     1       1.120   3.321  20.531  0.00  0.00    +0.000 A 
ATOM      5  C   UNL     1       1.561   4.630  20.348  0.00  0.00    +0.000 A 
ATOM      6  C   UNL     1       2.359   4.995  19.245  0.00  0.00    +0.000 A 
ENDROOT
BRANCH   1   7
ATOM      7  C   UNL     1       3.335   4.324  16.946  0.00  0.00    +0.000 C 
BRANCH   7   8
ATOM      8  C   UNL     1       4.863   4.080  17.054  0.00  0.00    +0.000 C 
BRANCH   8  10
ATOM      9  C   UNL     1       4.954   6.566  16.492  0.00  0.00    +0.000 C 
ATOM     10  C   UNL     1       5.753   5.251  16.548  0.00  0.00    +0.000 C 
BRANCH  10  11
ATOM     11  C   UNL     1       6.350   4.915  15.188  0.00  0.00    +0.000 C 
ATOM     12  O   UNL     1       5.858   4.071  14.437  0.00  0.00    +0.000 OA
ATOM     13  N   UNL     1       7.508   5.575  14.844  0.00  0.00    +0.000 N 
ATOM     14  H   UNL     1       7.709   6.519  15.191  0.00  0.00    +0.000 HD
BRANCH  13  15
ATOM     15  O   UNL     1       8.014   5.272  13.559  0.00  0.00    +0.000 OA
ATOM     16  H   UNL     1       7.335   4.660  13.199  0.00  0.00    +0.000 HD
ENDBRANCH  13  15
ENDBRANCH  10  11
BRANCH  10  17
ATOM     17  S   UNL     1       7.160   5.476  17.687  0.00  0.00    +0.000 S 
ATOM     18  C   UNL     1       6.513   5.297  19.340  0.00  0.00    +0.000 C 
ATOM     19  O   UNL     1       8.094   4.381  17.476  0.00  0.00    +0.000 OA
ATOM     20  O   UNL     1       7.622   6.849  17.549  0.00  0.00    +0.000 OA
ENDBRANCH  10  17
ENDBRANCH   8  10
ENDBRANCH   7   8
ENDBRANCH   1   7
BRANCH   6  21
ATOM     21  O   UNL     1       2.943   6.248  19.134  0.00  0.00    +0.000 OA
BRANCH  21  22
ATOM     22  C   UNL     1       2.164   7.295  19.741  0.00  0.00    +0.000 C 
BRANCH  22  23
ATOM     23  C   UNL     1       1.988   8.549  18.876  0.00  0.00    +0.000 C 
BRANCH  23  24
ATOM     24  C   UNL     1       0.664   9.277  19.239  0.00  0.00    +0.000 C 
ATOM     25  C   UNL     1      -0.043   9.885  18.014  0.00  0.00    +0.000 C 
ATOM     26  C   UNL     1      -1.289  10.666  18.421  0.00  0.00    +0.000 C 
ATOM     27  O   UNL     1      -0.967  11.668  19.381  0.00  0.00    +0.000 OA
ATOM     28  C   UNL     1      -0.434  11.107  20.579  0.00  0.00    +0.000 C 
ATOM     29  C   UNL     1       0.875  10.371  20.297  0.00  0.00    +0.000 C 
ENDBRANCH  23  24
ENDBRANCH  22  23
ENDBRANCH  21  22
ENDBRANCH   6  21
TORSDOF 10
ENDMDL
MODEL 8
REMARK VINA RESULT:      -8.0      1.232      1.664
REMARK  Name = 
REMARK  12 active torsions:
REMARK  status: ('A' for Active; 'I' for Inactive)
REMARK    1  A    between atoms: C_1  and  C_2
REMARK    2  A    between atoms: C_2  and  C_3
REMARK    3  A    between atoms: C_2  and  C_20
REMARK    4  A    between atoms: C_2  and  S_24
REMARK    5  A    between atoms: C_3  and  C_4
REMARK    6  A    between atoms: C_4  and  C_5
REMARK    7  A    between atoms: C_10  and  O_11
REMARK    8  A    between atoms: O_11  and  C_12
REMARK    9  A    between atoms: C_12  and  C_13
REMARK   10  A    between atoms: C_13  and  C_14
REMARK   11  A    between atoms: N_22  and  O_23
REMARK   12  A    between atoms: S_24  and  C_25
REMARK                            x       y       z     vdW  Elec       q    Type
REMARK                         _______ _______ _______ _____ _____    ______ ____
ROOT
ATOM      1  C   UNL     1       2.616   3.963  18.566  0.00  0.00    +0.000 A 
ATOM      2  C   UNL     1       2.088   2.656  18.638  0.00  0.00    +0.000 A 
ATOM      3  C   UNL     1       1.429   2.193  19.775  0.00  0.00    +0.000 A 
ATOM      4  C   UNL     1       1.260   3.040  20.857  0.00  0.00    +0.000 A 
ATOM      5  C   UNL     1       1.801   4.324  20.818  0.00  0.00    +0.000 A 
ATOM      6  C   UNL     1       2.540   4.783  19.709  0.00  0.00    +0.000 A 
ENDROOT
BRANCH   1   7
ATOM      7  C   UNL     1       3.270   4.382  17.261  0.00  0.00    +0.000 C 
BRANCH   7   8
ATOM      8  C   UNL     1       4.804   4.152  17.258  0.00  0.00    +0.000 C 
BRANCH   8  10
ATOM      9  C   UNL     1       4.891   6.621  16.628  0.00  0.00    +0.000 C 
ATOM     10  C   UNL     1       5.635   5.275  16.576  0.00  0.00    +0.000 C 
BRANCH  10  11
ATOM     11  C   UNL     1       5.972   4.891  15.142  0.00  0.00    +0.000 C 
ATOM     12  O   UNL     1       6.066   5.721  14.236  0.00  0.00    +0.000 OA
ATOM     13  N   UNL     1       6.130   3.547  14.886  0.00  0.00    +0.000 N 
ATOM     14  H   UNL     1       6.471   2.901  15.606  0.00  0.00    +0.000 HD
BRANCH  13  15
ATOM     15  O   UNL     1       6.484   3.227  13.555  0.00  0.00    +0.000 OA
ATOM     16  H   UNL     1       6.072   3.955  13.041  0.00  0.00    +0.000 HD
ENDBRANCH  13  15
ENDBRANCH  10  11
BRANCH  10  17
ATOM     17  S   UNL     1       7.228   5.461  17.447  0.00  0.00    +0.000 S 
ATOM     18  C   UNL     1       6.853   5.525  19.190  0.00  0.00    +0.000 C 
ATOM     19  O   UNL     1       8.009   4.253  17.226  0.00  0.00    +0.000 OA
ATOM     20  O   UNL     1       7.784   6.753  17.075  0.00  0.00    +0.000 OA
ENDBRANCH  10  17
ENDBRANCH   8  10
ENDBRANCH   7   8
ENDBRANCH   1   7
BRANCH   6  21
ATOM     21  O   UNL     1       3.223   5.991  19.721  0.00  0.00    +0.000 OA
BRANCH  21  22
ATOM     22  C   UNL     1       2.381   7.124  19.443  0.00  0.00    +0.000 C 
BRANCH  22  23
ATOM     23  C   UNL     1       1.655   7.700  20.666  0.00  0.00    +0.000 C 
BRANCH  23  24
ATOM     24  C   UNL     1       1.189   9.156  20.385  0.00  0.00    +0.000 C 
ATOM     25  C   UNL     1      -0.214   9.456  20.941  0.00  0.00    +0.000 C 
ATOM     26  C   UNL     1      -0.671  10.862  20.568  0.00  0.00    +0.000 C 
ATOM     27  O   UNL     1      -0.623  11.054  19.157  0.00  0.00    +0.000 OA
ATOM     28  C   UNL     1       0.701  10.912  18.645  0.00  0.00    +0.000 C 
ATOM     29  C   UNL     1       1.226   9.498  18.888  0.00  0.00    +0.000 C 
ENDBRANCH  23  24
ENDBRANCH  22  23
ENDBRANCH  21  22
ENDBRANCH   6  21
TORSDOF 10
ENDMDL
MODEL 9
REMARK VINA RESULT:      -7.9      1.385      1.809
REMARK  Name = 
REMARK  12 active torsions:
REMARK  status: ('A' for Active; 'I' for Inactive)
REMARK    1  A    between atoms: C_1  and  C_2
REMARK    2  A    between atoms: C_2  and  C_3
REMARK    3  A    between atoms: C_2  and  C_20
REMARK    4  A    between atoms: C_2  and  S_24
REMARK    5  A    between atoms: C_3  and  C_4
REMARK    6  A    between atoms: C_4  and  C_5
REMARK    7  A    between atoms: C_10  and  O_11
REMARK    8  A    between atoms: O_11  and  C_12
REMARK    9  A    between atoms: C_12  and  C_13
REMARK   10  A    between atoms: C_13  and  C_14
REMARK   11  A    between atoms: N_22  and  O_23
REMARK   12  A    between atoms: S_24  and  C_25
REMARK                            x       y       z     vdW  Elec       q    Type
REMARK                         _______ _______ _______ _____ _____    ______ ____
ROOT
ATOM      1  C   UNL     1       2.671   5.093  18.593  0.00  0.00    +0.000 A 
ATOM      2  C   UNL     1       2.395   3.716  18.449  0.00  0.00    +0.000 A 
ATOM      3  C   UNL     1       1.609   3.026  19.370  0.00  0.00    +0.000 A 
ATOM      4  C   UNL     1       1.057   3.707  20.441  0.00  0.00    +0.000 A 
ATOM      5  C   UNL     1       1.344   5.060  20.618  0.00  0.00    +0.000 A 
ATOM      6  C   UNL     1       2.202   5.757  19.744  0.00  0.00    +0.000 A 
ENDROOT
BRANCH   1   7
ATOM      7  C   UNL     1       3.497   5.758  17.506  0.00  0.00    +0.000 C 
BRANCH   7   8
ATOM      8  C   UNL     1       4.534   4.797  16.867  0.00  0.00    +0.000 C 
BRANCH   8  10
ATOM      9  C   UNL     1       5.901   6.944  16.722  0.00  0.00    +0.000 C 
ATOM     10  C   UNL     1       5.947   5.408  16.648  0.00  0.00    +0.000 C 
BRANCH  10  11
ATOM     11  C   UNL     1       6.527   4.940  15.321  0.00  0.00    +0.000 C 
ATOM     12  O   UNL     1       7.382   5.581  14.707  0.00  0.00    +0.000 OA
ATOM     13  N   UNL     1       6.019   3.769  14.805  0.00  0.00    +0.000 N 
ATOM     14  H   UNL     1       5.662   3.026  15.415  0.00  0.00    +0.000 HD
BRANCH  13  15
ATOM     15  O   UNL     1       6.608   3.340  13.593  0.00  0.00    +0.000 OA
ATOM     16  H   UNL     1       7.317   4.005  13.450  0.00  0.00    +0.000 HD
ENDBRANCH  13  15
ENDBRANCH  10  11
BRANCH  10  17
ATOM     17  S   UNL     1       7.075   4.799  17.946  0.00  0.00    +0.000 S 
ATOM     18  C   UNL     1       7.749   6.239  18.754  0.00  0.00    +0.000 C 
ATOM     19  O   UNL     1       6.284   4.087  18.939  0.00  0.00    +0.000 OA
ATOM     20  O   UNL     1       8.178   4.117  17.285  0.00  0.00    +0.000 OA
ENDBRANCH  10  17
ENDBRANCH   8  10
ENDBRANCH   7   8
ENDBRANCH   1   7
BRANCH   6  21
ATOM     21  O   UNL     1       2.627   7.052  19.997  0.00  0.00    +0.000 OA
BRANCH  21  22
ATOM     22  C   UNL     1       1.596   8.038  19.808  0.00  0.00    +0.000 C 
BRANCH  22  23
ATOM     23  C   UNL     1       1.779   8.930  18.573  0.00  0.00    +0.000 C 
BRANCH  23  24
ATOM     24  C   UNL     1       0.925  10.221  18.705  0.00  0.00    +0.000 C 
ATOM     25  C   UNL     1       0.855  10.751  20.149  0.00  0.00    +0.000 C 
ATOM     26  C   UNL     1      -0.063  11.965  20.252  0.00  0.00    +0.000 C 
ATOM     27  O   UNL     1      -1.362  11.663  19.749  0.00  0.00    +0.000 OA
ATOM     28  C   UNL     1      -1.328  11.299  18.370  0.00  0.00    +0.000 C 
ATOM     29  C   UNL     1      -0.500  10.031  18.164  0.00  0.00    +0.000 C 
ENDBRANCH  23  24
ENDBRANCH  22  23
ENDBRANCH  21  22
ENDBRANCH   6  21
TORSDOF 10
ENDMDL
