MODEL 1
REMARK VINA RESULT:      -7.2      0.000      0.000
REMARK  Name = 
REMARK  20 active torsions:
REMARK  status: ('A' for Active; 'I' for Inactive)
REMARK    1  A    between atoms: C_1  and  C_2
REMARK    2  A    between atoms: C_2  and  C_3
REMARK    3  A    between atoms: C_3  and  O_4
REMARK    4  A    between atoms: O_4  and  C_5
REMARK    5  A    between atoms: C_5  and  C_6
REMARK    6  A    between atoms: C_6  and  O_7
REMARK    7  A    between atoms: O_7  and  C_8
REMARK    8  A    between atoms: C_8  and  C_10
REMARK    9  A    between atoms: C_11  and  C_12
REMARK   10  A    between atoms: C_14  and  C_15
REMARK   11  A    between atoms: C_16  and  C_17
REMARK   12  A    between atoms: C_17  and  O_19
REMARK   13  A    between atoms: O_19  and  C_20
REMARK   14  A    between atoms: C_20  and  C_21
REMARK   15  A    between atoms: C_21  and  O_22
REMARK   16  A    between atoms: O_22  and  C_23
REMARK   17  A    between atoms: C_23  and  C_24
REMARK   18  A    between atoms: C_24  and  C_25
REMARK   19  A    between atoms: C_26  and  C_27
REMARK   20  A    between atoms: C_31  and  N_32
REMARK                            x       y       z     vdW  Elec       q    Type
REMARK                         _______ _______ _______ _____ _____    ______ ____
ROOT
ATOM      1  C   UNL     1       2.077   7.547  19.223  0.00  0.00    +0.000 C 
ATOM      2  C   UNL     1       1.922   7.413  20.563  0.00  0.00    +0.000 C 
ATOM      3  C   UNL     1       1.586   8.501  21.554  0.00  0.00    +0.000 C 
ATOM      4  N   UNL     1       2.033   6.148  21.134  0.00  0.00    +0.000 N 
ATOM      5  C   UNL     1       2.013   4.960  20.415  0.00  0.00    +0.000 C 
ATOM      6  C   UNL     1       1.797   3.703  21.219  0.00  0.00    +0.000 C 
ATOM      7  C   UNL     1       2.198   4.989  19.074  0.00  0.00    +0.000 C 
ATOM      8  C   UNL     1       2.482   6.326  18.384  0.00  0.00    +0.000 C 
ATOM      9  H   UNL     1       1.824   6.082  22.128  0.00  0.00    +0.000 HD
ENDROOT
BRANCH   8  10
ATOM     10  C   UNL     1       3.963   6.446  17.981  0.00  0.00    +0.000 A 
ATOM     11  C   UNL     1       4.349   7.222  16.870  0.00  0.00    +0.000 A 
ATOM     12  C   UNL     1       5.693   7.355  16.516  0.00  0.00    +0.000 A 
ATOM     13  C   UNL     1       6.679   6.718  17.266  0.00  0.00    +0.000 A 
ATOM     14  C   UNL     1       6.310   5.938  18.366  0.00  0.00    +0.000 A 
ATOM     15  C   UNL     1       4.959   5.791  18.722  0.00  0.00    +0.000 A 
BRANCH  14  16
ATOM     16  N   UNL     1       7.347   5.279  19.169  0.00  0.00    +0.000 N 
ATOM     17  O   UNL     1       8.118   4.498  18.591  0.00  0.00    +0.000 OA
ATOM     18  O   UNL     1       7.393   5.541  20.379  0.00  0.00    +0.000 OA
ENDBRANCH  14  16
ENDBRANCH   8  10
BRANCH   7  19
ATOM     19  C   UNL     1       2.187   3.751  18.236  0.00  0.00    +0.000 C 
ATOM     20  O   UNL     1       1.296   3.418  17.472  0.00  0.00    +0.000 OA
BRANCH  19  21
ATOM     21  O   UNL     1       3.270   2.982  18.518  0.00  0.00    +0.000 OA
BRANCH  21  22
ATOM     22  C   UNL     1       4.014   2.583  17.362  0.00  0.00    +0.000 C 
BRANCH  22  23
ATOM     23  C   UNL     1       4.016   3.616  16.248  0.00  0.00    +0.000 C 
BRANCH  23  24
ATOM     24  O   UNL     1       5.368   3.747  15.799  0.00  0.00    +0.000 OA
BRANCH  24  25
ATOM     25  C   UNL     1       5.464   4.442  14.560  0.00  0.00    +0.000 C 
BRANCH  25  26
ATOM     26  C   UNL     1       6.306   3.609  13.600  0.00  0.00    +0.000 C 
ATOM     27  C   UNL     1       5.590   3.390  12.280  0.00  0.00    +0.000 C 
ENDBRANCH  25  26
ENDBRANCH  24  25
ENDBRANCH  23  24
ENDBRANCH  22  23
ENDBRANCH  21  22
ENDBRANCH  19  21
ENDBRANCH   7  19
BRANCH   1  28
ATOM     28  C   UNL     1       1.788   8.810  18.480  0.00  0.00    +0.000 C 
ATOM     29  O   UNL     1       2.178   9.106  17.367  0.00  0.00    +0.000 OA
BRANCH  28  30
ATOM     30  O   UNL     1       1.135   9.664  19.308  0.00  0.00    +0.000 OA
BRANCH  30  31
ATOM     31  C   UNL     1       0.920  10.972  18.770  0.00  0.00    +0.000 C 
BRANCH  31  32
ATOM     32  C   UNL     1      -0.547  11.365  18.750  0.00  0.00    +0.000 C 
BRANCH  32  33
ATOM     33  O   UNL     1      -1.315  10.173  18.562  0.00  0.00    +0.000 OA
BRANCH  33  34
ATOM     34  C   UNL     1      -1.588   9.926  17.185  0.00  0.00    +0.000 C 
BRANCH  34  36
ATOM     35  C   UNL     1      -3.163  10.653  15.364  0.00  0.00    +0.000 C 
ATOM     36  C   UNL     1      -2.470  11.051  16.656  0.00  0.00    +0.000 C 
ENDBRANCH  34  36
ENDBRANCH  33  34
ENDBRANCH  32  33
ENDBRANCH  31  32
ENDBRANCH  30  31
ENDBRANCH  28  30
ENDBRANCH   1  28
TORSDOF 16
ENDMDL
MODEL 2
REMARK VINA RESULT:      -7.2      1.771      2.919
REMARK  Name = 
REMARK  20 active torsions:
REMARK  status: ('A' for Active; 'I' for Inactive)
REMARK    1  A    between atoms: C_1  and  C_2
REMARK    2  A    between atoms: C_2  and  C_3
REMARK    3  A    between atoms: C_3  and  O_4
REMARK    4  A    between atoms: O_4  and  C_5
REMARK    5  A    between atoms: C_5  and  C_6
REMARK    6  A    between atoms: C_6  and  O_7
REMARK    7  A    between atoms: O_7  and  C_8
REMARK    8  A    between atoms: C_8  and  C_10
REMARK    9  A    between atoms: C_11  and  C_12
REMARK   10  A    between atoms: C_14  and  C_15
REMARK   11  A    between atoms: C_16  and  C_17
REMARK   12  A    between atoms: C_17  and  O_19
REMARK   13  A    between atoms: O_19  and  C_20
REMARK   14  A    between atoms: C_20  and  C_21
REMARK   15  A    between atoms: C_21  and  O_22
REMARK   16  A    between atoms: O_22  and  C_23
REMARK   17  A    between atoms: C_23  and  C_24
REMARK   18  A    between atoms: C_24  and  C_25
REMARK   19  A    between atoms: C_26  and  C_27
REMARK   20  A    between atoms: C_31  and  N_32
REMARK                            x       y       z     vdW  Elec       q    Type
REMARK                         _______ _______ _______ _____ _____    ______ ____
ROOT
ATOM      1  C   UNL     1       2.111   7.549  18.866  0.00  0.00    +0.000 C 
ATOM      2  C   UNL     1       1.976   7.496  20.214  0.00  0.00    +0.000 C 
ATOM      3  C   UNL     1       1.762   8.657  21.153  0.00  0.00    +0.000 C 
ATOM      4  N   UNL     1       1.987   6.255  20.847  0.00  0.00    +0.000 N 
ATOM      5  C   UNL     1       1.843   5.040  20.190  0.00  0.00    +0.000 C 
ATOM      6  C   UNL     1       1.533   3.849  21.061  0.00  0.00    +0.000 C 
ATOM      7  C   UNL     1       1.998   4.986  18.846  0.00  0.00    +0.000 C 
ATOM      8  C   UNL     1       2.386   6.256  18.083  0.00  0.00    +0.000 C 
ATOM      9  H   UNL     1       1.796   6.259  21.847  0.00  0.00    +0.000 HD
ENDROOT
BRANCH   8  10
ATOM     10  C   UNL     1       3.861   6.220  17.646  0.00  0.00    +0.000 A 
ATOM     11  C   UNL     1       4.258   6.736  16.397  0.00  0.00    +0.000 A 
ATOM     12  C   UNL     1       5.598   6.729  16.007  0.00  0.00    +0.000 A 
ATOM     13  C   UNL     1       6.571   6.211  16.859  0.00  0.00    +0.000 A 
ATOM     14  C   UNL     1       6.191   5.690  18.099  0.00  0.00    +0.000 A 
ATOM     15  C   UNL     1       4.842   5.683  18.493  0.00  0.00    +0.000 A 
BRANCH  14  16
ATOM     16  N   UNL     1       7.215   5.158  19.007  0.00  0.00    +0.000 N 
ATOM     17  O   UNL     1       8.136   4.491  18.514  0.00  0.00    +0.000 OA
ATOM     18  O   UNL     1       7.099   5.406  20.215  0.00  0.00    +0.000 OA
ENDBRANCH  14  16
ENDBRANCH   8  10
BRANCH   7  19
ATOM     19  C   UNL     1       1.856   3.714  18.073  0.00  0.00    +0.000 C 
ATOM     20  O   UNL     1       0.805   3.228  17.692  0.00  0.00    +0.000 OA
BRANCH  19  21
ATOM     21  O   UNL     1       3.064   3.109  17.936  0.00  0.00    +0.000 OA
BRANCH  21  22
ATOM     22  C   UNL     1       3.104   1.773  18.449  0.00  0.00    +0.000 C 
BRANCH  22  23
ATOM     23  C   UNL     1       4.476   1.346  18.941  0.00  0.00    +0.000 C 
BRANCH  23  24
ATOM     24  O   UNL     1       4.817   2.204  20.033  0.00  0.00    +0.000 OA
BRANCH  24  25
ATOM     25  C   UNL     1       4.882   1.505  21.272  0.00  0.00    +0.000 C 
BRANCH  25  26
ATOM     26  C   UNL     1       5.677   0.221  21.064  0.00  0.00    +0.000 C 
ATOM     27  C   UNL     1       6.449  -0.163  22.314  0.00  0.00    +0.000 C 
ENDBRANCH  25  26
ENDBRANCH  24  25
ENDBRANCH  23  24
ENDBRANCH  22  23
ENDBRANCH  21  22
ENDBRANCH  19  21
ENDBRANCH   7  19
BRANCH   1  28
ATOM     28  C   UNL     1       1.920   8.794  18.064  0.00  0.00    +0.000 C 
ATOM     29  O   UNL     1       2.766   9.624  17.794  0.00  0.00    +0.000 OA
BRANCH  28  30
ATOM     30  O   UNL     1       0.596   8.946  17.802  0.00  0.00    +0.000 OA
BRANCH  30  31
ATOM     31  C   UNL     1      -0.021  10.053  18.467  0.00  0.00    +0.000 C 
BRANCH  31  32
ATOM     32  C   UNL     1      -1.181  10.637  17.680  0.00  0.00    +0.000 C 
BRANCH  32  33
ATOM     33  O   UNL     1      -2.286   9.738  17.801  0.00  0.00    +0.000 OA
BRANCH  33  34
ATOM     34  C   UNL     1      -3.197   9.862  16.712  0.00  0.00    +0.000 C 
BRANCH  34  36
ATOM     35  C   UNL     1      -5.093  11.342  17.445  0.00  0.00    +0.000 C 
ATOM     36  C   UNL     1      -3.764  11.277  16.712  0.00  0.00    +0.000 C 
ENDBRANCH  34  36
ENDBRANCH  33  34
ENDBRANCH  32  33
ENDBRANCH  31  32
ENDBRANCH  30  31
ENDBRANCH  28  30
ENDBRANCH   1  28
TORSDOF 16
ENDMDL
MODEL 3
REMARK VINA RESULT:      -7.2      2.519      4.600
REMARK  Name = 
REMARK  20 active torsions:
REMARK  status: ('A' for Active; 'I' for Inactive)
REMARK    1  A    between atoms: C_1  and  C_2
REMARK    2  A    between atoms: C_2  and  C_3
REMARK    3  A    between atoms: C_3  and  O_4
REMARK    4  A    between atoms: O_4  and  C_5
REMARK    5  A    between atoms: C_5  and  C_6
REMARK    6  A    between atoms: C_6  and  O_7
REMARK    7  A    between atoms: O_7  and  C_8
REMARK    8  A    between atoms: C_8  and  C_10
REMARK    9  A    between atoms: C_11  and  C_12
REMARK   10  A    between atoms: C_14  and  C_15
REMARK   11  A    between atoms: C_16  and  C_17
REMARK   12  A    between atoms: C_17  and  O_19
REMARK   13  A    between atoms: O_19  and  C_20
REMARK   14  A    between atoms: C_20  and  C_21
REMARK   15  A    between atoms: C_21  and  O_22
REMARK   16  A    between atoms: O_22  and  C_23
REMARK   17  A    between atoms: C_23  and  C_24
REMARK   18  A    between atoms: C_24  and  C_25
REMARK   19  A    between atoms: C_26  and  C_27
REMARK   20  A    between atoms: C_31  and  N_32
REMARK                            x       y       z     vdW  Elec       q    Type
REMARK                         _______ _______ _______ _____ _____    ______ ____
ROOT
ATOM      1  C   UNL     1       2.279   7.606  19.330  0.00  0.00    +0.000 C 
ATOM      2  C   UNL     1       2.159   8.220  18.128  0.00  0.00    +0.000 C 
ATOM      3  C   UNL     1       1.214   9.340  17.767  0.00  0.00    +0.000 C 
ATOM      4  N   UNL     1       3.007   7.843  17.088  0.00  0.00    +0.000 N 
ATOM      5  C   UNL     1       4.158   7.084  17.252  0.00  0.00    +0.000 C 
ATOM      6  C   UNL     1       5.116   7.073  16.089  0.00  0.00    +0.000 C 
ATOM      7  C   UNL     1       4.348   6.402  18.407  0.00  0.00    +0.000 C 
ATOM      8  C   UNL     1       3.261   6.436  19.486  0.00  0.00    +0.000 C 
ATOM      9  H   UNL     1       2.940   8.391  16.232  0.00  0.00    +0.000 HD
ENDROOT
BRANCH   8  10
ATOM     10  C   UNL     1       2.482   5.110  19.539  0.00  0.00    +0.000 A 
ATOM     11  C   UNL     1       1.778   4.640  18.413  0.00  0.00    +0.000 A 
ATOM     12  C   UNL     1       1.091   3.425  18.448  0.00  0.00    +0.000 A 
ATOM     13  C   UNL     1       1.096   2.653  19.607  0.00  0.00    +0.000 A 
ATOM     14  C   UNL     1       1.784   3.110  20.735  0.00  0.00    +0.000 A 
ATOM     15  C   UNL     1       2.468   4.337  20.711  0.00  0.00    +0.000 A 
BRANCH  14  16
ATOM     16  N   UNL     1       1.805   2.292  21.953  0.00  0.00    +0.000 N 
ATOM     17  O   UNL     1       0.758   2.206  22.612  0.00  0.00    +0.000 OA
ATOM     18  O   UNL     1       2.870   1.734  22.254  0.00  0.00    +0.000 OA
ENDBRANCH  14  16
ENDBRANCH   8  10
BRANCH   7  19
ATOM     19  C   UNL     1       5.562   5.567  18.654  0.00  0.00    +0.000 C 
ATOM     20  O   UNL     1       6.357   5.721  19.566  0.00  0.00    +0.000 OA
BRANCH  19  21
ATOM     21  O   UNL     1       5.722   4.662  17.655  0.00  0.00    +0.000 OA
BRANCH  21  22
ATOM     22  C   UNL     1       7.078   4.510  17.223  0.00  0.00    +0.000 C 
BRANCH  22  23
ATOM     23  C   UNL     1       7.219   4.186  15.745  0.00  0.00    +0.000 C 
BRANCH  23  24
ATOM     24  O   UNL     1       5.977   3.618  15.319  0.00  0.00    +0.000 OA
BRANCH  24  25
ATOM     25  C   UNL     1       5.484   4.222  14.128  0.00  0.00    +0.000 C 
BRANCH  25  26
ATOM     26  C   UNL     1       6.199   3.595  12.935  0.00  0.00    +0.000 C 
ATOM     27  C   UNL     1       5.213   3.125  11.881  0.00  0.00    +0.000 C 
ENDBRANCH  25  26
ENDBRANCH  24  25
ENDBRANCH  23  24
ENDBRANCH  22  23
ENDBRANCH  21  22
ENDBRANCH  19  21
ENDBRANCH   7  19
BRANCH   1  28
ATOM     28  C   UNL     1       1.566   8.057  20.563  0.00  0.00    +0.000 C 
ATOM     29  O   UNL     1       0.941   7.360  21.339  0.00  0.00    +0.000 OA
BRANCH  28  30
ATOM     30  O   UNL     1       1.591   9.413  20.610  0.00  0.00    +0.000 OA
BRANCH  30  31
ATOM     31  C   UNL     1       0.827   9.988  21.674  0.00  0.00    +0.000 C 
BRANCH  31  32
ATOM     32  C   UNL     1      -0.512  10.531  21.207  0.00  0.00    +0.000 C 
BRANCH  32  33
ATOM     33  O   UNL     1      -0.757  11.751  21.912  0.00  0.00    +0.000 OA
BRANCH  33  34
ATOM     34  C   UNL     1      -1.610  11.556  23.037  0.00  0.00    +0.000 C 
BRANCH  34  36
ATOM     35  C   UNL     1      -3.760  12.361  24.063  0.00  0.00    +0.000 C 
ATOM     36  C   UNL     1      -2.899  12.337  22.812  0.00  0.00    +0.000 C 
ENDBRANCH  34  36
ENDBRANCH  33  34
ENDBRANCH  32  33
ENDBRANCH  31  32
ENDBRANCH  30  31
ENDBRANCH  28  30
ENDBRANCH   1  28
TORSDOF 16
ENDMDL
MODEL 4
REMARK VINA RESULT:      -7.1      2.708      5.467
REMARK  Name = 
REMARK  20 active torsions:
REMARK  status: ('A' for Active; 'I' for Inactive)
REMARK    1  A    between atoms: C_1  and  C_2
REMARK    2  A    between atoms: C_2  and  C_3
REMARK    3  A    between atoms: C_3  and  O_4
REMARK    4  A    between atoms: O_4  and  C_5
REMARK    5  A    between atoms: C_5  and  C_6
REMARK    6  A    between atoms: C_6  and  O_7
REMARK    7  A    between atoms: O_7  and  C_8
REMARK    8  A    between atoms: C_8  and  C_10
REMARK    9  A    between atoms: C_11  and  C_12
REMARK   10  A    between atoms: C_14  and  C_15
REMARK   11  A    between atoms: C_16  and  C_17
REMARK   12  A    between atoms: C_17  and  O_19
REMARK   13  A    between atoms: O_19  and  C_20
REMARK   14  A    between atoms: C_20  and  C_21
REMARK   15  A    between atoms: C_21  and  O_22
REMARK   16  A    between atoms: O_22  and  C_23
REMARK   17  A    between atoms: C_23  and  C_24
REMARK   18  A    between atoms: C_24  and  C_25
REMARK   19  A    between atoms: C_26  and  C_27
REMARK   20  A    between atoms: C_31  and  N_32
REMARK                            x       y       z     vdW  Elec       q    Type
REMARK                         _______ _______ _______ _____ _____    ______ ____
ROOT
ATOM      1  C   UNL     1       2.331   7.563  19.183  0.00  0.00    +0.000 C 
ATOM      2  C   UNL     1       2.145   8.169  17.985  0.00  0.00    +0.000 C 
ATOM      3  C   UNL     1       1.195   9.300  17.674  0.00  0.00    +0.000 C 
ATOM      4  N   UNL     1       2.919   7.770  16.897  0.00  0.00    +0.000 N 
ATOM      5  C   UNL     1       4.067   6.995  16.995  0.00  0.00    +0.000 C 
ATOM      6  C   UNL     1       4.949   6.959  15.774  0.00  0.00    +0.000 C 
ATOM      7  C   UNL     1       4.320   6.320  18.142  0.00  0.00    +0.000 C 
ATOM      8  C   UNL     1       3.305   6.380  19.288  0.00  0.00    +0.000 C 
ATOM      9  H   UNL     1       2.806   8.311  16.042  0.00  0.00    +0.000 HD
ENDROOT
BRANCH   8  10
ATOM     10  C   UNL     1       2.511   5.067  19.404  0.00  0.00    +0.000 A 
ATOM     11  C   UNL     1       1.759   4.579  18.317  0.00  0.00    +0.000 A 
ATOM     12  C   UNL     1       1.058   3.375  18.408  0.00  0.00    +0.000 A 
ATOM     13  C   UNL     1       1.097   2.631  19.585  0.00  0.00    +0.000 A 
ATOM     14  C   UNL     1       1.835   3.106  20.674  0.00  0.00    +0.000 A 
ATOM     15  C   UNL     1       2.533   4.323  20.593  0.00  0.00    +0.000 A 
BRANCH  14  16
ATOM     16  N   UNL     1       1.892   2.317  21.911  0.00  0.00    +0.000 N 
ATOM     17  O   UNL     1       0.850   2.200  22.573  0.00  0.00    +0.000 OA
ATOM     18  O   UNL     1       2.980   1.813  22.222  0.00  0.00    +0.000 OA
ENDBRANCH  14  16
ENDBRANCH   8  10
BRANCH   7  19
ATOM     19  C   UNL     1       5.535   5.469  18.320  0.00  0.00    +0.000 C 
ATOM     20  O   UNL     1       5.663   4.321  17.929  0.00  0.00    +0.000 OA
BRANCH  19  21
ATOM     21  O   UNL     1       6.458   6.119  19.075  0.00  0.00    +0.000 OA
BRANCH  21  22
ATOM     22  C   UNL     1       7.673   6.415  18.378  0.00  0.00    +0.000 C 
BRANCH  22  23
ATOM     23  C   UNL     1       7.737   7.831  17.832  0.00  0.00    +0.000 C 
BRANCH  23  24
ATOM     24  O   UNL     1       8.692   8.544  18.624  0.00  0.00    +0.000 OA
BRANCH  24  25
ATOM     25  C   UNL     1       8.678   9.943  18.362  0.00  0.00    +0.000 C 
BRANCH  25  26
ATOM     26  C   UNL     1       9.791  10.599  19.172  0.00  0.00    +0.000 C 
ATOM     27  C   UNL     1       9.289  11.068  20.526  0.00  0.00    +0.000 C 
ENDBRANCH  25  26
ENDBRANCH  24  25
ENDBRANCH  23  24
ENDBRANCH  22  23
ENDBRANCH  21  22
ENDBRANCH  19  21
ENDBRANCH   7  19
BRANCH   1  28
ATOM     28  C   UNL     1       1.705   8.036  20.454  0.00  0.00    +0.000 C 
ATOM     29  O   UNL     1       1.212   7.345  21.324  0.00  0.00    +0.000 OA
BRANCH  28  30
ATOM     30  O   UNL     1       1.630   9.391  20.426  0.00  0.00    +0.000 OA
BRANCH  30  31
ATOM     31  C   UNL     1       0.876   9.970  21.495  0.00  0.00    +0.000 C 
BRANCH  31  32
ATOM     32  C   UNL     1       0.272  11.314  21.127  0.00  0.00    +0.000 C 
BRANCH  32  33
ATOM     33  O   UNL     1       1.164  11.957  20.212  0.00  0.00    +0.000 OA
BRANCH  33  34
ATOM     34  C   UNL     1       0.701  13.251  19.837  0.00  0.00    +0.000 C 
BRANCH  34  36
ATOM     35  C   UNL     1       2.639  13.091  18.242  0.00  0.00    +0.000 C 
ATOM     36  C   UNL     1       1.846  14.001  19.165  0.00  0.00    +0.000 C 
ENDBRANCH  34  36
ENDBRANCH  33  34
ENDBRANCH  32  33
ENDBRANCH  31  32
ENDBRANCH  30  31
ENDBRANCH  28  30
ENDBRANCH   1  28
TORSDOF 16
ENDMDL
MODEL 5
REMARK VINA RESULT:      -6.8      2.419      4.400
REMARK  Name = 
REMARK  20 active torsions:
REMARK  status: ('A' for Active; 'I' for Inactive)
REMARK    1  A    between atoms: C_1  and  C_2
REMARK    2  A    between atoms: C_2  and  C_3
REMARK    3  A    between atoms: C_3  and  O_4
REMARK    4  A    between atoms: O_4  and  C_5
REMARK    5  A    between atoms: C_5  and  C_6
REMARK    6  A    between atoms: C_6  and  O_7
REMARK    7  A    between atoms: O_7  and  C_8
REMARK    8  A    between atoms: C_8  and  C_10
REMARK    9  A    between atoms: C_11  and  C_12
REMARK   10  A    between atoms: C_14  and  C_15
REMARK   11  A    between atoms: C_16  and  C_17
REMARK   12  A    between atoms: C_17  and  O_19
REMARK   13  A    between atoms: O_19  and  C_20
REMARK   14  A    between atoms: C_20  and  C_21
REMARK   15  A    between atoms: C_21  and  O_22
REMARK   16  A    between atoms: O_22  and  C_23
REMARK   17  A    between atoms: C_23  and  C_24
REMARK   18  A    between atoms: C_24  and  C_25
REMARK   19  A    between atoms: C_26  and  C_27
REMARK   20  A    between atoms: C_31  and  N_32
REMARK                            x       y       z     vdW  Elec       q    Type
REMARK                         _______ _______ _______ _____ _____    ______ ____
ROOT
ATOM      1  C   UNL     1       2.237   7.654  19.292  0.00  0.00    +0.000 C 
ATOM      2  C   UNL     1       2.123   8.242  18.076  0.00  0.00    +0.000 C 
ATOM      3  C   UNL     1       1.182   9.355  17.687  0.00  0.00    +0.000 C 
ATOM      4  N   UNL     1       2.974   7.841  17.048  0.00  0.00    +0.000 N 
ATOM      5  C   UNL     1       4.124   7.083  17.234  0.00  0.00    +0.000 C 
ATOM      6  C   UNL     1       5.086   7.046  16.074  0.00  0.00    +0.000 C 
ATOM      7  C   UNL     1       4.308   6.427  18.403  0.00  0.00    +0.000 C 
ATOM      8  C   UNL     1       3.217   6.486  19.478  0.00  0.00    +0.000 C 
ATOM      9  H   UNL     1       2.912   8.369  16.180  0.00  0.00    +0.000 HD
ENDROOT
BRANCH   8  10
ATOM     10  C   UNL     1       2.435   5.163  19.557  0.00  0.00    +0.000 A 
ATOM     11  C   UNL     1       1.679   4.704  18.461  0.00  0.00    +0.000 A 
ATOM     12  C   UNL     1       0.988   3.491  18.518  0.00  0.00    +0.000 A 
ATOM     13  C   UNL     1       1.043   2.711  19.671  0.00  0.00    +0.000 A 
ATOM     14  C   UNL     1       1.785   3.157  20.768  0.00  0.00    +0.000 A 
ATOM     15  C   UNL     1       2.472   4.381  20.722  0.00  0.00    +0.000 A 
BRANCH  14  16
ATOM     16  N   UNL     1       1.858   2.329  21.979  0.00  0.00    +0.000 N 
ATOM     17  O   UNL     1       0.835   2.222  22.671  0.00  0.00    +0.000 OA
ATOM     18  O   UNL     1       2.941   1.785  22.239  0.00  0.00    +0.000 OA
ENDBRANCH  14  16
ENDBRANCH   8  10
BRANCH   7  19
ATOM     19  C   UNL     1       5.520   5.595  18.674  0.00  0.00    +0.000 C 
ATOM     20  O   UNL     1       6.341   5.800  19.552  0.00  0.00    +0.000 OA
BRANCH  19  21
ATOM     21  O   UNL     1       5.643   4.623  17.734  0.00  0.00    +0.000 OA
BRANCH  21  22
ATOM     22  C   UNL     1       6.979   4.452  17.249  0.00  0.00    +0.000 C 
BRANCH  22  23
ATOM     23  C   UNL     1       7.053   3.961  15.814  0.00  0.00    +0.000 C 
BRANCH  23  24
ATOM     24  O   UNL     1       7.579   5.034  15.028  0.00  0.00    +0.000 OA
BRANCH  24  25
ATOM     25  C   UNL     1       7.055   5.046  13.704  0.00  0.00    +0.000 C 
BRANCH  25  26
ATOM     26  C   UNL     1       6.031   3.922  13.579  0.00  0.00    +0.000 C 
ATOM     27  C   UNL     1       6.119   3.240  12.225  0.00  0.00    +0.000 C 
ENDBRANCH  25  26
ENDBRANCH  24  25
ENDBRANCH  23  24
ENDBRANCH  22  23
ENDBRANCH  21  22
ENDBRANCH  19  21
ENDBRANCH   7  19
BRANCH   1  28
ATOM     28  C   UNL     1       1.521   8.133  20.512  0.00  0.00    +0.000 C 
ATOM     29  O   UNL     1       1.163   7.459  21.458  0.00  0.00    +0.000 OA
BRANCH  28  30
ATOM     30  O   UNL     1       1.184   9.436  20.336  0.00  0.00    +0.000 OA
BRANCH  30  31
ATOM     31  C   UNL     1      -0.084   9.805  20.887  0.00  0.00    +0.000 C 
BRANCH  31  32
ATOM     32  C   UNL     1       0.042  10.758  22.063  0.00  0.00    +0.000 C 
BRANCH  32  33
ATOM     33  O   UNL     1      -0.265  12.073  21.594  0.00  0.00    +0.000 OA
BRANCH  33  34
ATOM     34  C   UNL     1       0.798  12.626  20.823  0.00  0.00    +0.000 C 
BRANCH  34  36
ATOM     35  C   UNL     1       1.224  13.526  18.514  0.00  0.00    +0.000 C 
ATOM     36  C   UNL     1       0.201  13.352  19.622  0.00  0.00    +0.000 C 
ENDBRANCH  34  36
ENDBRANCH  33  34
ENDBRANCH  32  33
ENDBRANCH  31  32
ENDBRANCH  30  31
ENDBRANCH  28  30
ENDBRANCH   1  28
TORSDOF 16
ENDMDL
MODEL 6
REMARK VINA RESULT:      -6.7      1.132      1.494
REMARK  Name = 
REMARK  20 active torsions:
REMARK  status: ('A' for Active; 'I' for Inactive)
REMARK    1  A    between atoms: C_1  and  C_2
REMARK    2  A    between atoms: C_2  and  C_3
REMARK    3  A    between atoms: C_3  and  O_4
REMARK    4  A    between atoms: O_4  and  C_5
REMARK    5  A    between atoms: C_5  and  C_6
REMARK    6  A    between atoms: C_6  and  O_7
REMARK    7  A    between atoms: O_7  and  C_8
REMARK    8  A    between atoms: C_8  and  C_10
REMARK    9  A    between atoms: C_11  and  C_12
REMARK   10  A    between atoms: C_14  and  C_15
REMARK   11  A    between atoms: C_16  and  C_17
REMARK   12  A    between atoms: C_17  and  O_19
REMARK   13  A    between atoms: O_19  and  C_20
REMARK   14  A    between atoms: C_20  and  C_21
REMARK   15  A    between atoms: C_21  and  O_22
REMARK   16  A    between atoms: O_22  and  C_23
REMARK   17  A    between atoms: C_23  and  C_24
REMARK   18  A    between atoms: C_24  and  C_25
REMARK   19  A    between atoms: C_26  and  C_27
REMARK   20  A    between atoms: C_31  and  N_32
REMARK                            x       y       z     vdW  Elec       q    Type
REMARK                         _______ _______ _______ _____ _____    ______ ____
ROOT
ATOM      1  C   UNL     1       1.963   7.680  18.997  0.00  0.00    +0.000 C 
ATOM      2  C   UNL     1       1.841   7.623  20.346  0.00  0.00    +0.000 C 
ATOM      3  C   UNL     1       1.512   8.761  21.281  0.00  0.00    +0.000 C 
ATOM      4  N   UNL     1       1.984   6.394  20.987  0.00  0.00    +0.000 N 
ATOM      5  C   UNL     1       1.965   5.166  20.338  0.00  0.00    +0.000 C 
ATOM      6  C   UNL     1       1.785   3.955  21.218  0.00  0.00    +0.000 C 
ATOM      7  C   UNL     1       2.118   5.120  18.993  0.00  0.00    +0.000 C 
ATOM      8  C   UNL     1       2.368   6.419  18.221  0.00  0.00    +0.000 C 
ATOM      9  H   UNL     1       1.799   6.384  21.988  0.00  0.00    +0.000 HD
ENDROOT
BRANCH   8  10
ATOM     10  C   UNL     1       3.836   6.534  17.776  0.00  0.00    +0.000 A 
ATOM     11  C   UNL     1       4.167   6.995  16.487  0.00  0.00    +0.000 A 
ATOM     12  C   UNL     1       5.499   7.126  16.088  0.00  0.00    +0.000 A 
ATOM     13  C   UNL     1       6.527   6.803  16.970  0.00  0.00    +0.000 A 
ATOM     14  C   UNL     1       6.214   6.338  18.251  0.00  0.00    +0.000 A 
ATOM     15  C   UNL     1       4.876   6.192  18.655  0.00  0.00    +0.000 A 
BRANCH  14  16
ATOM     16  N   UNL     1       7.295   6.012  19.189  0.00  0.00    +0.000 N 
ATOM     17  O   UNL     1       7.072   5.153  20.055  0.00  0.00    +0.000 OA
ATOM     18  O   UNL     1       8.369   6.616  19.062  0.00  0.00    +0.000 OA
ENDBRANCH  14  16
ENDBRANCH   8  10
BRANCH   7  19
ATOM     19  C   UNL     1       2.106   3.835  18.229  0.00  0.00    +0.000 C 
ATOM     20  O   UNL     1       1.109   3.229  17.874  0.00  0.00    +0.000 OA
BRANCH  19  21
ATOM     21  O   UNL     1       3.372   3.373  18.066  0.00  0.00    +0.000 OA
BRANCH  21  22
ATOM     22  C   UNL     1       3.739   3.157  16.699  0.00  0.00    +0.000 C 
BRANCH  22  23
ATOM     23  C   UNL     1       5.201   3.442  16.404  0.00  0.00    +0.000 C 
BRANCH  23  24
ATOM     24  O   UNL     1       5.317   3.623  14.990  0.00  0.00    +0.000 OA
BRANCH  24  25
ATOM     25  C   UNL     1       6.624   4.036  14.601  0.00  0.00    +0.000 C 
BRANCH  25  26
ATOM     26  C   UNL     1       6.621   4.302  13.100  0.00  0.00    +0.000 C 
ATOM     27  C   UNL     1       7.801   5.164  12.687  0.00  0.00    +0.000 C 
ENDBRANCH  25  26
ENDBRANCH  24  25
ENDBRANCH  23  24
ENDBRANCH  22  23
ENDBRANCH  21  22
ENDBRANCH  19  21
ENDBRANCH   7  19
BRANCH   1  28
ATOM     28  C   UNL     1       1.639   8.894  18.190  0.00  0.00    +0.000 C 
ATOM     29  O   UNL     1       0.664   9.060  17.484  0.00  0.00    +0.000 OA
BRANCH  28  30
ATOM     30  O   UNL     1       2.694   9.747  18.241  0.00  0.00    +0.000 OA
BRANCH  30  31
ATOM     31  C   UNL     1       2.358  11.125  18.059  0.00  0.00    +0.000 C 
BRANCH  31  32
ATOM     32  C   UNL     1       1.416  11.646  19.130  0.00  0.00    +0.000 C 
BRANCH  32  33
ATOM     33  O   UNL     1       0.347  12.334  18.474  0.00  0.00    +0.000 OA
BRANCH  33  34
ATOM     34  C   UNL     1      -0.514  12.990  19.401  0.00  0.00    +0.000 C 
BRANCH  34  36
ATOM     35  C   UNL     1      -2.185  11.684  18.050  0.00  0.00    +0.000 C 
ATOM     36  C   UNL     1      -1.855  12.265  19.414  0.00  0.00    +0.000 C 
ENDBRANCH  34  36
ENDBRANCH  33  34
ENDBRANCH  32  33
ENDBRANCH  31  32
ENDBRANCH  30  31
ENDBRANCH  28  30
ENDBRANCH   1  28
TORSDOF 16
ENDMDL
MODEL 7
REMARK VINA RESULT:      -6.7      1.177      1.886
REMARK  Name = 
REMARK  20 active torsions:
REMARK  status: ('A' for Active; 'I' for Inactive)
REMARK    1  A    between atoms: C_1  and  C_2
REMARK    2  A    between atoms: C_2  and  C_3
REMARK    3  A    between atoms: C_3  and  O_4
REMARK    4  A    between atoms: O_4  and  C_5
REMARK    5  A    between atoms: C_5  and  C_6
REMARK    6  A    between atoms: C_6  and  O_7
REMARK    7  A    between atoms: O_7  and  C_8
REMARK    8  A    between atoms: C_8  and  C_10
REMARK    9  A    between atoms: C_11  and  C_12
REMARK   10  A    between atoms: C_14  and  C_15
REMARK   11  A    between atoms: C_16  and  C_17
REMARK   12  A    between atoms: C_17  and  O_19
REMARK   13  A    between atoms: O_19  and  C_20
REMARK   14  A    between atoms: C_20  and  C_21
REMARK   15  A    between atoms: C_21  and  O_22
REMARK   16  A    between atoms: O_22  and  C_23
REMARK   17  A    between atoms: C_23  and  C_24
REMARK   18  A    between atoms: C_24  and  C_25
REMARK   19  A    between atoms: C_26  and  C_27
REMARK   20  A    between atoms: C_31  and  N_32
REMARK                            x       y       z     vdW  Elec       q    Type
REMARK                         _______ _______ _______ _____ _____    ______ ____
ROOT
ATOM      1  C   UNL     1       2.099   7.471  18.996  0.00  0.00    +0.000 C 
ATOM      2  C   UNL     1       1.930   7.469  20.341  0.00  0.00    +0.000 C 
ATOM      3  C   UNL     1       1.546   8.639  21.213  0.00  0.00    +0.000 C 
ATOM      4  N   UNL     1       2.072   6.271  21.039  0.00  0.00    +0.000 N 
ATOM      5  C   UNL     1       2.099   5.017  20.443  0.00  0.00    +0.000 C 
ATOM      6  C   UNL     1       1.910   3.841  21.368  0.00  0.00    +0.000 C 
ATOM      7  C   UNL     1       2.302   4.916  19.108  0.00  0.00    +0.000 C 
ATOM      8  C   UNL     1       2.555   6.186  18.290  0.00  0.00    +0.000 C 
ATOM      9  H   UNL     1       1.850   6.300  22.032  0.00  0.00    +0.000 HD
ENDROOT
BRANCH   8  10
ATOM     10  C   UNL     1       4.036   6.312  17.893  0.00  0.00    +0.000 A 
ATOM     11  C   UNL     1       4.420   7.051  16.757  0.00  0.00    +0.000 A 
ATOM     12  C   UNL     1       5.765   7.190  16.407  0.00  0.00    +0.000 A 
ATOM     13  C   UNL     1       6.754   6.596  17.188  0.00  0.00    +0.000 A 
ATOM     14  C   UNL     1       6.387   5.854  18.315  0.00  0.00    +0.000 A 
ATOM     15  C   UNL     1       5.036   5.701  18.666  0.00  0.00    +0.000 A 
BRANCH  14  16
ATOM     16  N   UNL     1       7.428   5.241  19.149  0.00  0.00    +0.000 N 
ATOM     17  O   UNL     1       8.258   4.506  18.594  0.00  0.00    +0.000 OA
ATOM     18  O   UNL     1       7.416   5.493  20.362  0.00  0.00    +0.000 OA
ENDBRANCH  14  16
ENDBRANCH   8  10
BRANCH   7  19
ATOM     19  C   UNL     1       2.340   3.601  18.400  0.00  0.00    +0.000 C 
ATOM     20  O   UNL     1       2.209   2.507  18.923  0.00  0.00    +0.000 OA
BRANCH  19  21
ATOM     21  O   UNL     1       2.647   3.782  17.089  0.00  0.00    +0.000 OA
BRANCH  21  22
ATOM     22  C   UNL     1       3.847   3.116  16.678  0.00  0.00    +0.000 C 
BRANCH  22  23
ATOM     23  C   UNL     1       4.540   3.775  15.499  0.00  0.00    +0.000 C 
BRANCH  23  24
ATOM     24  O   UNL     1       5.944   3.551  15.657  0.00  0.00    +0.000 OA
BRANCH  24  25
ATOM     25  C   UNL     1       6.701   4.046  14.557  0.00  0.00    +0.000 C 
BRANCH  25  26
ATOM     26  C   UNL     1       5.790   4.116  13.335  0.00  0.00    +0.000 C 
ATOM     27  C   UNL     1       6.316   3.254  12.201  0.00  0.00    +0.000 C 
ENDBRANCH  25  26
ENDBRANCH  24  25
ENDBRANCH  23  24
ENDBRANCH  22  23
ENDBRANCH  21  22
ENDBRANCH  19  21
ENDBRANCH   7  19
BRANCH   1  28
ATOM     28  C   UNL     1       1.782   8.643  18.126  0.00  0.00    +0.000 C 
ATOM     29  O   UNL     1       2.572   9.451  17.676  0.00  0.00    +0.000 OA
BRANCH  28  30
ATOM     30  O   UNL     1       0.434   8.766  18.033  0.00  0.00    +0.000 OA
BRANCH  30  31
ATOM     31  C   UNL     1      -0.044  10.114  18.022  0.00  0.00    +0.000 C 
BRANCH  31  32
ATOM     32  C   UNL     1      -0.914  10.438  19.224  0.00  0.00    +0.000 C 
BRANCH  32  33
ATOM     33  O   UNL     1      -0.549  11.741  19.688  0.00  0.00    +0.000 OA
BRANCH  33  34
ATOM     34  C   UNL     1       0.863  11.889  19.809  0.00  0.00    +0.000 C 
BRANCH  34  36
ATOM     35  C   UNL     1       0.245  14.242  20.442  0.00  0.00    +0.000 C 
ATOM     36  C   UNL     1       1.151  13.060  20.740  0.00  0.00    +0.000 C 
ENDBRANCH  34  36
ENDBRANCH  33  34
ENDBRANCH  32  33
ENDBRANCH  31  32
ENDBRANCH  30  31
ENDBRANCH  28  30
ENDBRANCH   1  28
TORSDOF 16
ENDMDL
MODEL 8
REMARK VINA RESULT:      -6.7      2.554      4.010
REMARK  Name = 
REMARK  20 active torsions:
REMARK  status: ('A' for Active; 'I' for Inactive)
REMARK    1  A    between atoms: C_1  and  C_2
REMARK    2  A    between atoms: C_2  and  C_3
REMARK    3  A    between atoms: C_3  and  O_4
REMARK    4  A    between atoms: O_4  and  C_5
REMARK    5  A    between atoms: C_5  and  C_6
REMARK    6  A    between atoms: C_6  and  O_7
REMARK    7  A    between atoms: O_7  and  C_8
REMARK    8  A    between atoms: C_8  and  C_10
REMARK    9  A    between atoms: C_11  and  C_12
REMARK   10  A    between atoms: C_14  and  C_15
REMARK   11  A    between atoms: C_16  and  C_17
REMARK   12  A    between atoms: C_17  and  O_19
REMARK   13  A    between atoms: O_19  and  C_20
REMARK   14  A    between atoms: C_20  and  C_21
REMARK   15  A    between atoms: C_21  and  O_22
REMARK   16  A    between atoms: O_22  and  C_23
REMARK   17  A    between atoms: C_23  and  C_24
REMARK   18  A    between atoms: C_24  and  C_25
REMARK   19  A    between atoms: C_26  and  C_27
REMARK   20  A    between atoms: C_31  and  N_32
REMARK                            x       y       z     vdW  Elec       q    Type
REMARK                         _______ _______ _______ _____ _____    ______ ____
ROOT
ATOM      1  C   UNL     1       2.265   7.019  19.005  0.00  0.00    +0.000 C 
ATOM      2  C   UNL     1       1.905   7.031  20.312  0.00  0.00    +0.000 C 
ATOM      3  C   UNL     1       1.531   8.234  21.143  0.00  0.00    +0.000 C 
ATOM      4  N   UNL     1       1.812   5.823  20.999  0.00  0.00    +0.000 N 
ATOM      5  C   UNL     1       1.786   4.575  20.390  0.00  0.00    +0.000 C 
ATOM      6  C   UNL     1       1.338   3.425  21.255  0.00  0.00    +0.000 C 
ATOM      7  C   UNL     1       2.166   4.457  19.096  0.00  0.00    +0.000 C 
ATOM      8  C   UNL     1       2.673   5.693  18.346  0.00  0.00    +0.000 C 
ATOM      9  H   UNL     1       1.455   5.873  21.951  0.00  0.00    +0.000 HD
ENDROOT
BRANCH   8  10
ATOM     10  C   UNL     1       4.201   5.654  18.167  0.00  0.00    +0.000 A 
ATOM     11  C   UNL     1       5.062   5.764  19.276  0.00  0.00    +0.000 A 
ATOM     12  C   UNL     1       6.448   5.703  19.122  0.00  0.00    +0.000 A 
ATOM     13  C   UNL     1       7.003   5.526  17.857  0.00  0.00    +0.000 A 
ATOM     14  C   UNL     1       6.160   5.422  16.745  0.00  0.00    +0.000 A 
ATOM     15  C   UNL     1       4.765   5.494  16.892  0.00  0.00    +0.000 A 
BRANCH  14  16
ATOM     16  N   UNL     1       6.741   5.218  15.412  0.00  0.00    +0.000 N 
ATOM     17  O   UNL     1       7.843   4.654  15.340  0.00  0.00    +0.000 OA
ATOM     18  O   UNL     1       6.096   5.624  14.435  0.00  0.00    +0.000 OA
ENDBRANCH  14  16
ENDBRANCH   8  10
BRANCH   7  19
ATOM     19  C   UNL     1       2.161   3.148  18.375  0.00  0.00    +0.000 C 
ATOM     20  O   UNL     1       1.169   2.515  18.057  0.00  0.00    +0.000 OA
BRANCH  19  21
ATOM     21  O   UNL     1       3.432   2.699  18.206  0.00  0.00    +0.000 OA
BRANCH  21  22
ATOM     22  C   UNL     1       4.173   2.585  19.426  0.00  0.00    +0.000 C 
BRANCH  22  23
ATOM     23  C   UNL     1       4.264   1.165  19.957  0.00  0.00    +0.000 C 
BRANCH  23  24
ATOM     24  O   UNL     1       5.567   1.013  20.528  0.00  0.00    +0.000 OA
BRANCH  24  25
ATOM     25  C   UNL     1       5.844  -0.335  20.896  0.00  0.00    +0.000 C 
BRANCH  25  26
ATOM     26  C   UNL     1       6.473  -0.338  22.285  0.00  0.00    +0.000 C 
ATOM     27  C   UNL     1       7.324  -1.576  22.507  0.00  0.00    +0.000 C 
ENDBRANCH  25  26
ENDBRANCH  24  25
ENDBRANCH  23  24
ENDBRANCH  22  23
ENDBRANCH  21  22
ENDBRANCH  19  21
ENDBRANCH   7  19
BRANCH   1  28
ATOM     28  C   UNL     1       2.208   8.222  18.121  0.00  0.00    +0.000 C 
ATOM     29  O   UNL     1       2.981   8.507  17.228  0.00  0.00    +0.000 OA
BRANCH  28  30
ATOM     30  O   UNL     1       1.229   9.048  18.571  0.00  0.00    +0.000 OA
BRANCH  30  31
ATOM     31  C   UNL     1       1.499  10.442  18.401  0.00  0.00    +0.000 C 
BRANCH  31  32
ATOM     32  C   UNL     1       0.341  11.322  18.838  0.00  0.00    +0.000 C 
BRANCH  32  33
ATOM     33  O   UNL     1       0.465  11.537  20.247  0.00  0.00    +0.000 OA
BRANCH  33  34
ATOM     34  C   UNL     1      -0.207  12.722  20.667  0.00  0.00    +0.000 C 
BRANCH  34  36
ATOM     35  C   UNL     1      -1.160  12.994  22.977  0.00  0.00    +0.000 C 
ATOM     36  C   UNL     1      -1.330  12.332  21.621  0.00  0.00    +0.000 C 
ENDBRANCH  34  36
ENDBRANCH  33  34
ENDBRANCH  32  33
ENDBRANCH  31  32
ENDBRANCH  30  31
ENDBRANCH  28  30
ENDBRANCH   1  28
TORSDOF 16
ENDMDL
MODEL 9
REMARK VINA RESULT:      -6.7      2.258      3.611
REMARK  Name = 
REMARK  20 active torsions:
REMARK  status: ('A' for Active; 'I' for Inactive)
REMARK    1  A    between atoms: C_1  and  C_2
REMARK    2  A    between atoms: C_2  and  C_3
REMARK    3  A    between atoms: C_3  and  O_4
REMARK    4  A    between atoms: O_4  and  C_5
REMARK    5  A    between atoms: C_5  and  C_6
REMARK    6  A    between atoms: C_6  and  O_7
REMARK    7  A    between atoms: O_7  and  C_8
REMARK    8  A    between atoms: C_8  and  C_10
REMARK    9  A    between atoms: C_11  and  C_12
REMARK   10  A    between atoms: C_14  and  C_15
REMARK   11  A    between atoms: C_16  and  C_17
REMARK   12  A    between atoms: C_17  and  O_19
REMARK   13  A    between atoms: O_19  and  C_20
REMARK   14  A    between atoms: C_20  and  C_21
REMARK   15  A    between atoms: C_21  and  O_22
REMARK   16  A    between atoms: O_22  and  C_23
REMARK   17  A    between atoms: C_23  and  C_24
REMARK   18  A    between atoms: C_24  and  C_25
REMARK   19  A    between atoms: C_26  and  C_27
REMARK   20  A    between atoms: C_31  and  N_32
REMARK                            x       y       z     vdW  Elec       q    Type
REMARK                         _______ _______ _______ _____ _____    ______ ____
ROOT
ATOM      1  C   UNL     1       2.371   6.670  18.894  0.00  0.00    +0.000 C 
ATOM      2  C   UNL     1       2.198   6.795  20.233  0.00  0.00    +0.000 C 
ATOM      3  C   UNL     1       2.031   8.075  21.014  0.00  0.00    +0.000 C 
ATOM      4  N   UNL     1       2.115   5.645  21.014  0.00  0.00    +0.000 N 
ATOM      5  C   UNL     1       1.914   4.367  20.509  0.00  0.00    +0.000 C 
ATOM      6  C   UNL     1       1.509   3.315  21.509  0.00  0.00    +0.000 C 
ATOM      7  C   UNL     1       2.101   4.136  19.188  0.00  0.00    +0.000 C 
ATOM      8  C   UNL     1       2.586   5.276  18.287  0.00  0.00    +0.000 C 
ATOM      9  H   UNL     1       1.898   5.785  21.999  0.00  0.00    +0.000 HD
ENDROOT
BRANCH   8  10
ATOM     10  C   UNL     1       4.067   5.100  17.908  0.00  0.00    +0.000 A 
ATOM     11  C   UNL     1       4.434   4.530  16.673  0.00  0.00    +0.000 A 
ATOM     12  C   UNL     1       5.777   4.392  16.314  0.00  0.00    +0.000 A 
ATOM     13  C   UNL     1       6.779   4.825  17.179  0.00  0.00    +0.000 A 
ATOM     14  C   UNL     1       6.429   5.387  18.410  0.00  0.00    +0.000 A 
ATOM     15  C   UNL     1       5.081   5.518  18.783  0.00  0.00    +0.000 A 
BRANCH  14  16
ATOM     16  N   UNL     1       7.482   5.859  19.317  0.00  0.00    +0.000 N 
ATOM     17  O   UNL     1       7.570   5.325  20.433  0.00  0.00    +0.000 OA
ATOM     18  O   UNL     1       8.224   6.766  18.915  0.00  0.00    +0.000 OA
ENDBRANCH  14  16
ENDBRANCH   8  10
BRANCH   7  19
ATOM     19  C   UNL     1       1.901   2.788  18.574  0.00  0.00    +0.000 C 
ATOM     20  O   UNL     1       1.249   2.553  17.570  0.00  0.00    +0.000 OA
BRANCH  19  21
ATOM     21  O   UNL     1       2.467   1.828  19.351  0.00  0.00    +0.000 OA
BRANCH  21  22
ATOM     22  C   UNL     1       3.863   1.631  19.102  0.00  0.00    +0.000 C 
BRANCH  22  23
ATOM     23  C   UNL     1       4.767   2.279  20.136  0.00  0.00    +0.000 C 
BRANCH  23  24
ATOM     24  O   UNL     1       5.308   1.226  20.940  0.00  0.00    +0.000 OA
BRANCH  24  25
ATOM     25  C   UNL     1       5.504   0.025  20.200  0.00  0.00    +0.000 C 
BRANCH  25  26
ATOM     26  C   UNL     1       6.137  -1.013  21.121  0.00  0.00    +0.000 C 
ATOM     27  C   UNL     1       6.646  -0.380  22.404  0.00  0.00    +0.000 C 
ENDBRANCH  25  26
ENDBRANCH  24  25
ENDBRANCH  23  24
ENDBRANCH  22  23
ENDBRANCH  21  22
ENDBRANCH  19  21
ENDBRANCH   7  19
BRANCH   1  28
ATOM     28  C   UNL     1       2.278   7.814  17.939  0.00  0.00    +0.000 C 
ATOM     29  O   UNL     1       3.008   8.035  16.993  0.00  0.00    +0.000 OA
BRANCH  28  30
ATOM     30  O   UNL     1       1.327   8.676  18.382  0.00  0.00    +0.000 OA
BRANCH  30  31
ATOM     31  C   UNL     1       1.373   9.975  17.783  0.00  0.00    +0.000 C 
BRANCH  31  32
ATOM     32  C   UNL     1       1.340  11.095  18.809  0.00  0.00    +0.000 C 
BRANCH  32  33
ATOM     33  O   UNL     1       2.364  12.032  18.464  0.00  0.00    +0.000 OA
BRANCH  33  34
ATOM     34  C   UNL     1       1.834  13.328  18.200  0.00  0.00    +0.000 C 
BRANCH  34  36
ATOM     35  C   UNL     1      -0.241  14.592  18.850  0.00  0.00    +0.000 C 
ATOM     36  C   UNL     1       0.896  13.712  19.339  0.00  0.00    +0.000 C 
ENDBRANCH  34  36
ENDBRANCH  33  34
ENDBRANCH  32  33
ENDBRANCH  31  32
ENDBRANCH  30  31
ENDBRANCH  28  30
ENDBRANCH   1  28
TORSDOF 16
ENDMDL
