MODEL 1
REMARK VINA RESULT:      -6.9      0.000      0.000
REMARK  Name = 
REMARK  5 active torsions:
REMARK  status: ('A' for Active; 'I' for Inactive)
REMARK    1  A    between atoms: C_1  and  C_2
REMARK    2  A    between atoms: C_2  and  C_3
REMARK    3  A    between atoms: C_3  and  C_4
REMARK    4  A    between atoms: C_4  and  N_5
REMARK    5  A    between atoms: C_9  and  C_10
REMARK                            x       y       z     vdW  Elec       q    Type
REMARK                         _______ _______ _______ _____ _____    ______ ____
ROOT
ATOM      1  N   UNL     1       5.895   4.297  15.774  0.00  0.00    +0.000 N 
ATOM      2  C   UNL     1       7.200   4.721  15.861  0.00  0.00    +0.000 A 
ATOM      3  N   UNL     1       7.567   4.915  17.103  0.00  0.00    +0.000 NA
ATOM      4  C   UNL     1       6.467   4.594  17.849  0.00  0.00    +0.000 A 
ATOM      5  C   UNL     1       5.401   4.176  17.062  0.00  0.00    +0.000 A 
ENDROOT
BRANCH   5   6
ATOM      6  C   UNL     1       4.057   3.767  17.485  0.00  0.00    +0.000 A 
ATOM      7  C   UNL     1       3.814   2.421  17.812  0.00  0.00    +0.000 A 
ATOM      8  C   UNL     1       2.543   1.999  18.220  0.00  0.00    +0.000 A 
ATOM      9  C   UNL     1       1.514   2.925  18.317  0.00  0.00    +0.000 A 
ATOM     10  F   UNL     1       0.300   2.528  18.720  0.00  0.00    +0.000 F 
ATOM     11  C   UNL     1       1.726   4.259  17.996  0.00  0.00    +0.000 A 
ATOM     12  C   UNL     1       2.988   4.672  17.558  0.00  0.00    +0.000 A 
ENDBRANCH   5   6
BRANCH   1  13
ATOM     13  C   UNL     1       5.235   4.067  14.503  0.00  0.00    +0.000 C 
BRANCH  13  14
ATOM     14  C   UNL     1       6.158   3.758  13.325  0.00  0.00    +0.000 C 
BRANCH  14  16
ATOM     15  C   UNL     1       5.798   2.007  11.566  0.00  0.00    +0.000 C 
ATOM     16  C   UNL     1       5.402   3.394  12.048  0.00  0.00    +0.000 C 
ENDBRANCH  14  16
ENDBRANCH  13  14
ENDBRANCH   1  13
TORSDOF 4
ENDMDL
MODEL 2
REMARK VINA RESULT:      -6.9      1.052      1.313
REMARK  Name = 
REMARK  5 active torsions:
REMARK  status: ('A' for Active; 'I' for Inactive)
REMARK    1  A    between atoms: C_1  and  C_2
REMARK    2  A    between atoms: C_2  and  C_3
REMARK    3  A    between atoms: C_3  and  C_4
REMARK    4  A    between atoms: C_4  and  N_5
REMARK    5  A    between atoms: C_9  and  C_10
REMARK                            x       y       z     vdW  Elec       q    Type
REMARK                         _______ _______ _______ _____ _____    ______ ____
ROOT
ATOM      1  N   UNL     1       6.153   4.262  17.143  0.00  0.00    +0.000 N 
ATOM      2  C   UNL     1       7.333   4.857  17.520  0.00  0.00    +0.000 A 
ATOM      3  N   UNL     1       7.287   5.293  18.753  0.00  0.00    +0.000 NA
ATOM      4  C   UNL     1       6.037   4.958  19.197  0.00  0.00    +0.000 A 
ATOM      5  C   UNL     1       5.298   4.287  18.231  0.00  0.00    +0.000 A 
ENDROOT
BRANCH   5   6
ATOM      6  C   UNL     1       3.923   3.783  18.319  0.00  0.00    +0.000 A 
ATOM      7  C   UNL     1       3.681   2.529  18.909  0.00  0.00    +0.000 A 
ATOM      8  C   UNL     1       2.381   2.021  19.009  0.00  0.00    +0.000 A 
ATOM      9  C   UNL     1       1.315   2.772  18.531  0.00  0.00    +0.000 A 
ATOM     10  F   UNL     1       0.069   2.294  18.636  0.00  0.00    +0.000 F 
ATOM     11  C   UNL     1       1.526   4.009  17.940  0.00  0.00    +0.000 A 
ATOM     12  C   UNL     1       2.829   4.500  17.813  0.00  0.00    +0.000 A 
ENDBRANCH   5   6
BRANCH   1  13
ATOM     13  C   UNL     1       5.933   3.748  15.804  0.00  0.00    +0.000 C 
BRANCH  13  14
ATOM     14  C   UNL     1       5.876   4.798  14.694  0.00  0.00    +0.000 C 
BRANCH  14  16
ATOM     15  C   UNL     1       5.983   3.451  12.583  0.00  0.00    +0.000 C 
ATOM     16  C   UNL     1       6.723   4.434  13.476  0.00  0.00    +0.000 C 
ENDBRANCH  14  16
ENDBRANCH  13  14
ENDBRANCH   1  13
TORSDOF 4
ENDMDL
MODEL 3
REMARK VINA RESULT:      -6.8      0.833      1.550
REMARK  Name = 
REMARK  5 active torsions:
REMARK  status: ('A' for Active; 'I' for Inactive)
REMARK    1  A    between atoms: C_1  and  C_2
REMARK    2  A    between atoms: C_2  and  C_3
REMARK    3  A    between atoms: C_3  and  C_4
REMARK    4  A    between atoms: C_4  and  N_5
REMARK    5  A    between atoms: C_9  and  C_10
REMARK                            x       y       z     vdW  Elec       q    Type
REMARK                         _______ _______ _______ _____ _____    ______ ____
ROOT
ATOM      1  N   UNL     1       6.127   4.386  16.748  0.00  0.00    +0.000 N 
ATOM      2  C   UNL     1       7.225   5.184  16.967  0.00  0.00    +0.000 A 
ATOM      3  N   UNL     1       7.117   5.866  18.079  0.00  0.00    +0.000 NA
ATOM      4  C   UNL     1       5.913   5.489  18.607  0.00  0.00    +0.000 A 
ATOM      5  C   UNL     1       5.267   4.544  17.821  0.00  0.00    +0.000 A 
ENDROOT
BRANCH   5   6
ATOM      6  C   UNL     1       3.961   3.911  18.040  0.00  0.00    +0.000 A 
ATOM      7  C   UNL     1       2.787   4.627  17.743  0.00  0.00    +0.000 A 
ATOM      8  C   UNL     1       1.526   4.051  17.940  0.00  0.00    +0.000 A 
ATOM      9  C   UNL     1       1.435   2.752  18.419  0.00  0.00    +0.000 A 
ATOM     10  F   UNL     1       0.231   2.193  18.595  0.00  0.00    +0.000 F 
ATOM     11  C   UNL     1       2.577   2.025  18.724  0.00  0.00    +0.000 A 
ATOM     12  C   UNL     1       3.835   2.614  18.558  0.00  0.00    +0.000 A 
ENDBRANCH   5   6
BRANCH   1  13
ATOM     13  C   UNL     1       5.980   3.575  15.555  0.00  0.00    +0.000 C 
BRANCH  13  14
ATOM     14  C   UNL     1       5.622   4.336  14.278  0.00  0.00    +0.000 C 
BRANCH  14  16
ATOM     15  C   UNL     1       5.117   3.322  12.041  0.00  0.00    +0.000 C 
ATOM     16  C   UNL     1       6.216   3.710  13.017  0.00  0.00    +0.000 C 
ENDBRANCH  14  16
ENDBRANCH  13  14
ENDBRANCH   1  13
TORSDOF 4
ENDMDL
MODEL 4
REMARK VINA RESULT:      -6.5      1.664      3.701
REMARK  Name = 
REMARK  5 active torsions:
REMARK  status: ('A' for Active; 'I' for Inactive)
REMARK    1  A    between atoms: C_1  and  C_2
REMARK    2  A    between atoms: C_2  and  C_3
REMARK    3  A    between atoms: C_3  and  C_4
REMARK    4  A    between atoms: C_4  and  N_5
REMARK    5  A    between atoms: C_9  and  C_10
REMARK                            x       y       z     vdW  Elec       q    Type
REMARK                         _______ _______ _______ _____ _____    ______ ____
ROOT
ATOM      1  N   UNL     1       6.575   4.670  16.590  0.00  0.00    +0.000 N 
ATOM      2  C   UNL     1       7.318   4.768  15.438  0.00  0.00    +0.000 A 
ATOM      3  N   UNL     1       6.563   4.741  14.369  0.00  0.00    +0.000 NA
ATOM      4  C   UNL     1       5.285   4.634  14.843  0.00  0.00    +0.000 A 
ATOM      5  C   UNL     1       5.239   4.611  16.231  0.00  0.00    +0.000 A 
ENDROOT
BRANCH   5   6
ATOM      6  C   UNL     1       4.067   4.490  17.106  0.00  0.00    +0.000 A 
ATOM      7  C   UNL     1       3.519   3.219  17.357  0.00  0.00    +0.000 A 
ATOM      8  C   UNL     1       2.402   3.071  18.188  0.00  0.00    +0.000 A 
ATOM      9  C   UNL     1       1.839   4.191  18.783  0.00  0.00    +0.000 A 
ATOM     10  F   UNL     1       0.778   4.051  19.589  0.00  0.00    +0.000 F 
ATOM     11  C   UNL     1       2.357   5.456  18.548  0.00  0.00    +0.000 A 
ATOM     12  C   UNL     1       3.452   5.606  17.692  0.00  0.00    +0.000 A 
ENDBRANCH   5   6
BRANCH   1  13
ATOM     13  C   UNL     1       7.183   4.620  17.906  0.00  0.00    +0.000 C 
BRANCH  13  14
ATOM     14  C   UNL     1       7.005   5.872  18.765  0.00  0.00    +0.000 C 
BRANCH  14  16
ATOM     15  C   UNL     1       7.628   7.964  17.532  0.00  0.00    +0.000 C 
ATOM     16  C   UNL     1       8.093   6.920  18.534  0.00  0.00    +0.000 C 
ENDBRANCH  14  16
ENDBRANCH  13  14
ENDBRANCH   1  13
TORSDOF 4
ENDMDL
MODEL 5
REMARK VINA RESULT:      -6.5      3.917      6.477
REMARK  Name = 
REMARK  5 active torsions:
REMARK  status: ('A' for Active; 'I' for Inactive)
REMARK    1  A    between atoms: C_1  and  C_2
REMARK    2  A    between atoms: C_2  and  C_3
REMARK    3  A    between atoms: C_3  and  C_4
REMARK    4  A    between atoms: C_4  and  N_5
REMARK    5  A    between atoms: C_9  and  C_10
REMARK                            x       y       z     vdW  Elec       q    Type
REMARK                         _______ _______ _______ _____ _____    ______ ____
ROOT
ATOM      1  N   UNL     1       2.671   4.854  18.380  0.00  0.00    +0.000 N 
ATOM      2  C   UNL     1       1.768   3.974  17.833  0.00  0.00    +0.000 A 
ATOM      3  N   UNL     1       2.320   3.217  16.917  0.00  0.00    +0.000 NA
ATOM      4  C   UNL     1       3.629   3.611  16.878  0.00  0.00    +0.000 A 
ATOM      5  C   UNL     1       3.903   4.617  17.794  0.00  0.00    +0.000 A 
ENDROOT
BRANCH   5   6
ATOM      6  C   UNL     1       5.174   5.308  18.041  0.00  0.00    +0.000 A 
ATOM      7  C   UNL     1       5.613   6.293  17.137  0.00  0.00    +0.000 A 
ATOM      8  C   UNL     1       6.820   6.971  17.345  0.00  0.00    +0.000 A 
ATOM      9  C   UNL     1       7.585   6.678  18.465  0.00  0.00    +0.000 A 
ATOM     10  F   UNL     1       8.734   7.333  18.674  0.00  0.00    +0.000 F 
ATOM     11  C   UNL     1       7.178   5.708  19.370  0.00  0.00    +0.000 A 
ATOM     12  C   UNL     1       5.988   5.009  19.143  0.00  0.00    +0.000 A 
ENDBRANCH   5   6
BRANCH   1  13
ATOM     13  C   UNL     1       2.293   5.839  19.375  0.00  0.00    +0.000 C 
BRANCH  13  14
ATOM     14  C   UNL     1       1.726   5.277  20.679  0.00  0.00    +0.000 C 
BRANCH  14  16
ATOM     15  C   UNL     1       1.456   2.884  21.377  0.00  0.00    +0.000 C 
ATOM     16  C   UNL     1       2.446   4.017  21.155  0.00  0.00    +0.000 C 
ENDBRANCH  14  16
ENDBRANCH  13  14
ENDBRANCH   1  13
TORSDOF 4
ENDMDL
MODEL 6
REMARK VINA RESULT:      -6.5      1.858      3.981
REMARK  Name = 
REMARK  5 active torsions:
REMARK  status: ('A' for Active; 'I' for Inactive)
REMARK    1  A    between atoms: C_1  and  C_2
REMARK    2  A    between atoms: C_2  and  C_3
REMARK    3  A    between atoms: C_3  and  C_4
REMARK    4  A    between atoms: C_4  and  N_5
REMARK    5  A    between atoms: C_9  and  C_10
REMARK                            x       y       z     vdW  Elec       q    Type
REMARK                         _______ _______ _______ _____ _____    ______ ____
ROOT
ATOM      1  N   UNL     1       6.681   4.731  16.441  0.00  0.00    +0.000 N 
ATOM      2  C   UNL     1       7.290   4.695  15.209  0.00  0.00    +0.000 A 
ATOM      3  N   UNL     1       6.417   4.597  14.238  0.00  0.00    +0.000 NA
ATOM      4  C   UNL     1       5.199   4.583  14.860  0.00  0.00    +0.000 A 
ATOM      5  C   UNL     1       5.312   4.690  16.240  0.00  0.00    +0.000 A 
ENDROOT
BRANCH   5   6
ATOM      6  C   UNL     1       4.245   4.696  17.247  0.00  0.00    +0.000 A 
ATOM      7  C   UNL     1       3.770   5.922  17.746  0.00  0.00    +0.000 A 
ATOM      8  C   UNL     1       2.752   5.960  18.707  0.00  0.00    +0.000 A 
ATOM      9  C   UNL     1       2.195   4.773  19.160  0.00  0.00    +0.000 A 
ATOM     10  F   UNL     1       1.212   4.806  20.069  0.00  0.00    +0.000 F 
ATOM     11  C   UNL     1       2.647   3.549  18.687  0.00  0.00    +0.000 A 
ATOM     12  C   UNL     1       3.687   3.512  17.752  0.00  0.00    +0.000 A 
ENDBRANCH   5   6
BRANCH   1  13
ATOM     13  C   UNL     1       7.434   4.780  17.680  0.00  0.00    +0.000 C 
BRANCH  13  14
ATOM     14  C   UNL     1       7.479   6.142  18.373  0.00  0.00    +0.000 C 
BRANCH  14  16
ATOM     15  C   UNL     1       8.148   8.524  17.969  0.00  0.00    +0.000 C 
ATOM     16  C   UNL     1       7.422   7.317  17.398  0.00  0.00    +0.000 C 
ENDBRANCH  14  16
ENDBRANCH  13  14
ENDBRANCH   1  13
TORSDOF 4
ENDMDL
MODEL 7
REMARK VINA RESULT:      -6.5      3.797      6.020
REMARK  Name = 
REMARK  5 active torsions:
REMARK  status: ('A' for Active; 'I' for Inactive)
REMARK    1  A    between atoms: C_1  and  C_2
REMARK    2  A    between atoms: C_2  and  C_3
REMARK    3  A    between atoms: C_3  and  C_4
REMARK    4  A    between atoms: C_4  and  N_5
REMARK    5  A    between atoms: C_9  and  C_10
REMARK                            x       y       z     vdW  Elec       q    Type
REMARK                         _______ _______ _______ _____ _____    ______ ____
ROOT
ATOM      1  N   UNL     1       2.923   4.452  18.180  0.00  0.00    +0.000 N 
ATOM      2  C   UNL     1       3.989   3.607  17.988  0.00  0.00    +0.000 A 
ATOM      3  N   UNL     1       5.134   4.226  18.134  0.00  0.00    +0.000 NA
ATOM      4  C   UNL     1       4.799   5.515  18.444  0.00  0.00    +0.000 A 
ATOM      5  C   UNL     1       3.424   5.700  18.509  0.00  0.00    +0.000 A 
ENDROOT
BRANCH   5   6
ATOM      6  C   UNL     1       2.679   6.931  18.795  0.00  0.00    +0.000 A 
ATOM      7  C   UNL     1       2.508   7.889  17.779  0.00  0.00    +0.000 A 
ATOM      8  C   UNL     1       1.801   9.073  18.020  0.00  0.00    +0.000 A 
ATOM      9  C   UNL     1       1.250   9.297  19.274  0.00  0.00    +0.000 A 
ATOM     10  F   UNL     1       0.562  10.423  19.504  0.00  0.00    +0.000 F 
ATOM     11  C   UNL     1       1.407   8.372  20.295  0.00  0.00    +0.000 A 
ATOM     12  C   UNL     1       2.141   7.204  20.062  0.00  0.00    +0.000 A 
ENDBRANCH   5   6
BRANCH   1  13
ATOM     13  C   UNL     1       1.548   4.019  18.019  0.00  0.00    +0.000 C 
BRANCH  13  14
ATOM     14  C   UNL     1       1.022   3.070  19.096  0.00  0.00    +0.000 C 
BRANCH  14  16
ATOM     15  C   UNL     1       1.669   2.777  21.501  0.00  0.00    +0.000 C 
ATOM     16  C   UNL     1       1.000   3.695  20.490  0.00  0.00    +0.000 C 
ENDBRANCH  14  16
ENDBRANCH  13  14
ENDBRANCH   1  13
TORSDOF 4
ENDMDL
MODEL 8
REMARK VINA RESULT:      -6.5      0.666      1.419
REMARK  Name = 
REMARK  5 active torsions:
REMARK  status: ('A' for Active; 'I' for Inactive)
REMARK    1  A    between atoms: C_1  and  C_2
REMARK    2  A    between atoms: C_2  and  C_3
REMARK    3  A    between atoms: C_3  and  C_4
REMARK    4  A    between atoms: C_4  and  N_5
REMARK    5  A    between atoms: C_9  and  C_10
REMARK                            x       y       z     vdW  Elec       q    Type
REMARK                         _______ _______ _______ _____ _____    ______ ____
ROOT
ATOM      1  N   UNL     1       6.011   4.361  15.545  0.00  0.00    +0.000 N 
ATOM      2  C   UNL     1       7.155   5.118  15.467  0.00  0.00    +0.000 A 
ATOM      3  N   UNL     1       7.295   5.898  16.510  0.00  0.00    +0.000 NA
ATOM      4  C   UNL     1       6.211   5.628  17.298  0.00  0.00    +0.000 A 
ATOM      5  C   UNL     1       5.389   4.653  16.747  0.00  0.00    +0.000 A 
ENDROOT
BRANCH   5   6
ATOM      6  C   UNL     1       4.135   4.107  17.278  0.00  0.00    +0.000 A 
ATOM      7  C   UNL     1       3.076   4.981  17.586  0.00  0.00    +0.000 A 
ATOM      8  C   UNL     1       1.866   4.491  18.092  0.00  0.00    +0.000 A 
ATOM      9  C   UNL     1       1.705   3.126  18.277  0.00  0.00    +0.000 A 
ATOM     10  F   UNL     1       0.544   2.653  18.749  0.00  0.00    +0.000 F 
ATOM     11  C   UNL     1       2.734   2.242  17.986  0.00  0.00    +0.000 A 
ATOM     12  C   UNL     1       3.954   2.736  17.511  0.00  0.00    +0.000 A 
ENDBRANCH   5   6
BRANCH   1  13
ATOM     13  C   UNL     1       5.601   3.459  14.486  0.00  0.00    +0.000 C 
BRANCH  13  14
ATOM     14  C   UNL     1       5.990   3.882  13.069  0.00  0.00    +0.000 C 
BRANCH  14  16
ATOM     15  C   UNL     1       4.320   3.258  11.307  0.00  0.00    +0.000 C 
ATOM     16  C   UNL     1       5.608   2.853  12.007  0.00  0.00    +0.000 C 
ENDBRANCH  14  16
ENDBRANCH  13  14
ENDBRANCH   1  13
TORSDOF 4
ENDMDL
MODEL 9
REMARK VINA RESULT:      -6.5      1.675      3.908
REMARK  Name = 
REMARK  5 active torsions:
REMARK  status: ('A' for Active; 'I' for Inactive)
REMARK    1  A    between atoms: C_1  and  C_2
REMARK    2  A    between atoms: C_2  and  C_3
REMARK    3  A    between atoms: C_3  and  C_4
REMARK    4  A    between atoms: C_4  and  N_5
REMARK    5  A    between atoms: C_9  and  C_10
REMARK                            x       y       z     vdW  Elec       q    Type
REMARK                         _______ _______ _______ _____ _____    ______ ____
ROOT
ATOM      1  N   UNL     1       6.248   4.901  17.037  0.00  0.00    +0.000 N 
ATOM      2  C   UNL     1       7.162   4.955  16.013  0.00  0.00    +0.000 A 
ATOM      3  N   UNL     1       6.768   4.265  14.972  0.00  0.00    +0.000 NA
ATOM      4  C   UNL     1       5.549   3.757  15.328  0.00  0.00    +0.000 A 
ATOM      5  C   UNL     1       5.169   4.149  16.605  0.00  0.00    +0.000 A 
ENDROOT
BRANCH   5   6
ATOM      6  C   UNL     1       3.951   3.800  17.344  0.00  0.00    +0.000 A 
ATOM      7  C   UNL     1       3.002   4.800  17.627  0.00  0.00    +0.000 A 
ATOM      8  C   UNL     1       1.829   4.498  18.329  0.00  0.00    +0.000 A 
ATOM      9  C   UNL     1       1.593   3.194  18.737  0.00  0.00    +0.000 A 
ATOM     10  F   UNL     1       0.465   2.899  19.397  0.00  0.00    +0.000 F 
ATOM     11  C   UNL     1       2.513   2.189  18.475  0.00  0.00    +0.000 A 
ATOM     12  C   UNL     1       3.700   2.498  17.803  0.00  0.00    +0.000 A 
ENDBRANCH   5   6
BRANCH   1  13
ATOM     13  C   UNL     1       6.479   5.537  18.320  0.00  0.00    +0.000 C 
BRANCH  13  14
ATOM     14  C   UNL     1       7.696   6.460  18.391  0.00  0.00    +0.000 C 
BRANCH  14  16
ATOM     15  C   UNL     1       8.319   8.877  18.153  0.00  0.00    +0.000 C 
ATOM     16  C   UNL     1       7.547   7.719  17.539  0.00  0.00    +0.000 C 
ENDBRANCH  14  16
ENDBRANCH  13  14
ENDBRANCH   1  13
TORSDOF 4
ENDMDL
