MODEL 1
REMARK VINA RESULT:      -7.8      0.000      0.000
REMARK  Name = 
REMARK  7 active torsions:
REMARK  status: ('A' for Active; 'I' for Inactive)
REMARK    1  A    between atoms: C_1  and  C_2
REMARK    2  A    between atoms: C_2  and  C_3
REMARK    3  A    between atoms: C_2  and  C_4
REMARK    4  A    between atoms: C_2  and  C_5
REMARK    5  A    between atoms: C_8  and  C_9
REMARK    6  A    between atoms: C_15  and  C_16
REMARK    7  A    between atoms: C_16  and  N_17
REMARK                            x       y       z     vdW  Elec       q    Type
REMARK                         _______ _______ _______ _____ _____    ______ ____
ROOT
ATOM      1  C   UNL     1      -0.085  11.510  20.184  0.00  0.00    +0.000 C 
ATOM      2  O   UNL     1       0.233  12.211  19.223  0.00  0.00    +0.000 OA
ATOM      3  N   UNL     1       0.432  10.243  20.456  0.00  0.00    +0.000 N 
ATOM      4  C   UNL     1       0.179   9.406  21.646  0.00  0.00    +0.000 C 
ATOM      5  C   UNL     1       1.107   8.198  21.578  0.00  0.00    +0.000 C 
ATOM      6  C   UNL     1       1.541   8.238  20.147  0.00  0.00    +0.000 A 
ATOM      7  C   UNL     1       2.220   7.246  19.440  0.00  0.00    +0.000 A 
ATOM      8  C   UNL     1       2.534   7.524  18.099  0.00  0.00    +0.000 A 
ATOM      9  C   UNL     1       2.272   8.784  17.540  0.00  0.00    +0.000 A 
ATOM     10  C   UNL     1       1.629   9.777  18.282  0.00  0.00    +0.000 A 
ATOM     11  C   UNL     1       1.221   9.474  19.568  0.00  0.00    +0.000 A 
ENDROOT
BRANCH   1  15
ATOM     12  C   UNL     1      -2.822  13.125  22.948  0.00  0.00    +0.000 A 
ATOM     13  N   UNL     1      -3.304  12.694  21.766  0.00  0.00    +0.000 NA
ATOM     14  C   UNL     1      -2.406  12.221  20.874  0.00  0.00    +0.000 A 
ATOM     15  C   UNL     1      -1.057  12.105  21.123  0.00  0.00    +0.000 A 
ATOM     16  C   UNL     1      -0.653  12.657  22.311  0.00  0.00    +0.000 A 
ATOM     17  N   UNL     1      -1.505  13.165  23.238  0.00  0.00    +0.000 NA
BRANCH  12  19
ATOM     18  C   UNL     1      -3.142  14.643  24.938  0.00  0.00    +0.000 C 
ATOM     19  C   UNL     1      -3.827  13.658  23.968  0.00  0.00    +0.000 C 
ATOM     20  C   UNL     1      -4.384  12.469  24.765  0.00  0.00    +0.000 C 
ATOM     21  C   UNL     1      -4.984  14.402  23.278  0.00  0.00    +0.000 C 
ENDBRANCH  12  19
ENDBRANCH   1  15
BRANCH   7  22
ATOM     22  C   UNL     1       2.608   5.926  20.078  0.00  0.00    +0.000 C 
BRANCH  22  23
ATOM     23  N   UNL     1       1.935   4.765  19.478  0.00  0.00    +0.000 NA
ATOM     24  C   UNL     1       0.880   4.229  20.346  0.00  0.00    +0.000 C 
ATOM     25  C   UNL     1       1.487   3.043  21.071  0.00  0.00    +0.000 C 
ATOM     26  C   UNL     1       2.502   2.492  20.094  0.00  0.00    +0.000 C 
ATOM     27  C   UNL     1       2.851   3.652  19.177  0.00  0.00    +0.000 C 
ENDBRANCH  22  23
ENDBRANCH   7  22
TORSDOF 4
ENDMDL
MODEL 2
REMARK VINA RESULT:      -7.4      0.537      1.037
REMARK  Name = 
REMARK  7 active torsions:
REMARK  status: ('A' for Active; 'I' for Inactive)
REMARK    1  A    between atoms: C_1  and  C_2
REMARK    2  A    between atoms: C_2  and  C_3
REMARK    3  A    between atoms: C_2  and  C_4
REMARK    4  A    between atoms: C_2  and  C_5
REMARK    5  A    between atoms: C_8  and  C_9
REMARK    6  A    between atoms: C_15  and  C_16
REMARK    7  A    between atoms: C_16  and  N_17
REMARK                            x       y       z     vdW  Elec       q    Type
REMARK                         _______ _______ _______ _____ _____    ______ ____
ROOT
ATOM      1  C   UNL     1       0.098  11.238  20.122  0.00  0.00    +0.000 C 
ATOM      2  O   UNL     1       0.494  11.990  19.231  0.00  0.00    +0.000 OA
ATOM      3  N   UNL     1       0.569   9.944  20.345  0.00  0.00    +0.000 N 
ATOM      4  C   UNL     1       0.219   9.040  21.459  0.00  0.00    +0.000 C 
ATOM      5  C   UNL     1       1.126   7.817  21.375  0.00  0.00    +0.000 C 
ATOM      6  C   UNL     1       1.657   7.936  19.983  0.00  0.00    +0.000 A 
ATOM      7  C   UNL     1       2.363   6.975  19.260  0.00  0.00    +0.000 A 
ATOM      8  C   UNL     1       2.775   7.329  17.965  0.00  0.00    +0.000 A 
ATOM      9  C   UNL     1       2.576   8.628  17.471  0.00  0.00    +0.000 A 
ATOM     10  C   UNL     1       1.904   9.588  18.231  0.00  0.00    +0.000 A 
ATOM     11  C   UNL     1       1.403   9.214  19.464  0.00  0.00    +0.000 A 
ENDROOT
BRANCH   1  15
ATOM     12  C   UNL     1      -2.831  12.928  22.632  0.00  0.00    +0.000 A 
ATOM     13  N   UNL     1      -1.634  12.629  23.175  0.00  0.00    +0.000 NA
ATOM     14  C   UNL     1      -0.723  12.047  22.367  0.00  0.00    +0.000 A 
ATOM     15  C   UNL     1      -0.925  11.796  21.029  0.00  0.00    +0.000 A 
ATOM     16  C   UNL     1      -2.202  12.045  20.594  0.00  0.00    +0.000 A 
ATOM     17  N   UNL     1      -3.166  12.611  21.364  0.00  0.00    +0.000 NA
BRANCH  12  19
ATOM     18  C   UNL     1      -3.267  14.828  24.235  0.00  0.00    +0.000 C 
ATOM     19  C   UNL     1      -3.870  13.592  23.534  0.00  0.00    +0.000 C 
ATOM     20  C   UNL     1      -4.311  12.574  24.596  0.00  0.00    +0.000 C 
ATOM     21  C   UNL     1      -5.096  14.058  22.728  0.00  0.00    +0.000 C 
ENDBRANCH  12  19
ENDBRANCH   1  15
BRANCH   7  22
ATOM     22  C   UNL     1       2.680   5.608  19.837  0.00  0.00    +0.000 C 
BRANCH  22  23
ATOM     23  N   UNL     1       1.597   4.631  19.656  0.00  0.00    +0.000 NA
ATOM     24  C   UNL     1       1.330   3.869  20.881  0.00  0.00    +0.000 C 
ATOM     25  C   UNL     1       2.058   2.547  20.727  0.00  0.00    +0.000 C 
ATOM     26  C   UNL     1       2.040   2.286  19.237  0.00  0.00    +0.000 C 
ATOM     27  C   UNL     1       1.869   3.651  18.590  0.00  0.00    +0.000 C 
ENDBRANCH  22  23
ENDBRANCH   7  22
TORSDOF 4
ENDMDL
MODEL 3
REMARK VINA RESULT:      -7.4      0.321      1.306
REMARK  Name = 
REMARK  7 active torsions:
REMARK  status: ('A' for Active; 'I' for Inactive)
REMARK    1  A    between atoms: C_1  and  C_2
REMARK    2  A    between atoms: C_2  and  C_3
REMARK    3  A    between atoms: C_2  and  C_4
REMARK    4  A    between atoms: C_2  and  C_5
REMARK    5  A    between atoms: C_8  and  C_9
REMARK    6  A    between atoms: C_15  and  C_16
REMARK    7  A    between atoms: C_16  and  N_17
REMARK                            x       y       z     vdW  Elec       q    Type
REMARK                         _______ _______ _______ _____ _____    ______ ____
ROOT
ATOM      1  C   UNL     1      -0.055  11.554  20.200  0.00  0.00    +0.000 C 
ATOM      2  O   UNL     1       0.270  12.245  19.234  0.00  0.00    +0.000 OA
ATOM      3  N   UNL     1       0.445  10.281  20.477  0.00  0.00    +0.000 N 
ATOM      4  C   UNL     1       0.182   9.454  21.672  0.00  0.00    +0.000 C 
ATOM      5  C   UNL     1       1.094   8.234  21.609  0.00  0.00    +0.000 C 
ATOM      6  C   UNL     1       1.526   8.260  20.178  0.00  0.00    +0.000 A 
ATOM      7  C   UNL     1       2.190   7.255  19.475  0.00  0.00    +0.000 A 
ATOM      8  C   UNL     1       2.507   7.521  18.132  0.00  0.00    +0.000 A 
ATOM      9  C   UNL     1       2.260   8.782  17.566  0.00  0.00    +0.000 A 
ATOM     10  C   UNL     1       1.632   9.788  18.305  0.00  0.00    +0.000 A 
ATOM     11  C   UNL     1       1.222   9.497  19.593  0.00  0.00    +0.000 A 
ENDROOT
BRANCH   1  15
ATOM     12  C   UNL     1      -2.834  13.385  22.782  0.00  0.00    +0.000 A 
ATOM     13  N   UNL     1      -1.554  13.300  23.194  0.00  0.00    +0.000 NA
ATOM     14  C   UNL     1      -0.686  12.670  22.374  0.00  0.00    +0.000 A 
ATOM     15  C   UNL     1      -1.018  12.167  21.136  0.00  0.00    +0.000 A 
ATOM     16  C   UNL     1      -2.358  12.214  20.849  0.00  0.00    +0.000 A 
ATOM     17  N   UNL     1      -3.282  12.816  21.642  0.00  0.00    +0.000 NA
BRANCH  12  19
ATOM     18  C   UNL     1      -4.942  13.132  24.146  0.00  0.00    +0.000 C 
ATOM     19  C   UNL     1      -3.826  14.099  23.698  0.00  0.00    +0.000 C 
ATOM     20  C   UNL     1      -4.451  15.266  22.919  0.00  0.00    +0.000 C 
ATOM     21  C   UNL     1      -3.133  14.639  24.962  0.00  0.00    +0.000 C 
ENDBRANCH  12  19
ENDBRANCH   1  15
BRANCH   7  22
ATOM     22  C   UNL     1       2.562   5.933  20.120  0.00  0.00    +0.000 C 
BRANCH  22  23
ATOM     23  N   UNL     1       1.931   4.771  19.478  0.00  0.00    +0.000 NA
ATOM     24  C   UNL     1       0.895   4.167  20.323  0.00  0.00    +0.000 C 
ATOM     25  C   UNL     1       1.543   2.979  21.008  0.00  0.00    +0.000 C 
ATOM     26  C   UNL     1       2.578   2.499  20.015  0.00  0.00    +0.000 C 
ATOM     27  C   UNL     1       2.887   3.703  19.140  0.00  0.00    +0.000 C 
ENDBRANCH  22  23
ENDBRANCH   7  22
TORSDOF 4
ENDMDL
MODEL 4
REMARK VINA RESULT:      -7.2      2.837      4.353
REMARK  Name = 
REMARK  7 active torsions:
REMARK  status: ('A' for Active; 'I' for Inactive)
REMARK    1  A    between atoms: C_1  and  C_2
REMARK    2  A    between atoms: C_2  and  C_3
REMARK    3  A    between atoms: C_2  and  C_4
REMARK    4  A    between atoms: C_2  and  C_5
REMARK    5  A    between atoms: C_8  and  C_9
REMARK    6  A    between atoms: C_15  and  C_16
REMARK    7  A    between atoms: C_16  and  N_17
REMARK                            x       y       z     vdW  Elec       q    Type
REMARK                         _______ _______ _______ _____ _____    ______ ____
ROOT
ATOM      1  C   UNL     1       0.569   9.201  20.596  0.00  0.00    +0.000 C 
ATOM      2  O   UNL     1      -0.029   8.649  21.521  0.00  0.00    +0.000 OA
ATOM      3  N   UNL     1       1.390   8.552  19.674  0.00  0.00    +0.000 N 
ATOM      4  C   UNL     1       2.039   9.135  18.482  0.00  0.00    +0.000 C 
ATOM      5  C   UNL     1       2.675   7.998  17.689  0.00  0.00    +0.000 C 
ATOM      6  C   UNL     1       2.678   6.896  18.700  0.00  0.00    +0.000 A 
ATOM      7  C   UNL     1       3.346   5.675  18.621  0.00  0.00    +0.000 A 
ATOM      8  C   UNL     1       3.181   4.789  19.698  0.00  0.00    +0.000 A 
ATOM      9  C   UNL     1       2.297   5.081  20.747  0.00  0.00    +0.000 A 
ATOM     10  C   UNL     1       1.604   6.294  20.784  0.00  0.00    +0.000 A 
ATOM     11  C   UNL     1       1.844   7.215  19.781  0.00  0.00    +0.000 A 
ENDROOT
BRANCH   1  15
ATOM     12  C   UNL     1      -0.092  13.352  20.328  0.00  0.00    +0.000 A 
ATOM     13  N   UNL     1      -0.873  12.542  19.586  0.00  0.00    +0.000 NA
ATOM     14  C   UNL     1      -0.618  11.217  19.650  0.00  0.00    +0.000 A 
ATOM     15  C   UNL     1       0.343  10.653  20.458  0.00  0.00    +0.000 A 
ATOM     16  C   UNL     1       1.147  11.562  21.098  0.00  0.00    +0.000 A 
ATOM     17  N   UNL     1       0.953  12.905  21.057  0.00  0.00    +0.000 NA
BRANCH  12  19
ATOM     18  C   UNL     1      -1.829  15.146  20.686  0.00  0.00    +0.000 C 
ATOM     19  C   UNL     1      -0.373  14.852  20.269  0.00  0.00    +0.000 C 
ATOM     20  C   UNL     1      -0.154  15.330  18.827  0.00  0.00    +0.000 C 
ATOM     21  C   UNL     1       0.556  15.634  21.216  0.00  0.00    +0.000 C 
ENDBRANCH  12  19
ENDBRANCH   1  15
BRANCH   7  22
ATOM     22  C   UNL     1       4.212   5.309  17.430  0.00  0.00    +0.000 C 
BRANCH  22  23
ATOM     23  N   UNL     1       5.540   5.941  17.455  0.00  0.00    +0.000 NA
ATOM     24  C   UNL     1       6.229   5.827  16.165  0.00  0.00    +0.000 C 
ATOM     25  C   UNL     1       7.186   4.657  16.295  0.00  0.00    +0.000 C 
ATOM     26  C   UNL     1       7.569   4.654  17.758  0.00  0.00    +0.000 C 
ATOM     27  C   UNL     1       6.436   5.372  18.475  0.00  0.00    +0.000 C 
ENDBRANCH  22  23
ENDBRANCH   7  22
TORSDOF 4
ENDMDL
MODEL 5
REMARK VINA RESULT:      -7.2      0.648      1.376
REMARK  Name = 
REMARK  7 active torsions:
REMARK  status: ('A' for Active; 'I' for Inactive)
REMARK    1  A    between atoms: C_1  and  C_2
REMARK    2  A    between atoms: C_2  and  C_3
REMARK    3  A    between atoms: C_2  and  C_4
REMARK    4  A    between atoms: C_2  and  C_5
REMARK    5  A    between atoms: C_8  and  C_9
REMARK    6  A    between atoms: C_15  and  C_16
REMARK    7  A    between atoms: C_16  and  N_17
REMARK                            x       y       z     vdW  Elec       q    Type
REMARK                         _______ _______ _______ _____ _____    ______ ____
ROOT
ATOM      1  C   UNL     1       0.068  11.372  20.179  0.00  0.00    +0.000 C 
ATOM      2  O   UNL     1       0.436  12.107  19.263  0.00  0.00    +0.000 OA
ATOM      3  N   UNL     1       0.546  10.081  20.410  0.00  0.00    +0.000 N 
ATOM      4  C   UNL     1       0.231   9.198  21.551  0.00  0.00    +0.000 C 
ATOM      5  C   UNL     1       1.133   7.972  21.460  0.00  0.00    +0.000 C 
ATOM      6  C   UNL     1       1.619   8.065  20.049  0.00  0.00    +0.000 A 
ATOM      7  C   UNL     1       2.300   7.090  19.321  0.00  0.00    +0.000 A 
ATOM      8  C   UNL     1       2.669   7.421  18.006  0.00  0.00    +0.000 A 
ATOM      9  C   UNL     1       2.456   8.710  17.496  0.00  0.00    +0.000 A 
ATOM     10  C   UNL     1       1.810   9.685  18.261  0.00  0.00    +0.000 A 
ATOM     11  C   UNL     1       1.349   9.334  19.516  0.00  0.00    +0.000 A 
ENDROOT
BRANCH   1  15
ATOM     12  C   UNL     1      -2.788  13.102  22.747  0.00  0.00    +0.000 A 
ATOM     13  N   UNL     1      -1.528  12.966  23.208  0.00  0.00    +0.000 NA
ATOM     14  C   UNL     1      -0.637  12.368  22.388  0.00  0.00    +0.000 A 
ATOM     15  C   UNL     1      -0.923  11.947  21.109  0.00  0.00    +0.000 A 
ATOM     16  C   UNL     1      -2.248  12.040  20.768  0.00  0.00    +0.000 A 
ATOM     17  N   UNL     1      -3.195  12.612  21.557  0.00  0.00    +0.000 NA
BRANCH  12  19
ATOM     18  C   UNL     1      -4.759  14.674  22.840  0.00  0.00    +0.000 C 
ATOM     19  C   UNL     1      -3.805  13.781  23.661  0.00  0.00    +0.000 C 
ATOM     20  C   UNL     1      -3.044  14.650  24.672  0.00  0.00    +0.000 C 
ATOM     21  C   UNL     1      -4.660  12.746  24.414  0.00  0.00    +0.000 C 
ENDBRANCH  12  19
ENDBRANCH   1  15
BRANCH   7  22
ATOM     22  C   UNL     1       2.634   5.733  19.911  0.00  0.00    +0.000 C 
BRANCH  22  23
ATOM     23  N   UNL     1       2.838   4.688  18.898  0.00  0.00    +0.000 NA
ATOM     24  C   UNL     1       1.568   4.184  18.362  0.00  0.00    +0.000 C 
ATOM     25  C   UNL     1       1.273   2.896  19.107  0.00  0.00    +0.000 C 
ATOM     26  C   UNL     1       2.640   2.332  19.426  0.00  0.00    +0.000 C 
ATOM     27  C   UNL     1       3.583   3.524  19.404  0.00  0.00    +0.000 C 
ENDBRANCH  22  23
ENDBRANCH   7  22
TORSDOF 4
ENDMDL
MODEL 6
REMARK VINA RESULT:      -7.2      2.845      4.464
REMARK  Name = 
REMARK  7 active torsions:
REMARK  status: ('A' for Active; 'I' for Inactive)
REMARK    1  A    between atoms: C_1  and  C_2
REMARK    2  A    between atoms: C_2  and  C_3
REMARK    3  A    between atoms: C_2  and  C_4
REMARK    4  A    between atoms: C_2  and  C_5
REMARK    5  A    between atoms: C_8  and  C_9
REMARK    6  A    between atoms: C_15  and  C_16
REMARK    7  A    between atoms: C_16  and  N_17
REMARK                            x       y       z     vdW  Elec       q    Type
REMARK                         _______ _______ _______ _____ _____    ______ ____
ROOT
ATOM      1  C   UNL     1       0.563   9.090  20.714  0.00  0.00    +0.000 C 
ATOM      2  O   UNL     1      -0.048   8.506  21.610  0.00  0.00    +0.000 OA
ATOM      3  N   UNL     1       1.390   8.472  19.776  0.00  0.00    +0.000 N 
ATOM      4  C   UNL     1       2.054   9.098  18.614  0.00  0.00    +0.000 C 
ATOM      5  C   UNL     1       2.693   7.989  17.784  0.00  0.00    +0.000 C 
ATOM      6  C   UNL     1       2.679   6.849  18.751  0.00  0.00    +0.000 A 
ATOM      7  C   UNL     1       3.343   5.628  18.632  0.00  0.00    +0.000 A 
ATOM      8  C   UNL     1       3.162   4.702  19.672  0.00  0.00    +0.000 A 
ATOM      9  C   UNL     1       2.268   4.958  20.723  0.00  0.00    +0.000 A 
ATOM     10  C   UNL     1       1.581   6.172  20.799  0.00  0.00    +0.000 A 
ATOM     11  C   UNL     1       1.836   7.131  19.835  0.00  0.00    +0.000 A 
ENDROOT
BRANCH   1  15
ATOM     12  C   UNL     1      -0.038  13.243  20.352  0.00  0.00    +0.000 A 
ATOM     13  N   UNL     1       0.918  12.818  21.202  0.00  0.00    +0.000 NA
ATOM     14  C   UNL     1       1.066  11.482  21.339  0.00  0.00    +0.000 A 
ATOM     15  C   UNL     1       0.346  10.548  20.631  0.00  0.00    +0.000 A 
ATOM     16  C   UNL     1      -0.665  11.074  19.867  0.00  0.00    +0.000 A 
ATOM     17  N   UNL     1      -0.876  12.406  19.705  0.00  0.00    +0.000 NA
BRANCH  12  19
ATOM     18  C   UNL     1      -0.149  15.139  18.691  0.00  0.00    +0.000 C 
ATOM     19  C   UNL     1      -0.214  14.751  20.183  0.00  0.00    +0.000 C 
ATOM     20  C   UNL     1       0.921  15.458  20.939  0.00  0.00    +0.000 C 
ATOM     21  C   UNL     1      -1.571  15.223  20.736  0.00  0.00    +0.000 C 
ENDBRANCH  12  19
ENDBRANCH   1  15
BRANCH   7  22
ATOM     22  C   UNL     1       4.219   5.304  17.436  0.00  0.00    +0.000 C 
BRANCH  22  23
ATOM     23  N   UNL     1       5.547   5.931  17.497  0.00  0.00    +0.000 NA
ATOM     24  C   UNL     1       6.229   5.907  16.198  0.00  0.00    +0.000 C 
ATOM     25  C   UNL     1       7.184   4.729  16.241  0.00  0.00    +0.000 C 
ATOM     26  C   UNL     1       7.577   4.624  17.698  0.00  0.00    +0.000 C 
ATOM     27  C   UNL     1       6.449   5.292  18.469  0.00  0.00    +0.000 C 
ENDBRANCH  22  23
ENDBRANCH   7  22
TORSDOF 4
ENDMDL
MODEL 7
REMARK VINA RESULT:      -7.1      1.014      1.119
REMARK  Name = 
REMARK  7 active torsions:
REMARK  status: ('A' for Active; 'I' for Inactive)
REMARK    1  A    between atoms: C_1  and  C_2
REMARK    2  A    between atoms: C_2  and  C_3
REMARK    3  A    between atoms: C_2  and  C_4
REMARK    4  A    between atoms: C_2  and  C_5
REMARK    5  A    between atoms: C_8  and  C_9
REMARK    6  A    between atoms: C_15  and  C_16
REMARK    7  A    between atoms: C_16  and  N_17
REMARK                            x       y       z     vdW  Elec       q    Type
REMARK                         _______ _______ _______ _____ _____    ______ ____
ROOT
ATOM      1  C   UNL     1       0.370  11.180  19.504  0.00  0.00    +0.000 C 
ATOM      2  O   UNL     1       0.854  11.755  18.528  0.00  0.00    +0.000 OA
ATOM      3  N   UNL     1       0.750   9.918  19.958  0.00  0.00    +0.000 N 
ATOM      4  C   UNL     1       0.292   9.227  21.181  0.00  0.00    +0.000 C 
ATOM      5  C   UNL     1       1.125   7.961  21.346  0.00  0.00    +0.000 C 
ATOM      6  C   UNL     1       1.728   7.823  19.985  0.00  0.00    +0.000 A 
ATOM      7  C   UNL     1       2.407   6.720  19.467  0.00  0.00    +0.000 A 
ATOM      8  C   UNL     1       2.901   6.836  18.157  0.00  0.00    +0.000 A 
ATOM      9  C   UNL     1       2.807   8.045  17.452  0.00  0.00    +0.000 A 
ATOM     10  C   UNL     1       2.159   9.150  18.008  0.00  0.00    +0.000 A 
ATOM     11  C   UNL     1       1.578   9.010  19.255  0.00  0.00    +0.000 A 
ENDROOT
BRANCH   1  15
ATOM     12  C   UNL     1      -2.544  13.251  21.731  0.00  0.00    +0.000 A 
ATOM     13  N   UNL     1      -2.914  12.726  20.547  0.00  0.00    +0.000 NA
ATOM     14  C   UNL     1      -1.956  12.104  19.825  0.00  0.00    +0.000 A 
ATOM     15  C   UNL     1      -0.658  11.932  20.250  0.00  0.00    +0.000 A 
ATOM     16  C   UNL     1      -0.356  12.583  21.418  0.00  0.00    +0.000 A 
ATOM     17  N   UNL     1      -1.270  13.240  22.177  0.00  0.00    +0.000 NA
BRANCH  12  19
ATOM     18  C   UNL     1      -3.080  14.296  23.965  0.00  0.00    +0.000 C 
ATOM     19  C   UNL     1      -3.619  13.952  22.560  0.00  0.00    +0.000 C 
ATOM     20  C   UNL     1      -4.819  13.005  22.698  0.00  0.00    +0.000 C 
ATOM     21  C   UNL     1      -4.073  15.264  21.894  0.00  0.00    +0.000 C 
ENDBRANCH  12  19
ENDBRANCH   1  15
BRANCH   7  22
ATOM     22  C   UNL     1       2.612   5.451  20.273  0.00  0.00    +0.000 C 
BRANCH  22  23
ATOM     23  N   UNL     1       1.455   4.544  20.241  0.00  0.00    +0.000 NA
ATOM     24  C   UNL     1       1.573   3.464  21.227  0.00  0.00    +0.000 C 
ATOM     25  C   UNL     1       2.084   2.252  20.473  0.00  0.00    +0.000 C 
ATOM     26  C   UNL     1       1.522   2.420  19.078  0.00  0.00    +0.000 C 
ATOM     27  C   UNL     1       1.251   3.908  18.928  0.00  0.00    +0.000 C 
ENDBRANCH  22  23
ENDBRANCH   7  22
TORSDOF 4
ENDMDL
MODEL 8
REMARK VINA RESULT:      -7.1      3.473      4.675
REMARK  Name = 
REMARK  7 active torsions:
REMARK  status: ('A' for Active; 'I' for Inactive)
REMARK    1  A    between atoms: C_1  and  C_2
REMARK    2  A    between atoms: C_2  and  C_3
REMARK    3  A    between atoms: C_2  and  C_4
REMARK    4  A    between atoms: C_2  and  C_5
REMARK    5  A    between atoms: C_8  and  C_9
REMARK    6  A    between atoms: C_15  and  C_16
REMARK    7  A    between atoms: C_16  and  N_17
REMARK                            x       y       z     vdW  Elec       q    Type
REMARK                         _______ _______ _______ _____ _____    ______ ____
ROOT
ATOM      1  C   UNL     1       0.713  10.715  20.259  0.00  0.00    +0.000 C 
ATOM      2  O   UNL     1       0.086  10.449  21.285  0.00  0.00    +0.000 OA
ATOM      3  N   UNL     1       1.327   9.775  19.431  0.00  0.00    +0.000 N 
ATOM      4  C   UNL     1       1.992  10.018  18.134  0.00  0.00    +0.000 C 
ATOM      5  C   UNL     1       2.340   8.666  17.523  0.00  0.00    +0.000 C 
ATOM      6  C   UNL     1       2.201   7.761  18.705  0.00  0.00    +0.000 A 
ATOM      7  C   UNL     1       2.615   6.433  18.810  0.00  0.00    +0.000 A 
ATOM      8  C   UNL     1       2.358   5.782  20.028  0.00  0.00    +0.000 A 
ATOM      9  C   UNL     1       1.622   6.409  21.044  0.00  0.00    +0.000 A 
ATOM     10  C   UNL     1       1.180   7.727  20.899  0.00  0.00    +0.000 A 
ATOM     11  C   UNL     1       1.522   8.409  19.747  0.00  0.00    +0.000 A 
ENDROOT
BRANCH   1  15
ATOM     12  C   UNL     1       0.849  14.817  19.314  0.00  0.00    +0.000 A 
ATOM     13  N   UNL     1      -0.137  14.078  18.767  0.00  0.00    +0.000 NA
ATOM     14  C   UNL     1      -0.139  12.756  19.044  0.00  0.00    +0.000 A 
ATOM     15  C   UNL     1       0.762  12.142  19.885  0.00  0.00    +0.000 A 
ATOM     16  C   UNL     1       1.779  12.955  20.314  0.00  0.00    +0.000 A 
ATOM     17  N   UNL     1       1.846  14.286  20.051  0.00  0.00    +0.000 NA
BRANCH  12  19
ATOM     18  C   UNL     1       2.059  16.676  18.110  0.00  0.00    +0.000 C 
ATOM     19  C   UNL     1       0.860  16.314  19.012  0.00  0.00    +0.000 C 
ATOM     20  C   UNL     1       0.980  17.075  20.341  0.00  0.00    +0.000 C 
ATOM     21  C   UNL     1      -0.426  16.749  18.286  0.00  0.00    +0.000 C 
ENDBRANCH  12  19
ENDBRANCH   1  15
BRANCH   7  22
ATOM     22  C   UNL     1       3.309   5.715  17.668  0.00  0.00    +0.000 C 
BRANCH  22  23
ATOM     23  N   UNL     1       4.762   5.939  17.633  0.00  0.00    +0.000 NA
ATOM     24  C   UNL     1       5.195   6.555  16.374  0.00  0.00    +0.000 C 
ATOM     25  C   UNL     1       5.714   5.426  15.504  0.00  0.00    +0.000 C 
ATOM     26  C   UNL     1       6.267   4.422  16.491  0.00  0.00    +0.000 C 
ATOM     27  C   UNL     1       5.545   4.703  17.799  0.00  0.00    +0.000 C 
ENDBRANCH  22  23
ENDBRANCH   7  22
TORSDOF 4
ENDMDL
MODEL 9
REMARK VINA RESULT:      -7.1      2.161      3.568
REMARK  Name = 
REMARK  7 active torsions:
REMARK  status: ('A' for Active; 'I' for Inactive)
REMARK    1  A    between atoms: C_1  and  C_2
REMARK    2  A    between atoms: C_2  and  C_3
REMARK    3  A    between atoms: C_2  and  C_4
REMARK    4  A    between atoms: C_2  and  C_5
REMARK    5  A    between atoms: C_8  and  C_9
REMARK    6  A    between atoms: C_15  and  C_16
REMARK    7  A    between atoms: C_16  and  N_17
REMARK                            x       y       z     vdW  Elec       q    Type
REMARK                         _______ _______ _______ _____ _____    ______ ____
ROOT
ATOM      1  C   UNL     1       1.982   9.169  18.313  0.00  0.00    +0.000 C 
ATOM      2  O   UNL     1       2.551   9.666  17.341  0.00  0.00    +0.000 OA
ATOM      3  N   UNL     1       2.303   7.938  18.885  0.00  0.00    +0.000 N 
ATOM      4  C   UNL     1       1.738   7.343  20.114  0.00  0.00    +0.000 C 
ATOM      5  C   UNL     1       2.533   6.083  20.435  0.00  0.00    +0.000 C 
ATOM      6  C   UNL     1       3.239   5.839  19.140  0.00  0.00    +0.000 A 
ATOM      7  C   UNL     1       3.938   4.694  18.758  0.00  0.00    +0.000 A 
ATOM      8  C   UNL     1       4.535   4.708  17.487  0.00  0.00    +0.000 A 
ATOM      9  C   UNL     1       4.518   5.864  16.691  0.00  0.00    +0.000 A 
ATOM     10  C   UNL     1       3.848   7.015  17.115  0.00  0.00    +0.000 A 
ATOM     11  C   UNL     1       3.167   6.972  18.317  0.00  0.00    +0.000 A 
ENDROOT
BRANCH   1  15
ATOM     12  C   UNL     1      -1.078  11.565  19.937  0.00  0.00    +0.000 A 
ATOM     13  N   UNL     1       0.078  11.473  20.622  0.00  0.00    +0.000 NA
ATOM     14  C   UNL     1       1.032  10.664  20.110  0.00  0.00    +0.000 A 
ATOM     15  C   UNL     1       0.911   9.985  18.919  0.00  0.00    +0.000 A 
ATOM     16  C   UNL     1      -0.333  10.065  18.347  0.00  0.00    +0.000 A 
ATOM     17  N   UNL     1      -1.337  10.844  18.825  0.00  0.00    +0.000 NA
BRANCH  12  19
ATOM     18  C   UNL     1      -1.738  13.958  20.387  0.00  0.00    +0.000 C 
ATOM     19  C   UNL     1      -2.164  12.479  20.501  0.00  0.00    +0.000 C 
ATOM     20  C   UNL     1      -2.372  12.127  21.981  0.00  0.00    +0.000 C 
ATOM     21  C   UNL     1      -3.491  12.310  19.741  0.00  0.00    +0.000 C 
ENDBRANCH  12  19
ENDBRANCH   1  15
BRANCH   7  22
ATOM     22  C   UNL     1       4.056   3.484  19.666  0.00  0.00    +0.000 C 
BRANCH  22  23
ATOM     23  N   UNL     1       3.034   2.458  19.410  0.00  0.00    +0.000 NA
ATOM     24  C   UNL     1       2.451   2.582  18.069  0.00  0.00    +0.000 C 
ATOM     25  C   UNL     1       1.140   3.326  18.242  0.00  0.00    +0.000 C 
ATOM     26  C   UNL     1       0.667   2.924  19.622  0.00  0.00    +0.000 C 
ATOM     27  C   UNL     1       1.919   2.497  20.371  0.00  0.00    +0.000 C 
ENDBRANCH  22  23
ENDBRANCH   7  22
TORSDOF 4
ENDMDL
