MODEL 1
REMARK VINA RESULT:      -7.7      0.000      0.000
REMARK  Name = 
REMARK  6 active torsions:
REMARK  status: ('A' for Active; 'I' for Inactive)
REMARK    1  A    between atoms: C_2  and  C_4
REMARK    2  A    between atoms: C_7  and  N_8
REMARK    3  A    between atoms: C_9  and  C_11
REMARK    4  A    between atoms: C_11  and  N_12
REMARK    5  A    between atoms: N_12  and  C_13
REMARK    6  A    between atoms: C_13  and  C_14
REMARK                            x       y       z     vdW  Elec       q    Type
REMARK                         _______ _______ _______ _____ _____    ______ ____
ROOT
ATOM      1  N   UNL     1       3.820   6.237  18.939  0.00  0.00    +0.000 N 
ATOM      2  C   UNL     1       2.672   7.017  18.950  0.00  0.00    +0.000 C 
ATOM      3  O   UNL     1       2.144   7.548  17.974  0.00  0.00    +0.000 OA
ATOM      4  H   UNL     1       4.045   5.727  19.784  0.00  0.00    +0.000 HD
ENDROOT
BRANCH   1   8
ATOM      5  C   UNL     1       6.092   5.199  15.536  0.00  0.00    +0.000 A 
ATOM      6  C   UNL     1       5.337   6.373  15.526  0.00  0.00    +0.000 A 
ATOM      7  C   UNL     1       4.599   6.738  16.655  0.00  0.00    +0.000 A 
ATOM      8  C   UNL     1       4.595   5.936  17.798  0.00  0.00    +0.000 A 
ATOM      9  C   UNL     1       5.375   4.772  17.816  0.00  0.00    +0.000 A 
ATOM     10  C   UNL     1       6.106   4.396  16.683  0.00  0.00    +0.000 A 
BRANCH   5  12
ATOM     11  N   UNL     1       6.416   3.645  13.694  0.00  0.00    +0.000 N 
ATOM     12  C   UNL     1       6.854   4.770  14.337  0.00  0.00    +0.000 C 
ATOM     13  O   UNL     1       7.815   5.405  13.924  0.00  0.00    +0.000 OA
ATOM     14  H   UNL     1       6.890   3.394  12.836  0.00  0.00    +0.000 HD
ATOM     15  H   UNL     1       5.513   3.227  13.875  0.00  0.00    +0.000 HD
ENDBRANCH   5  12
ENDBRANCH   1   8
BRANCH   2  16
ATOM     16  C   UNL     1       1.993   7.092  20.322  0.00  0.00    +0.000 C 
BRANCH  16  17
ATOM     17  N   UNL     1       1.993   5.769  20.969  0.00  0.00    +0.000 NA
ATOM     18  H   UNL     1       1.732   5.905  21.951  0.00  0.00    +0.000 HD
BRANCH  17  19
ATOM     19  C   UNL     1       1.025   4.854  20.361  0.00  0.00    +0.000 C 
BRANCH  19  20
ATOM     20  C   UNL     1       1.723   3.838  19.490  0.00  0.00    +0.000 A 
ATOM     21  C   UNL     1       1.580   3.936  18.092  0.00  0.00    +0.000 A 
ATOM     22  C   UNL     1       2.181   3.004  17.242  0.00  0.00    +0.000 A 
ATOM     23  C   UNL     1       2.929   1.960  17.774  0.00  0.00    +0.000 A 
ATOM     24  C   UNL     1       3.075   1.845  19.155  0.00  0.00    +0.000 A 
ATOM     25  C   UNL     1       2.476   2.776  20.011  0.00  0.00    +0.000 A 
ATOM     26 CL   UNL     1       2.707   2.561  21.711  0.00  0.00    +0.000 Cl
ENDBRANCH  19  20
ENDBRANCH  17  19
ENDBRANCH  16  17
ENDBRANCH   2  16
TORSDOF 6
ENDMDL
MODEL 2
REMARK VINA RESULT:      -7.6      2.776      4.003
REMARK  Name = 
REMARK  6 active torsions:
REMARK  status: ('A' for Active; 'I' for Inactive)
REMARK    1  A    between atoms: C_2  and  C_4
REMARK    2  A    between atoms: C_7  and  N_8
REMARK    3  A    between atoms: C_9  and  C_11
REMARK    4  A    between atoms: C_11  and  N_12
REMARK    5  A    between atoms: N_12  and  C_13
REMARK    6  A    between atoms: C_13  and  C_14
REMARK                            x       y       z     vdW  Elec       q    Type
REMARK                         _______ _______ _______ _____ _____    ______ ____
ROOT
ATOM      1  N   UNL     1       4.879   3.497  17.527  0.00  0.00    +0.000 N 
ATOM      2  C   UNL     1       4.500   2.677  18.579  0.00  0.00    +0.000 C 
ATOM      3  O   UNL     1       4.815   2.815  19.760  0.00  0.00    +0.000 OA
ATOM      4  H   UNL     1       4.411   3.363  16.639  0.00  0.00    +0.000 HD
ENDROOT
BRANCH   1   8
ATOM      5  C   UNL     1       7.265   6.965  17.853  0.00  0.00    +0.000 A 
ATOM      6  C   UNL     1       7.628   5.813  18.553  0.00  0.00    +0.000 A 
ATOM      7  C   UNL     1       6.858   4.653  18.435  0.00  0.00    +0.000 A 
ATOM      8  C   UNL     1       5.716   4.629  17.631  0.00  0.00    +0.000 A 
ATOM      9  C   UNL     1       5.369   5.778  16.908  0.00  0.00    +0.000 A 
ATOM     10  C   UNL     1       6.131   6.947  17.034  0.00  0.00    +0.000 A 
BRANCH   5  12
ATOM     11  N   UNL     1       8.861   8.325  19.085  0.00  0.00    +0.000 N 
ATOM     12  C   UNL     1       8.044   8.220  17.992  0.00  0.00    +0.000 C 
ATOM     13  O   UNL     1       7.980   9.113  17.158  0.00  0.00    +0.000 OA
ATOM     14  H   UNL     1       9.445   9.149  19.142  0.00  0.00    +0.000 HD
ATOM     15  H   UNL     1       9.099   7.535  19.669  0.00  0.00    +0.000 HD
ENDBRANCH   5  12
ENDBRANCH   1   8
BRANCH   2  16
ATOM     16  C   UNL     1       3.509   1.579  18.177  0.00  0.00    +0.000 C 
BRANCH  16  17
ATOM     17  N   UNL     1       2.299   1.646  19.013  0.00  0.00    +0.000 NA
ATOM     18  H   UNL     1       2.581   1.980  19.940  0.00  0.00    +0.000 HD
BRANCH  17  19
ATOM     19  C   UNL     1       1.304   2.575  18.474  0.00  0.00    +0.000 C 
BRANCH  19  20
ATOM     20  C   UNL     1       1.589   3.987  18.927  0.00  0.00    +0.000 A 
ATOM     21  C   UNL     1       1.867   4.965  17.952  0.00  0.00    +0.000 A 
ATOM     22  C   UNL     1       2.167   6.280  18.320  0.00  0.00    +0.000 A 
ATOM     23  C   UNL     1       2.198   6.635  19.663  0.00  0.00    +0.000 A 
ATOM     24  C   UNL     1       1.933   5.677  20.640  0.00  0.00    +0.000 A 
ATOM     25  C   UNL     1       1.632   4.359  20.278  0.00  0.00    +0.000 A 
ATOM     26 CL   UNL     1       1.315   3.235  21.553  0.00  0.00    +0.000 Cl
ENDBRANCH  19  20
ENDBRANCH  17  19
ENDBRANCH  16  17
ENDBRANCH   2  16
TORSDOF 6
ENDMDL
MODEL 3
REMARK VINA RESULT:      -7.6      2.597      5.775
REMARK  Name = 
REMARK  6 active torsions:
REMARK  status: ('A' for Active; 'I' for Inactive)
REMARK    1  A    between atoms: C_2  and  C_4
REMARK    2  A    between atoms: C_7  and  N_8
REMARK    3  A    between atoms: C_9  and  C_11
REMARK    4  A    between atoms: C_11  and  N_12
REMARK    5  A    between atoms: N_12  and  C_13
REMARK    6  A    between atoms: C_13  and  C_14
REMARK                            x       y       z     vdW  Elec       q    Type
REMARK                         _______ _______ _______ _____ _____    ______ ____
ROOT
ATOM      1  N   UNL     1       3.431   6.320  17.744  0.00  0.00    +0.000 N 
ATOM      2  C   UNL     1       4.557   5.692  18.256  0.00  0.00    +0.000 C 
ATOM      3  O   UNL     1       5.049   5.873  19.369  0.00  0.00    +0.000 OA
ATOM      4  H   UNL     1       3.042   5.953  16.885  0.00  0.00    +0.000 HD
ENDROOT
BRANCH   1   8
ATOM      5  C   UNL     1       1.223   9.232  19.857  0.00  0.00    +0.000 A 
ATOM      6  C   UNL     1       1.585   9.473  18.531  0.00  0.00    +0.000 A 
ATOM      7  C   UNL     1       2.296   8.508  17.815  0.00  0.00    +0.000 A 
ATOM      8  C   UNL     1       2.664   7.300  18.412  0.00  0.00    +0.000 A 
ATOM      9  C   UNL     1       2.276   7.048  19.734  0.00  0.00    +0.000 A 
ATOM     10  C   UNL     1       1.574   8.019  20.460  0.00  0.00    +0.000 A 
BRANCH   5  12
ATOM     11  N   UNL     1      -0.641  10.775  20.102  0.00  0.00    +0.000 N 
ATOM     12  C   UNL     1       0.500  10.258  20.650  0.00  0.00    +0.000 C 
ATOM     13  O   UNL     1       0.892  10.610  21.755  0.00  0.00    +0.000 OA
ATOM     14  H   UNL     1      -1.172  11.420  20.673  0.00  0.00    +0.000 HD
ATOM     15  H   UNL     1      -1.104  10.358  19.305  0.00  0.00    +0.000 HD
ENDBRANCH   5  12
ENDBRANCH   1   8
BRANCH   2  16
ATOM     16  C   UNL     1       5.126   4.604  17.338  0.00  0.00    +0.000 C 
BRANCH  16  17
ATOM     17  N   UNL     1       5.126   3.300  18.022  0.00  0.00    +0.000 NA
ATOM     18  H   UNL     1       5.292   3.474  19.019  0.00  0.00    +0.000 HD
BRANCH  17  19
ATOM     19  C   UNL     1       3.846   2.603  17.886  0.00  0.00    +0.000 C 
BRANCH  19  20
ATOM     20  C   UNL     1       2.963   2.866  19.083  0.00  0.00    +0.000 A 
ATOM     21  C   UNL     1       3.406   2.446  20.353  0.00  0.00    +0.000 A 
ATOM     22  C   UNL     1       2.615   2.639  21.489  0.00  0.00    +0.000 A 
ATOM     23  C   UNL     1       1.370   3.248  21.373  0.00  0.00    +0.000 A 
ATOM     24  C   UNL     1       0.915   3.662  20.122  0.00  0.00    +0.000 A 
ATOM     25  C   UNL     1       1.703   3.473  18.982  0.00  0.00    +0.000 A 
ATOM     26 CL   UNL     1       1.063   4.017  17.470  0.00  0.00    +0.000 Cl
ENDBRANCH  19  20
ENDBRANCH  17  19
ENDBRANCH  16  17
ENDBRANCH   2  16
TORSDOF 6
ENDMDL
MODEL 4
REMARK VINA RESULT:      -7.6      2.761      3.880
REMARK  Name = 
REMARK  6 active torsions:
REMARK  status: ('A' for Active; 'I' for Inactive)
REMARK    1  A    between atoms: C_2  and  C_4
REMARK    2  A    between atoms: C_7  and  N_8
REMARK    3  A    between atoms: C_9  and  C_11
REMARK    4  A    between atoms: C_11  and  N_12
REMARK    5  A    between atoms: N_12  and  C_13
REMARK    6  A    between atoms: C_13  and  C_14
REMARK                            x       y       z     vdW  Elec       q    Type
REMARK                         _______ _______ _______ _____ _____    ______ ____
ROOT
ATOM      1  N   UNL     1       4.860   3.426  17.677  0.00  0.00    +0.000 N 
ATOM      2  C   UNL     1       4.528   2.605  18.744  0.00  0.00    +0.000 C 
ATOM      3  O   UNL     1       4.804   2.801  19.927  0.00  0.00    +0.000 OA
ATOM      4  H   UNL     1       4.425   3.229  16.784  0.00  0.00    +0.000 HD
ENDROOT
BRANCH   1   8
ATOM      5  C   UNL     1       7.184   6.943  17.906  0.00  0.00    +0.000 A 
ATOM      6  C   UNL     1       5.952   6.975  17.251  0.00  0.00    +0.000 A 
ATOM      7  C   UNL     1       5.164   5.822  17.188  0.00  0.00    +0.000 A 
ATOM      8  C   UNL     1       5.598   4.626  17.765  0.00  0.00    +0.000 A 
ATOM      9  C   UNL     1       6.822   4.603  18.446  0.00  0.00    +0.000 A 
ATOM     10  C   UNL     1       7.620   5.753  18.500  0.00  0.00    +0.000 A 
BRANCH   5  12
ATOM     11  N   UNL     1       8.838   8.298  19.064  0.00  0.00    +0.000 N 
ATOM     12  C   UNL     1       8.056   8.143  17.953  0.00  0.00    +0.000 C 
ATOM     13  O   UNL     1       8.094   8.946  17.031  0.00  0.00    +0.000 OA
ATOM     14  H   UNL     1       9.484   9.076  19.065  0.00  0.00    +0.000 HD
ATOM     15  H   UNL     1       8.991   7.556  19.735  0.00  0.00    +0.000 HD
ENDBRANCH   5  12
ENDBRANCH   1   8
BRANCH   2  16
ATOM     16  C   UNL     1       3.641   1.417  18.354  0.00  0.00    +0.000 C 
BRANCH  16  17
ATOM     17  N   UNL     1       2.431   1.885  17.657  0.00  0.00    +0.000 NA
ATOM     18  H   UNL     1       2.086   1.110  17.082  0.00  0.00    +0.000 HD
BRANCH  17  19
ATOM     19  C   UNL     1       1.370   2.273  18.588  0.00  0.00    +0.000 C 
BRANCH  19  20
ATOM     20  C   UNL     1       1.566   3.693  19.061  0.00  0.00    +0.000 A 
ATOM     21  C   UNL     1       1.747   4.706  18.098  0.00  0.00    +0.000 A 
ATOM     22  C   UNL     1       1.961   6.032  18.484  0.00  0.00    +0.000 A 
ATOM     23  C   UNL     1       2.003   6.366  19.832  0.00  0.00    +0.000 A 
ATOM     24  C   UNL     1       1.832   5.374  20.797  0.00  0.00    +0.000 A 
ATOM     25  C   UNL     1       1.616   4.045  20.418  0.00  0.00    +0.000 A 
ATOM     26 CL   UNL     1       1.414   2.878  21.678  0.00  0.00    +0.000 Cl
ENDBRANCH  19  20
ENDBRANCH  17  19
ENDBRANCH  16  17
ENDBRANCH   2  16
TORSDOF 6
ENDMDL
MODEL 5
REMARK VINA RESULT:      -7.5      2.608      5.800
REMARK  Name = 
REMARK  6 active torsions:
REMARK  status: ('A' for Active; 'I' for Inactive)
REMARK    1  A    between atoms: C_2  and  C_4
REMARK    2  A    between atoms: C_7  and  N_8
REMARK    3  A    between atoms: C_9  and  C_11
REMARK    4  A    between atoms: C_11  and  N_12
REMARK    5  A    between atoms: N_12  and  C_13
REMARK    6  A    between atoms: C_13  and  C_14
REMARK                            x       y       z     vdW  Elec       q    Type
REMARK                         _______ _______ _______ _____ _____    ______ ____
ROOT
ATOM      1  N   UNL     1       3.482   6.277  17.720  0.00  0.00    +0.000 N 
ATOM      2  C   UNL     1       4.674   5.718  18.158  0.00  0.00    +0.000 C 
ATOM      3  O   UNL     1       5.265   5.991  19.201  0.00  0.00    +0.000 OA
ATOM      4  H   UNL     1       3.024   5.838  16.930  0.00  0.00    +0.000 HD
ENDROOT
BRANCH   1   8
ATOM      5  C   UNL     1       1.212   9.289  19.616  0.00  0.00    +0.000 A 
ATOM      6  C   UNL     1       1.524   8.121  20.314  0.00  0.00    +0.000 A 
ATOM      7  C   UNL     1       2.293   7.127  19.704  0.00  0.00    +0.000 A 
ATOM      8  C   UNL     1       2.750   7.278  18.393  0.00  0.00    +0.000 A 
ATOM      9  C   UNL     1       2.460   8.463  17.704  0.00  0.00    +0.000 A 
ATOM     10  C   UNL     1       1.678   9.456  18.307  0.00  0.00    +0.000 A 
BRANCH   5  12
ATOM     11  N   UNL     1      -0.867  10.548  19.670  0.00  0.00    +0.000 N 
ATOM     12  C   UNL     1       0.364  10.342  20.228  0.00  0.00    +0.000 C 
ATOM     13  O   UNL     1       0.737  10.981  21.203  0.00  0.00    +0.000 OA
ATOM     14  H   UNL     1      -1.473  11.215  20.131  0.00  0.00    +0.000 HD
ATOM     15  H   UNL     1      -1.287   9.903  19.014  0.00  0.00    +0.000 HD
ENDBRANCH   5  12
ENDBRANCH   1   8
BRANCH   2  16
ATOM     16  C   UNL     1       5.188   4.585  17.263  0.00  0.00    +0.000 C 
BRANCH  16  17
ATOM     17  N   UNL     1       5.118   3.296  17.972  0.00  0.00    +0.000 NA
ATOM     18  H   UNL     1       5.275   3.481  18.968  0.00  0.00    +0.000 HD
BRANCH  17  19
ATOM     19  C   UNL     1       3.810   2.654  17.827  0.00  0.00    +0.000 C 
BRANCH  19  20
ATOM     20  C   UNL     1       2.952   2.906  19.043  0.00  0.00    +0.000 A 
ATOM     21  C   UNL     1       3.419   2.471  20.299  0.00  0.00    +0.000 A 
ATOM     22  C   UNL     1       2.650   2.653  21.453  0.00  0.00    +0.000 A 
ATOM     23  C   UNL     1       1.405   3.267  21.368  0.00  0.00    +0.000 A 
ATOM     24  C   UNL     1       0.926   3.696  20.131  0.00  0.00    +0.000 A 
ATOM     25  C   UNL     1       1.692   3.517  18.974  0.00  0.00    +0.000 A 
ATOM     26 CL   UNL     1       1.023   4.079  17.481  0.00  0.00    +0.000 Cl
ENDBRANCH  19  20
ENDBRANCH  17  19
ENDBRANCH  16  17
ENDBRANCH   2  16
TORSDOF 6
ENDMDL
MODEL 6
REMARK VINA RESULT:      -7.4      2.329      5.691
REMARK  Name = 
REMARK  6 active torsions:
REMARK  status: ('A' for Active; 'I' for Inactive)
REMARK    1  A    between atoms: C_2  and  C_4
REMARK    2  A    between atoms: C_7  and  N_8
REMARK    3  A    between atoms: C_9  and  C_11
REMARK    4  A    between atoms: C_11  and  N_12
REMARK    5  A    between atoms: N_12  and  C_13
REMARK    6  A    between atoms: C_13  and  C_14
REMARK                            x       y       z     vdW  Elec       q    Type
REMARK                         _______ _______ _______ _____ _____    ______ ____
ROOT
ATOM      1  N   UNL     1       3.030   6.052  17.771  0.00  0.00    +0.000 N 
ATOM      2  C   UNL     1       4.363   5.952  17.401  0.00  0.00    +0.000 C 
ATOM      3  O   UNL     1       5.247   6.774  17.636  0.00  0.00    +0.000 OA
ATOM      4  H   UNL     1       2.452   5.227  17.661  0.00  0.00    +0.000 HD
ENDROOT
BRANCH   1   8
ATOM      5  C   UNL     1       1.205   9.303  19.752  0.00  0.00    +0.000 A 
ATOM      6  C   UNL     1       1.565   8.168  20.481  0.00  0.00    +0.000 A 
ATOM      7  C   UNL     1       2.189   7.095  19.840  0.00  0.00    +0.000 A 
ATOM      8  C   UNL     1       2.452   7.135  18.469  0.00  0.00    +0.000 A 
ATOM      9  C   UNL     1       2.115   8.285  17.744  0.00  0.00    +0.000 A 
ATOM     10  C   UNL     1       1.477   9.358  18.380  0.00  0.00    +0.000 A 
BRANCH   5  12
ATOM     11  N   UNL     1       0.438  10.425  21.769  0.00  0.00    +0.000 N 
ATOM     12  C   UNL     1       0.506  10.439  20.403  0.00  0.00    +0.000 C 
ATOM     13  O   UNL     1       0.032  11.360  19.752  0.00  0.00    +0.000 OA
ATOM     14  H   UNL     1       0.026  11.233  22.215  0.00  0.00    +0.000 HD
ATOM     15  H   UNL     1       0.996   9.803  22.339  0.00  0.00    +0.000 HD
ENDBRANCH   5  12
ENDBRANCH   1   8
BRANCH   2  16
ATOM     16  C   UNL     1       4.718   4.618  16.736  0.00  0.00    +0.000 C 
BRANCH  16  17
ATOM     17  N   UNL     1       4.890   3.565  17.751  0.00  0.00    +0.000 NA
ATOM     18  H   UNL     1       4.918   4.021  18.668  0.00  0.00    +0.000 HD
BRANCH  17  19
ATOM     19  C   UNL     1       3.781   2.608  17.750  0.00  0.00    +0.000 C 
BRANCH  19  20
ATOM     20  C   UNL     1       2.923   2.783  18.980  0.00  0.00    +0.000 A 
ATOM     21  C   UNL     1       1.628   3.317  18.829  0.00  0.00    +0.000 A 
ATOM     22  C   UNL     1       0.804   3.527  19.938  0.00  0.00    +0.000 A 
ATOM     23  C   UNL     1       1.261   3.211  21.213  0.00  0.00    +0.000 A 
ATOM     24  C   UNL     1       2.542   2.687  21.380  0.00  0.00    +0.000 A 
ATOM     25  C   UNL     1       3.372   2.475  20.273  0.00  0.00    +0.000 A 
ATOM     26 CL   UNL     1       4.945   1.822  20.568  0.00  0.00    +0.000 Cl
ENDBRANCH  19  20
ENDBRANCH  17  19
ENDBRANCH  16  17
ENDBRANCH   2  16
TORSDOF 6
ENDMDL
MODEL 7
REMARK VINA RESULT:      -7.4      2.474      5.676
REMARK  Name = 
REMARK  6 active torsions:
REMARK  status: ('A' for Active; 'I' for Inactive)
REMARK    1  A    between atoms: C_2  and  C_4
REMARK    2  A    between atoms: C_7  and  N_8
REMARK    3  A    between atoms: C_9  and  C_11
REMARK    4  A    between atoms: C_11  and  N_12
REMARK    5  A    between atoms: N_12  and  C_13
REMARK    6  A    between atoms: C_13  and  C_14
REMARK                            x       y       z     vdW  Elec       q    Type
REMARK                         _______ _______ _______ _____ _____    ______ ____
ROOT
ATOM      1  N   UNL     1       3.223   6.049  17.912  0.00  0.00    +0.000 N 
ATOM      2  C   UNL     1       4.375   5.416  18.358  0.00  0.00    +0.000 C 
ATOM      3  O   UNL     1       4.931   5.596  19.441  0.00  0.00    +0.000 OA
ATOM      4  H   UNL     1       2.784   5.682  17.077  0.00  0.00    +0.000 HD
ENDROOT
BRANCH   1   8
ATOM      5  C   UNL     1       1.142   8.960  20.152  0.00  0.00    +0.000 A 
ATOM      6  C   UNL     1       1.505   9.238  18.833  0.00  0.00    +0.000 A 
ATOM      7  C   UNL     1       2.174   8.273  18.075  0.00  0.00    +0.000 A 
ATOM      8  C   UNL     1       2.499   7.030  18.623  0.00  0.00    +0.000 A 
ATOM      9  C   UNL     1       2.110   6.743  19.938  0.00  0.00    +0.000 A 
ATOM     10  C   UNL     1       1.451   7.712  20.705  0.00  0.00    +0.000 A 
BRANCH   5  12
ATOM     11  N   UNL     1       0.528   9.812  22.345  0.00  0.00    +0.000 N 
ATOM     12  C   UNL     1       0.465   9.982  20.989  0.00  0.00    +0.000 C 
ATOM     13  O   UNL     1      -0.102  10.946  20.493  0.00  0.00    +0.000 OA
ATOM     14  H   UNL     1       0.129  10.545  22.917  0.00  0.00    +0.000 HD
ATOM     15  H   UNL     1       1.161   9.159  22.787  0.00  0.00    +0.000 HD
ENDBRANCH   5  12
ENDBRANCH   1   8
BRANCH   2  16
ATOM     16  C   UNL     1       4.886   4.327  17.409  0.00  0.00    +0.000 C 
BRANCH  16  17
ATOM     17  N   UNL     1       3.768   3.499  16.926  0.00  0.00    +0.000 NA
ATOM     18  H   UNL     1       3.979   3.226  15.961  0.00  0.00    +0.000 HD
BRANCH  17  19
ATOM     19  C   UNL     1       3.598   2.280  17.720  0.00  0.00    +0.000 C 
BRANCH  19  20
ATOM     20  C   UNL     1       2.792   2.561  18.965  0.00  0.00    +0.000 A 
ATOM     21  C   UNL     1       1.470   3.027  18.822  0.00  0.00    +0.000 A 
ATOM     22  C   UNL     1       0.691   3.330  19.942  0.00  0.00    +0.000 A 
ATOM     23  C   UNL     1       1.219   3.176  21.218  0.00  0.00    +0.000 A 
ATOM     24  C   UNL     1       2.528   2.722  21.376  0.00  0.00    +0.000 A 
ATOM     25  C   UNL     1       3.313   2.416  20.259  0.00  0.00    +0.000 A 
ATOM     26 CL   UNL     1       4.924   1.859  20.544  0.00  0.00    +0.000 Cl
ENDBRANCH  19  20
ENDBRANCH  17  19
ENDBRANCH  16  17
ENDBRANCH   2  16
TORSDOF 6
ENDMDL
MODEL 8
REMARK VINA RESULT:      -7.4      3.003      5.000
REMARK  Name = 
REMARK  6 active torsions:
REMARK  status: ('A' for Active; 'I' for Inactive)
REMARK    1  A    between atoms: C_2  and  C_4
REMARK    2  A    between atoms: C_7  and  N_8
REMARK    3  A    between atoms: C_9  and  C_11
REMARK    4  A    between atoms: C_11  and  N_12
REMARK    5  A    between atoms: N_12  and  C_13
REMARK    6  A    between atoms: C_13  and  C_14
REMARK                            x       y       z     vdW  Elec       q    Type
REMARK                         _______ _______ _______ _____ _____    ______ ____
ROOT
ATOM      1  N   UNL     1       3.621   5.883  18.899  0.00  0.00    +0.000 N 
ATOM      2  C   UNL     1       2.310   5.457  19.060  0.00  0.00    +0.000 C 
ATOM      3  O   UNL     1       1.658   4.792  18.256  0.00  0.00    +0.000 OA
ATOM      4  H   UNL     1       4.086   6.275  19.709  0.00  0.00    +0.000 HD
ENDROOT
BRANCH   1   8
ATOM      5  C   UNL     1       5.969   5.036  15.495  0.00  0.00    +0.000 A 
ATOM      6  C   UNL     1       5.415   6.308  15.648  0.00  0.00    +0.000 A 
ATOM      7  C   UNL     1       4.655   6.607  16.782  0.00  0.00    +0.000 A 
ATOM      8  C   UNL     1       4.428   5.642  17.767  0.00  0.00    +0.000 A 
ATOM      9  C   UNL     1       5.008   4.375  17.625  0.00  0.00    +0.000 A 
ATOM     10  C   UNL     1       5.760   4.068  16.484  0.00  0.00    +0.000 A 
BRANCH   5  12
ATOM     11  N   UNL     1       6.325   3.597  13.568  0.00  0.00    +0.000 N 
ATOM     12  C   UNL     1       6.748   4.684  14.282  0.00  0.00    +0.000 C 
ATOM     13  O   UNL     1       7.711   5.347  13.921  0.00  0.00    +0.000 OA
ATOM     14  H   UNL     1       6.811   3.399  12.703  0.00  0.00    +0.000 HD
ATOM     15  H   UNL     1       5.423   3.163  13.712  0.00  0.00    +0.000 HD
ENDBRANCH   5  12
ENDBRANCH   1   8
BRANCH   2  16
ATOM     16  C   UNL     1       1.719   5.788  20.434  0.00  0.00    +0.000 C 
BRANCH  16  17
ATOM     17  N   UNL     1       2.085   7.157  20.836  0.00  0.00    +0.000 NA
ATOM     18  H   UNL     1       3.096   7.259  20.701  0.00  0.00    +0.000 HD
BRANCH  17  19
ATOM     19  C   UNL     1       1.410   8.172  20.025  0.00  0.00    +0.000 C 
BRANCH  19  20
ATOM     20  C   UNL     1       0.637   9.129  20.900  0.00  0.00    +0.000 A 
ATOM     21  C   UNL     1       0.591   8.887  22.287  0.00  0.00    +0.000 A 
ATOM     22  C   UNL     1      -0.135   9.725  23.138  0.00  0.00    +0.000 A 
ATOM     23  C   UNL     1      -0.827  10.813  22.618  0.00  0.00    +0.000 A 
ATOM     24  C   UNL     1      -0.796  11.062  21.246  0.00  0.00    +0.000 A 
ATOM     25  C   UNL     1      -0.071  10.226  20.390  0.00  0.00    +0.000 A 
ATOM     26 CL   UNL     1      -0.085  10.607  18.703  0.00  0.00    +0.000 Cl
ENDBRANCH  19  20
ENDBRANCH  17  19
ENDBRANCH  16  17
ENDBRANCH   2  16
TORSDOF 6
ENDMDL
MODEL 9
REMARK VINA RESULT:      -7.3      3.257      6.680
REMARK  Name = 
REMARK  6 active torsions:
REMARK  status: ('A' for Active; 'I' for Inactive)
REMARK    1  A    between atoms: C_2  and  C_4
REMARK    2  A    between atoms: C_7  and  N_8
REMARK    3  A    between atoms: C_9  and  C_11
REMARK    4  A    between atoms: C_11  and  N_12
REMARK    5  A    between atoms: N_12  and  C_13
REMARK    6  A    between atoms: C_13  and  C_14
REMARK                            x       y       z     vdW  Elec       q    Type
REMARK                         _______ _______ _______ _____ _____    ______ ____
ROOT
ATOM      1  N   UNL     1       3.260   6.134  18.626  0.00  0.00    +0.000 N 
ATOM      2  C   UNL     1       2.748   4.954  18.107  0.00  0.00    +0.000 C 
ATOM      3  O   UNL     1       1.584   4.755  17.762  0.00  0.00    +0.000 OA
ATOM      4  H   UNL     1       4.267   6.210  18.708  0.00  0.00    +0.000 HD
ENDROOT
BRANCH   1   8
ATOM      5  C   UNL     1       0.978   9.635  19.225  0.00  0.00    +0.000 A 
ATOM      6  C   UNL     1       1.167   8.748  20.286  0.00  0.00    +0.000 A 
ATOM      7  C   UNL     1       1.938   7.598  20.106  0.00  0.00    +0.000 A 
ATOM      8  C   UNL     1       2.520   7.312  18.868  0.00  0.00    +0.000 A 
ATOM      9  C   UNL     1       2.353   8.217  17.812  0.00  0.00    +0.000 A 
ATOM     10  C   UNL     1       1.569   9.365  17.985  0.00  0.00    +0.000 A 
BRANCH   5  12
ATOM     11  N   UNL     1      -0.318  11.438  18.233  0.00  0.00    +0.000 N 
ATOM     12  C   UNL     1       0.131  10.844  19.380  0.00  0.00    +0.000 C 
ATOM     13  O   UNL     1      -0.174  11.278  20.483  0.00  0.00    +0.000 OA
ATOM     14  H   UNL     1      -0.953  12.219  18.340  0.00  0.00    +0.000 HD
ATOM     15  H   UNL     1      -0.267  10.991  17.328  0.00  0.00    +0.000 HD
ENDBRANCH   5  12
ENDBRANCH   1   8
BRANCH   2  16
ATOM     16  C   UNL     1       3.810   3.875  17.869  0.00  0.00    +0.000 C 
BRANCH  16  17
ATOM     17  N   UNL     1       4.286   3.921  16.476  0.00  0.00    +0.000 NA
ATOM     18  H   UNL     1       4.040   4.839  16.094  0.00  0.00    +0.000 HD
BRANCH  17  19
ATOM     19  C   UNL     1       5.739   3.760  16.381  0.00  0.00    +0.000 C 
BRANCH  19  20
ATOM     20  C   UNL     1       6.449   4.925  17.027  0.00  0.00    +0.000 A 
ATOM     21  C   UNL     1       7.345   4.668  18.083  0.00  0.00    +0.000 A 
ATOM     22  C   UNL     1       8.006   5.713  18.734  0.00  0.00    +0.000 A 
ATOM     23  C   UNL     1       7.780   7.028  18.344  0.00  0.00    +0.000 A 
ATOM     24  C   UNL     1       6.891   7.300  17.304  0.00  0.00    +0.000 A 
ATOM     25  C   UNL     1       6.227   6.257  16.649  0.00  0.00    +0.000 A 
ATOM     26 CL   UNL     1       5.143   6.681  15.370  0.00  0.00    +0.000 Cl
ENDBRANCH  19  20
ENDBRANCH  17  19
ENDBRANCH  16  17
ENDBRANCH   2  16
TORSDOF 6
ENDMDL
