MODEL 1
REMARK VINA RESULT:      -8.0      0.000      0.000
REMARK  Name = 
REMARK  7 active torsions:
REMARK  status: ('A' for Active; 'I' for Inactive)
REMARK    1  A    between atoms: C_1  and  N_2
REMARK    2  A    between atoms: N_2  and  C_3
REMARK    3  A    between atoms: N_2  and  C_4
REMARK    4  A    between atoms: C_4  and  C_5
REMARK    5  A    between atoms: C_5  and  C_6
REMARK    6  A    between atoms: C_6  and  N_7
REMARK    7  A    between atoms: C_8  and  C_10
REMARK                            x       y       z     vdW  Elec       q    Type
REMARK                         _______ _______ _______ _____ _____    ______ ____
ROOT
ATOM      1  N   UNL     1       4.738   4.921  17.221  0.00  0.00    +0.000 N 
ATOM      2  C   UNL     1       6.104   5.037  17.101  0.00  0.00    +0.000 C 
ATOM      3  O   UNL     1       6.749   4.127  16.601  0.00  0.00    +0.000 OA
ATOM      4  C   UNL     1       3.968   5.934  17.852  0.00  0.00    +0.000 A 
ATOM      5  N   UNL     1       3.422   6.998  17.201  0.00  0.00    +0.000 NA
ATOM      6  C   UNL     1       2.667   7.731  18.060  0.00  0.00    +0.000 A 
ATOM      7  C   UNL     1       1.953   8.905  17.731  0.00  0.00    +0.000 A 
ATOM      8  C   UNL     1       1.222   9.504  18.778  0.00  0.00    +0.000 A 
ATOM      9  C   UNL     1       1.189   8.985  20.033  0.00  0.00    +0.000 A 
ATOM     10  C   UNL     1       1.879   7.828  20.383  0.00  0.00    +0.000 A 
ATOM     11  C   UNL     1       2.615   7.223  19.367  0.00  0.00    +0.000 A 
ATOM     12  S   UNL     1       3.524   5.831  19.472  0.00  0.00    +0.000 S 
ATOM     13  O   UNL     1       0.424   9.744  20.814  0.00  0.00    +0.000 OA
ATOM     14  C   UNL     1      -0.058  10.792  20.033  0.00  0.00    +0.000 C 
ATOM     15  O   UNL     1       0.466  10.606  18.753  0.00  0.00    +0.000 OA
ENDROOT
BRANCH   2  16
ATOM     16  C   UNL     1       6.857   6.255  17.538  0.00  0.00    +0.000 A 
ATOM     17  C   UNL     1       7.734   6.320  18.606  0.00  0.00    +0.000 A 
ATOM     18  C   UNL     1       8.229   7.605  18.613  0.00  0.00    +0.000 A 
ATOM     19  C   UNL     1       7.638   8.248  17.548  0.00  0.00    +0.000 A 
ATOM     20  O   UNL     1       6.825   7.420  16.930  0.00  0.00    +0.000 OA
ENDBRANCH   2  16
BRANCH   1  21
ATOM     21  C   UNL     1       3.997   3.781  16.679  0.00  0.00    +0.000 C 
BRANCH  21  22
ATOM     22  C   UNL     1       3.693   2.629  17.666  0.00  0.00    +0.000 C 
BRANCH  22  23
ATOM     23  C   UNL     1       2.221   2.418  18.099  0.00  0.00    +0.000 C 
BRANCH  23  25
ATOM     24  C   UNL     1       3.423   2.334  20.235  0.00  0.00    +0.000 C 
ATOM     25  N   UNL     1       2.128   2.138  19.561  0.00  0.00    +0.000 NA
ATOM     26  C   UNL     1       1.112   2.964  20.245  0.00  0.00    +0.000 C 
ENDBRANCH  23  25
ENDBRANCH  22  23
ENDBRANCH  21  22
ENDBRANCH   1  21
TORSDOF 5
ENDMDL
MODEL 2
REMARK VINA RESULT:      -7.5      0.820      1.055
REMARK  Name = 
REMARK  7 active torsions:
REMARK  status: ('A' for Active; 'I' for Inactive)
REMARK    1  A    between atoms: C_1  and  N_2
REMARK    2  A    between atoms: N_2  and  C_3
REMARK    3  A    between atoms: N_2  and  C_4
REMARK    4  A    between atoms: C_4  and  C_5
REMARK    5  A    between atoms: C_5  and  C_6
REMARK    6  A    between atoms: C_6  and  N_7
REMARK    7  A    between atoms: C_8  and  C_10
REMARK                            x       y       z     vdW  Elec       q    Type
REMARK                         _______ _______ _______ _____ _____    ______ ____
ROOT
ATOM      1  N   UNL     1       3.962   4.792  17.406  0.00  0.00    +0.000 N 
ATOM      2  C   UNL     1       5.322   4.726  17.199  0.00  0.00    +0.000 C 
ATOM      3  O   UNL     1       5.816   3.715  16.722  0.00  0.00    +0.000 OA
ATOM      4  C   UNL     1       3.367   5.928  18.013  0.00  0.00    +0.000 A 
ATOM      5  N   UNL     1       2.915   7.015  17.328  0.00  0.00    +0.000 NA
ATOM      6  C   UNL     1       2.314   7.886  18.181  0.00  0.00    +0.000 A 
ATOM      7  C   UNL     1       1.731   9.120  17.819  0.00  0.00    +0.000 A 
ATOM      8  C   UNL     1       1.149   9.865  18.866  0.00  0.00    +0.000 A 
ATOM      9  C   UNL     1       1.135   9.426  20.151  0.00  0.00    +0.000 A 
ATOM     10  C   UNL     1       1.698   8.213  20.534  0.00  0.00    +0.000 A 
ATOM     11  C   UNL     1       2.285   7.462  19.518  0.00  0.00    +0.000 A 
ATOM     12  S   UNL     1       3.020   5.974  19.660  0.00  0.00    +0.000 S 
ATOM     13  O   UNL     1       0.522  10.320  20.924  0.00  0.00    +0.000 OA
ATOM     14  C   UNL     1       0.123  11.375  20.106  0.00  0.00    +0.000 C 
ATOM     15  O   UNL     1       0.535  11.052  18.813  0.00  0.00    +0.000 OA
ENDROOT
BRANCH   2  16
ATOM     16  C   UNL     1       6.247   5.861  17.513  0.00  0.00    +0.000 A 
ATOM     17  C   UNL     1       7.191   5.875  18.524  0.00  0.00    +0.000 A 
ATOM     18  C   UNL     1       7.841   7.085  18.419  0.00  0.00    +0.000 A 
ATOM     19  C   UNL     1       7.268   7.735  17.348  0.00  0.00    +0.000 A 
ATOM     20  O   UNL     1       6.321   6.984  16.833  0.00  0.00    +0.000 OA
ENDBRANCH   2  16
BRANCH   1  21
ATOM     21  C   UNL     1       3.053   3.727  16.982  0.00  0.00    +0.000 C 
BRANCH  21  22
ATOM     22  C   UNL     1       1.916   3.363  17.966  0.00  0.00    +0.000 C 
BRANCH  22  23
ATOM     23  C   UNL     1       2.192   2.255  19.012  0.00  0.00    +0.000 C 
BRANCH  23  25
ATOM     24  C   UNL     1       2.469   2.543  21.432  0.00  0.00    +0.000 C 
ATOM     25  N   UNL     1       3.073   2.757  20.105  0.00  0.00    +0.000 NA
ATOM     26  C   UNL     1       4.416   2.142  20.095  0.00  0.00    +0.000 C 
ENDBRANCH  23  25
ENDBRANCH  22  23
ENDBRANCH  21  22
ENDBRANCH   1  21
TORSDOF 5
ENDMDL
MODEL 3
REMARK VINA RESULT:      -7.4      2.025      4.597
REMARK  Name = 
REMARK  7 active torsions:
REMARK  status: ('A' for Active; 'I' for Inactive)
REMARK    1  A    between atoms: C_1  and  N_2
REMARK    2  A    between atoms: N_2  and  C_3
REMARK    3  A    between atoms: N_2  and  C_4
REMARK    4  A    between atoms: C_4  and  C_5
REMARK    5  A    between atoms: C_5  and  C_6
REMARK    6  A    between atoms: C_6  and  N_7
REMARK    7  A    between atoms: C_8  and  C_10
REMARK                            x       y       z     vdW  Elec       q    Type
REMARK                         _______ _______ _______ _____ _____    ______ ____
ROOT
ATOM      1  N   UNL     1       4.630   4.922  19.329  0.00  0.00    +0.000 N 
ATOM      2  C   UNL     1       4.251   3.598  19.323  0.00  0.00    +0.000 C 
ATOM      3  O   UNL     1       5.103   2.723  19.382  0.00  0.00    +0.000 OA
ATOM      4  C   UNL     1       3.669   5.960  19.201  0.00  0.00    +0.000 A 
ATOM      5  N   UNL     1       3.032   6.547  20.251  0.00  0.00    +0.000 NA
ATOM      6  C   UNL     1       2.249   7.567  19.809  0.00  0.00    +0.000 A 
ATOM      7  C   UNL     1       1.444   8.397  20.620  0.00  0.00    +0.000 A 
ATOM      8  C   UNL     1       0.718   9.405  19.952  0.00  0.00    +0.000 A 
ATOM      9  C   UNL     1       0.789   9.585  18.608  0.00  0.00    +0.000 A 
ATOM     10  C   UNL     1       1.577   8.785  17.786  0.00  0.00    +0.000 A 
ATOM     11  C   UNL     1       2.298   7.777  18.422  0.00  0.00    +0.000 A 
ATOM     12  S   UNL     1       3.333   6.678  17.717  0.00  0.00    +0.000 S 
ATOM     13  O   UNL     1       0.011  10.603  18.249  0.00  0.00    +0.000 OA
ATOM     14  C   UNL     1      -0.584  11.102  19.406  0.00  0.00    +0.000 C 
ATOM     15  O   UNL     1      -0.112  10.321  20.462  0.00  0.00    +0.000 OA
ENDROOT
BRANCH   2  16
ATOM     16  C   UNL     1       2.820   3.163  19.270  0.00  0.00    +0.000 A 
ATOM     17  C   UNL     1       1.968   3.061  20.355  0.00  0.00    +0.000 A 
ATOM     18  C   UNL     1       0.748   2.676  19.845  0.00  0.00    +0.000 A 
ATOM     19  C   UNL     1       0.919   2.573  18.483  0.00  0.00    +0.000 A 
ATOM     20  O   UNL     1       2.162   2.865  18.171  0.00  0.00    +0.000 OA
ENDBRANCH   2  16
BRANCH   1  21
ATOM     21  C   UNL     1       6.021   5.339  19.507  0.00  0.00    +0.000 C 
BRANCH  21  22
ATOM     22  C   UNL     1       6.756   5.831  18.238  0.00  0.00    +0.000 C 
BRANCH  22  23
ATOM     23  C   UNL     1       7.141   4.778  17.170  0.00  0.00    +0.000 C 
BRANCH  23  25
ATOM     24  C   UNL     1       7.095   4.822  14.718  0.00  0.00    +0.000 C 
ATOM     25  N   UNL     1       6.294   4.916  15.951  0.00  0.00    +0.000 NA
ATOM     26  C   UNL     1       5.208   3.917  15.884  0.00  0.00    +0.000 C 
ENDBRANCH  23  25
ENDBRANCH  22  23
ENDBRANCH  21  22
ENDBRANCH   1  21
TORSDOF 5
ENDMDL
MODEL 4
REMARK VINA RESULT:      -7.3      0.902      1.100
REMARK  Name = 
REMARK  7 active torsions:
REMARK  status: ('A' for Active; 'I' for Inactive)
REMARK    1  A    between atoms: C_1  and  N_2
REMARK    2  A    between atoms: N_2  and  C_3
REMARK    3  A    between atoms: N_2  and  C_4
REMARK    4  A    between atoms: C_4  and  C_5
REMARK    5  A    between atoms: C_5  and  C_6
REMARK    6  A    between atoms: C_6  and  N_7
REMARK    7  A    between atoms: C_8  and  C_10
REMARK                            x       y       z     vdW  Elec       q    Type
REMARK                         _______ _______ _______ _____ _____    ______ ____
ROOT
ATOM      1  N   UNL     1       5.528   4.842  17.202  0.00  0.00    +0.000 N 
ATOM      2  C   UNL     1       6.878   5.107  17.154  0.00  0.00    +0.000 C 
ATOM      3  O   UNL     1       7.641   4.284  16.671  0.00  0.00    +0.000 OA
ATOM      4  C   UNL     1       4.623   5.752  17.811  0.00  0.00    +0.000 A 
ATOM      5  N   UNL     1       3.999   6.767  17.153  0.00  0.00    +0.000 NA
ATOM      6  C   UNL     1       3.127   7.394  17.986  0.00  0.00    +0.000 A 
ATOM      7  C   UNL     1       2.308   8.493  17.643  0.00  0.00    +0.000 A 
ATOM      8  C   UNL     1       1.466   8.984  18.662  0.00  0.00    +0.000 A 
ATOM      9  C   UNL     1       1.427   8.434  19.903  0.00  0.00    +0.000 A 
ATOM     10  C   UNL     1       2.220   7.351  20.267  0.00  0.00    +0.000 A 
ATOM     11  C   UNL     1       3.066   6.852  19.278  0.00  0.00    +0.000 A 
ATOM     12  S   UNL     1       4.114   5.563  19.404  0.00  0.00    +0.000 S 
ATOM     13  O   UNL     1       0.547   9.089  20.657  0.00  0.00    +0.000 OA
ATOM     14  C   UNL     1      -0.006  10.098  19.872  0.00  0.00    +0.000 C 
ATOM     15  O   UNL     1       0.597  10.000  18.618  0.00  0.00    +0.000 OA
ENDROOT
BRANCH   2  16
ATOM     16  C   UNL     1       7.473   6.388  17.652  0.00  0.00    +0.000 A 
ATOM     17  C   UNL     1       7.412   7.609  17.005  0.00  0.00    +0.000 A 
ATOM     18  C   UNL     1       8.042   8.510  17.834  0.00  0.00    +0.000 A 
ATOM     19  C   UNL     1       8.442   7.794  18.941  0.00  0.00    +0.000 A 
ATOM     20  O   UNL     1       8.093   6.535  18.802  0.00  0.00    +0.000 OA
ENDBRANCH   2  16
BRANCH   1  21
ATOM     21  C   UNL     1       4.942   3.644  16.601  0.00  0.00    +0.000 C 
BRANCH  21  22
ATOM     22  C   UNL     1       3.465   3.350  16.956  0.00  0.00    +0.000 C 
BRANCH  22  23
ATOM     23  C   UNL     1       3.169   2.141  17.877  0.00  0.00    +0.000 C 
BRANCH  23  25
ATOM     24  C   UNL     1       2.194   2.438  20.108  0.00  0.00    +0.000 C 
ATOM     25  N   UNL     1       1.921   2.358  18.662  0.00  0.00    +0.000 NA
ATOM     26  C   UNL     1       1.185   3.573  18.255  0.00  0.00    +0.000 C 
ENDBRANCH  23  25
ENDBRANCH  22  23
ENDBRANCH  21  22
ENDBRANCH   1  21
TORSDOF 5
ENDMDL
MODEL 5
REMARK VINA RESULT:      -7.3      2.044      4.669
REMARK  Name = 
REMARK  7 active torsions:
REMARK  status: ('A' for Active; 'I' for Inactive)
REMARK    1  A    between atoms: C_1  and  N_2
REMARK    2  A    between atoms: N_2  and  C_3
REMARK    3  A    between atoms: N_2  and  C_4
REMARK    4  A    between atoms: C_4  and  C_5
REMARK    5  A    between atoms: C_5  and  C_6
REMARK    6  A    between atoms: C_6  and  N_7
REMARK    7  A    between atoms: C_8  and  C_10
REMARK                            x       y       z     vdW  Elec       q    Type
REMARK                         _______ _______ _______ _____ _____    ______ ____
ROOT
ATOM      1  N   UNL     1       4.615   4.968  19.268  0.00  0.00    +0.000 N 
ATOM      2  C   UNL     1       4.242   3.643  19.263  0.00  0.00    +0.000 C 
ATOM      3  O   UNL     1       5.097   2.771  19.311  0.00  0.00    +0.000 OA
ATOM      4  C   UNL     1       3.649   6.002  19.153  0.00  0.00    +0.000 A 
ATOM      5  N   UNL     1       3.021   6.585  20.210  0.00  0.00    +0.000 NA
ATOM      6  C   UNL     1       2.229   7.603  19.779  0.00  0.00    +0.000 A 
ATOM      7  C   UNL     1       1.430   8.428  20.601  0.00  0.00    +0.000 A 
ATOM      8  C   UNL     1       0.692   9.434  19.943  0.00  0.00    +0.000 A 
ATOM      9  C   UNL     1       0.748   9.617  18.598  0.00  0.00    +0.000 A 
ATOM     10  C   UNL     1       1.529   8.822  17.766  0.00  0.00    +0.000 A 
ATOM     11  C   UNL     1       2.262   7.815  18.392  0.00  0.00    +0.000 A 
ATOM     12  S   UNL     1       3.293   6.722  17.673  0.00  0.00    +0.000 S 
ATOM     13  O   UNL     1      -0.038  10.633  18.250  0.00  0.00    +0.000 OA
ATOM     14  C   UNL     1      -0.622  11.127  19.415  0.00  0.00    +0.000 C 
ATOM     15  O   UNL     1      -0.135  10.346  20.464  0.00  0.00    +0.000 OA
ENDROOT
BRANCH   2  16
ATOM     16  C   UNL     1       2.812   3.202  19.226  0.00  0.00    +0.000 A 
ATOM     17  C   UNL     1       2.166   2.654  18.131  0.00  0.00    +0.000 A 
ATOM     18  C   UNL     1       0.890   2.355  18.554  0.00  0.00    +0.000 A 
ATOM     19  C   UNL     1       0.829   2.726  19.879  0.00  0.00    +0.000 A 
ATOM     20  O   UNL     1       1.986   3.229  20.248  0.00  0.00    +0.000 OA
ENDBRANCH   2  16
BRANCH   1  21
ATOM     21  C   UNL     1       6.006   5.390  19.431  0.00  0.00    +0.000 C 
BRANCH  21  22
ATOM     22  C   UNL     1       6.984   4.979  18.304  0.00  0.00    +0.000 C 
BRANCH  22  23
ATOM     23  C   UNL     1       6.747   5.567  16.891  0.00  0.00    +0.000 C 
BRANCH  23  25
ATOM     24  C   UNL     1       5.178   4.048  15.776  0.00  0.00    +0.000 C 
ATOM     25  N   UNL     1       6.582   4.484  15.880  0.00  0.00    +0.000 NA
ATOM     26  C   UNL     1       7.056   4.868  14.535  0.00  0.00    +0.000 C 
ENDBRANCH  23  25
ENDBRANCH  22  23
ENDBRANCH  21  22
ENDBRANCH   1  21
TORSDOF 5
ENDMDL
MODEL 6
REMARK VINA RESULT:      -7.3      0.989      1.214
REMARK  Name = 
REMARK  7 active torsions:
REMARK  status: ('A' for Active; 'I' for Inactive)
REMARK    1  A    between atoms: C_1  and  N_2
REMARK    2  A    between atoms: N_2  and  C_3
REMARK    3  A    between atoms: N_2  and  C_4
REMARK    4  A    between atoms: C_4  and  C_5
REMARK    5  A    between atoms: C_5  and  C_6
REMARK    6  A    between atoms: C_6  and  N_7
REMARK    7  A    between atoms: C_8  and  C_10
REMARK                            x       y       z     vdW  Elec       q    Type
REMARK                         _______ _______ _______ _____ _____    ______ ____
ROOT
ATOM      1  N   UNL     1       3.599   4.608  17.416  0.00  0.00    +0.000 N 
ATOM      2  C   UNL     1       4.946   4.417  17.204  0.00  0.00    +0.000 C 
ATOM      3  O   UNL     1       5.339   3.372  16.706  0.00  0.00    +0.000 OA
ATOM      4  C   UNL     1       3.115   5.784  18.047  0.00  0.00    +0.000 A 
ATOM      5  N   UNL     1       2.768   6.922  17.384  0.00  0.00    +0.000 NA
ATOM      6  C   UNL     1       2.254   7.830  18.255  0.00  0.00    +0.000 A 
ATOM      7  C   UNL     1       1.790   9.121  17.918  0.00  0.00    +0.000 A 
ATOM      8  C   UNL     1       1.285   9.898  18.980  0.00  0.00    +0.000 A 
ATOM      9  C   UNL     1       1.231   9.439  20.257  0.00  0.00    +0.000 A 
ATOM     10  C   UNL     1       1.677   8.171  20.616  0.00  0.00    +0.000 A 
ATOM     11  C   UNL     1       2.188   7.386  19.584  0.00  0.00    +0.000 A 
ATOM     12  S   UNL     1       2.778   5.833  19.695  0.00  0.00    +0.000 S 
ATOM     13  O   UNL     1       0.708  10.372  21.049  0.00  0.00    +0.000 OA
ATOM     14  C   UNL     1       0.410  11.475  20.253  0.00  0.00    +0.000 C 
ATOM     15  O   UNL     1       0.786  11.139  18.952  0.00  0.00    +0.000 OA
ENDROOT
BRANCH   2  16
ATOM     16  C   UNL     1       5.975   5.452  17.534  0.00  0.00    +0.000 A 
ATOM     17  C   UNL     1       6.236   6.593  16.795  0.00  0.00    +0.000 A 
ATOM     18  C   UNL     1       7.215   7.275  17.484  0.00  0.00    +0.000 A 
ATOM     19  C   UNL     1       7.489   6.522  18.604  0.00  0.00    +0.000 A 
ATOM     20  O   UNL     1       6.738   5.443  18.604  0.00  0.00    +0.000 OA
ENDBRANCH   2  16
BRANCH   1  21
ATOM     21  C   UNL     1       2.591   3.643  16.976  0.00  0.00    +0.000 C 
BRANCH  21  22
ATOM     22  C   UNL     1       2.416   2.383  17.857  0.00  0.00    +0.000 C 
BRANCH  22  23
ATOM     23  C   UNL     1       1.374   2.440  19.002  0.00  0.00    +0.000 C 
BRANCH  23  25
ATOM     24  C   UNL     1       3.444   2.394  20.317  0.00  0.00    +0.000 C 
ATOM     25  N   UNL     1       1.999   2.104  20.313  0.00  0.00    +0.000 NA
ATOM     26  C   UNL     1       1.375   2.811  21.450  0.00  0.00    +0.000 C 
ENDBRANCH  23  25
ENDBRANCH  22  23
ENDBRANCH  21  22
ENDBRANCH   1  21
TORSDOF 5
ENDMDL
MODEL 7
REMARK VINA RESULT:      -7.2      1.338      1.613
REMARK  Name = 
REMARK  7 active torsions:
REMARK  status: ('A' for Active; 'I' for Inactive)
REMARK    1  A    between atoms: C_1  and  N_2
REMARK    2  A    between atoms: N_2  and  C_3
REMARK    3  A    between atoms: N_2  and  C_4
REMARK    4  A    between atoms: C_4  and  C_5
REMARK    5  A    between atoms: C_5  and  C_6
REMARK    6  A    between atoms: C_6  and  N_7
REMARK    7  A    between atoms: C_8  and  C_10
REMARK                            x       y       z     vdW  Elec       q    Type
REMARK                         _______ _______ _______ _____ _____    ______ ____
ROOT
ATOM      1  N   UNL     1       2.792   4.882  17.787  0.00  0.00    +0.000 N 
ATOM      2  C   UNL     1       4.089   4.536  17.478  0.00  0.00    +0.000 C 
ATOM      3  O   UNL     1       4.323   3.447  16.974  0.00  0.00    +0.000 OA
ATOM      4  C   UNL     1       2.494   6.113  18.427  0.00  0.00    +0.000 A 
ATOM      5  N   UNL     1       2.228   7.275  17.768  0.00  0.00    +0.000 NA
ATOM      6  C   UNL     1       1.888   8.246  18.655  0.00  0.00    +0.000 A 
ATOM      7  C   UNL     1       1.548   9.578  18.327  0.00  0.00    +0.000 A 
ATOM      8  C   UNL     1       1.217  10.420  19.408  0.00  0.00    +0.000 A 
ATOM      9  C   UNL     1       1.210   9.986  20.695  0.00  0.00    +0.000 A 
ATOM     10  C   UNL     1       1.536   8.680  21.046  0.00  0.00    +0.000 A 
ATOM     11  C   UNL     1       1.874   7.829  19.995  0.00  0.00    +0.000 A 
ATOM     12  S   UNL     1       2.293   6.220  20.095  0.00  0.00    +0.000 S 
ATOM     13  O   UNL     1       0.857  10.982  21.504  0.00  0.00    +0.000 OA
ATOM     14  C   UNL     1       0.625  12.103  20.709  0.00  0.00    +0.000 C 
ATOM     15  O   UNL     1       0.860  11.709  19.391  0.00  0.00    +0.000 OA
ENDROOT
BRANCH   2  16
ATOM     16  C   UNL     1       5.250   5.451  17.708  0.00  0.00    +0.000 A 
ATOM     17  C   UNL     1       6.203   5.309  18.701  0.00  0.00    +0.000 A 
ATOM     18  C   UNL     1       7.102   6.336  18.514  0.00  0.00    +0.000 A 
ATOM     19  C   UNL     1       6.656   7.039  17.417  0.00  0.00    +0.000 A 
ATOM     20  O   UNL     1       5.551   6.491  16.963  0.00  0.00    +0.000 OA
ENDBRANCH   2  16
BRANCH   1  21
ATOM     21  C   UNL     1       1.651   4.032  17.444  0.00  0.00    +0.000 C 
BRANCH  21  22
ATOM     22  C   UNL     1       1.075   3.164  18.587  0.00  0.00    +0.000 C 
BRANCH  22  23
ATOM     23  C   UNL     1       1.896   1.934  19.046  0.00  0.00    +0.000 C 
BRANCH  23  25
ATOM     24  C   UNL     1       3.645   2.660  20.604  0.00  0.00    +0.000 C 
ATOM     25  N   UNL     1       2.304   2.064  20.474  0.00  0.00    +0.000 NA
ATOM     26  C   UNL     1       1.355   2.863  21.276  0.00  0.00    +0.000 C 
ENDBRANCH  23  25
ENDBRANCH  22  23
ENDBRANCH  21  22
ENDBRANCH   1  21
TORSDOF 5
ENDMDL
MODEL 8
REMARK VINA RESULT:      -7.2      2.196      3.443
REMARK  Name = 
REMARK  7 active torsions:
REMARK  status: ('A' for Active; 'I' for Inactive)
REMARK    1  A    between atoms: C_1  and  N_2
REMARK    2  A    between atoms: N_2  and  C_3
REMARK    3  A    between atoms: N_2  and  C_4
REMARK    4  A    between atoms: C_4  and  C_5
REMARK    5  A    between atoms: C_5  and  C_6
REMARK    6  A    between atoms: C_6  and  N_7
REMARK    7  A    between atoms: C_8  and  C_10
REMARK                            x       y       z     vdW  Elec       q    Type
REMARK                         _______ _______ _______ _____ _____    ______ ____
ROOT
ATOM      1  N   UNL     1       5.587   5.299  16.676  0.00  0.00    +0.000 N 
ATOM      2  C   UNL     1       6.931   5.601  16.688  0.00  0.00    +0.000 C 
ATOM      3  O   UNL     1       7.716   4.899  16.067  0.00  0.00    +0.000 OA
ATOM      4  C   UNL     1       4.658   6.058  17.435  0.00  0.00    +0.000 A 
ATOM      5  N   UNL     1       4.010   7.161  16.971  0.00  0.00    +0.000 NA
ATOM      6  C   UNL     1       3.120   7.603  17.898  0.00  0.00    +0.000 A 
ATOM      7  C   UNL     1       2.274   8.725  17.757  0.00  0.00    +0.000 A 
ATOM      8  C   UNL     1       1.417   9.001  18.842  0.00  0.00    +0.000 A 
ATOM      9  C   UNL     1       1.390   8.231  19.962  0.00  0.00    +0.000 A 
ATOM     10  C   UNL     1       2.209   7.119  20.126  0.00  0.00    +0.000 A 
ATOM     11  C   UNL     1       3.070   6.831  19.069  0.00  0.00    +0.000 A 
ATOM     12  S   UNL     1       4.150   5.567  18.963  0.00  0.00    +0.000 S 
ATOM     13  O   UNL     1       0.491   8.714  20.817  0.00  0.00    +0.000 OA
ATOM     14  C   UNL     1      -0.086   9.836  20.226  0.00  0.00    +0.000 C 
ATOM     15  O   UNL     1       0.523   9.985  18.980  0.00  0.00    +0.000 OA
ENDROOT
BRANCH   2  16
ATOM     16  C   UNL     1       7.491   6.782  17.416  0.00  0.00    +0.000 A 
ATOM     17  C   UNL     1       8.114   6.746  18.651  0.00  0.00    +0.000 A 
ATOM     18  C   UNL     1       8.511   8.039  18.914  0.00  0.00    +0.000 A 
ATOM     19  C   UNL     1       8.118   8.787  17.826  0.00  0.00    +0.000 A 
ATOM     20  O   UNL     1       7.512   8.013  16.954  0.00  0.00    +0.000 OA
ENDBRANCH   2  16
BRANCH   1  21
ATOM     21  C   UNL     1       5.034   4.217  15.862  0.00  0.00    +0.000 C 
BRANCH  21  22
ATOM     22  C   UNL     1       5.148   4.385  14.328  0.00  0.00    +0.000 C 
BRANCH  22  23
ATOM     23  C   UNL     1       6.260   3.595  13.594  0.00  0.00    +0.000 C 
BRANCH  23  25
ATOM     24  C   UNL     1       6.608   2.267  11.562  0.00  0.00    +0.000 C 
ATOM     25  N   UNL     1       5.943   3.445  12.145  0.00  0.00    +0.000 NA
ATOM     26  C   UNL     1       4.494   3.348  11.876  0.00  0.00    +0.000 C 
ENDBRANCH  23  25
ENDBRANCH  22  23
ENDBRANCH  21  22
ENDBRANCH   1  21
TORSDOF 5
ENDMDL
MODEL 9
REMARK VINA RESULT:      -6.8      2.043      5.011
REMARK  Name = 
REMARK  7 active torsions:
REMARK  status: ('A' for Active; 'I' for Inactive)
REMARK    1  A    between atoms: C_1  and  N_2
REMARK    2  A    between atoms: N_2  and  C_3
REMARK    3  A    between atoms: N_2  and  C_4
REMARK    4  A    between atoms: C_4  and  C_5
REMARK    5  A    between atoms: C_5  and  C_6
REMARK    6  A    between atoms: C_6  and  N_7
REMARK    7  A    between atoms: C_8  and  C_10
REMARK                            x       y       z     vdW  Elec       q    Type
REMARK                         _______ _______ _______ _____ _____    ______ ____
ROOT
ATOM      1  N   UNL     1       4.490   4.729  19.454  0.00  0.00    +0.000 N 
ATOM      2  C   UNL     1       4.061   3.420  19.451  0.00  0.00    +0.000 C 
ATOM      3  O   UNL     1       4.878   2.514  19.534  0.00  0.00    +0.000 OA
ATOM      4  C   UNL     1       3.572   5.801  19.299  0.00  0.00    +0.000 A 
ATOM      5  N   UNL     1       2.938   6.422  20.331  0.00  0.00    +0.000 NA
ATOM      6  C   UNL     1       2.203   7.466  19.866  0.00  0.00    +0.000 A 
ATOM      7  C   UNL     1       1.415   8.333  20.655  0.00  0.00    +0.000 A 
ATOM      8  C   UNL     1       0.740   9.362  19.965  0.00  0.00    +0.000 A 
ATOM      9  C   UNL     1       0.844   9.528  18.621  0.00  0.00    +0.000 A 
ATOM     10  C   UNL     1       1.616   8.691  17.821  0.00  0.00    +0.000 A 
ATOM     11  C   UNL     1       2.286   7.662  18.479  0.00  0.00    +0.000 A 
ATOM     12  S   UNL     1       3.291   6.519  17.802  0.00  0.00    +0.000 S 
ATOM     13  O   UNL     1       0.112  10.572  18.239  0.00  0.00    +0.000 OA
ATOM     14  C   UNL     1      -0.485  11.102  19.380  0.00  0.00    +0.000 C 
ATOM     15  O   UNL     1      -0.064  10.314  20.451  0.00  0.00    +0.000 OA
ENDROOT
BRANCH   2  16
ATOM     16  C   UNL     1       2.616   3.039  19.374  0.00  0.00    +0.000 A 
ATOM     17  C   UNL     1       1.740   2.981  20.443  0.00  0.00    +0.000 A 
ATOM     18  C   UNL     1       0.516   2.637  19.913  0.00  0.00    +0.000 A 
ATOM     19  C   UNL     1       0.709   2.514  18.555  0.00  0.00    +0.000 A 
ATOM     20  O   UNL     1       1.968   2.755  18.266  0.00  0.00    +0.000 OA
ENDBRANCH   2  16
BRANCH   1  21
ATOM     21  C   UNL     1       5.892   5.094  19.655  0.00  0.00    +0.000 C 
BRANCH  21  22
ATOM     22  C   UNL     1       6.743   5.275  18.376  0.00  0.00    +0.000 C 
BRANCH  22  23
ATOM     23  C   UNL     1       7.858   6.352  18.395  0.00  0.00    +0.000 C 
BRANCH  23  25
ATOM     24  C   UNL     1       6.405   7.128  16.578  0.00  0.00    +0.000 C 
ATOM     25  N   UNL     1       7.696   7.310  17.265  0.00  0.00    +0.000 NA
ATOM     26  C   UNL     1       7.812   8.723  17.682  0.00  0.00    +0.000 C 
ENDBRANCH  23  25
ENDBRANCH  22  23
ENDBRANCH  21  22
ENDBRANCH   1  21
TORSDOF 5
ENDMDL
