MODEL 1
REMARK VINA RESULT:      -7.3      0.000      0.000
REMARK  Name = 
REMARK  3 active torsions:
REMARK  status: ('A' for Active; 'I' for Inactive)
REMARK    1  A    between atoms: C_1  and  C_2
REMARK    2  A    between atoms: C_2  and  C_3
REMARK    3  A    between atoms: C_10  and  N_11
REMARK                            x       y       z     vdW  Elec       q    Type
REMARK                         _______ _______ _______ _____ _____    ______ ____
ROOT
ATOM      1  C   UNL     1       7.044   5.003  14.281  0.00  0.00    +0.000 A 
ATOM      2  N   UNL     1       7.367   5.531  15.422  0.00  0.00    +0.000 NA
ATOM      3  N   UNL     1       6.392   5.203  16.343  0.00  0.00    +0.000 N 
ATOM      4  C   UNL     1       6.475   5.585  17.666  0.00  0.00    +0.000 A 
ATOM      5  O   UNL     1       7.379   6.246  18.171  0.00  0.00    +0.000 OA
ATOM      6  C   UNL     1       5.340   5.087  18.478  0.00  0.00    +0.000 A 
ATOM      7  F   UNL     1       5.389   5.380  19.796  0.00  0.00    +0.000 F 
ATOM      8  C   UNL     1       4.373   4.306  17.942  0.00  0.00    +0.000 A 
ATOM      9  N   UNL     1       4.386   3.972  16.600  0.00  0.00    +0.000 NA
ATOM     10  C   UNL     1       5.360   4.426  15.893  0.00  0.00    +0.000 A 
ATOM     11  S   UNL     1       5.546   4.110  14.202  0.00  0.00    +0.000 S 
ENDROOT
BRANCH   8  12
ATOM     12  N   UNL     1       3.379   3.759  18.752  0.00  0.00    +0.000 N 
ATOM     13  C   UNL     1       3.643   2.578  19.594  0.00  0.00    +0.000 C 
ATOM     14  C   UNL     1       2.892   2.738  20.935  0.00  0.00    +0.000 C 
ATOM     15  N   UNL     1       1.438   2.949  20.778  0.00  0.00    +0.000 NA
ATOM     16  C   UNL     1       1.190   4.071  19.848  0.00  0.00    +0.000 C 
ATOM     17  C   UNL     1       1.937   3.941  18.502  0.00  0.00    +0.000 C 
ATOM     18  H   UNL     1       1.040   3.182  21.686  0.00  0.00    +0.000 HD
ENDBRANCH   8  12
BRANCH   1  20
ATOM     19  C   UNL     1       7.266   4.321  11.906  0.00  0.00    +0.000 C 
ATOM     20  C   UNL     1       7.872   5.127  13.039  0.00  0.00    +0.000 C 
ENDBRANCH   1  20
TORSDOF 2
ENDMDL
MODEL 2
REMARK VINA RESULT:      -7.1      0.741      1.188
REMARK  Name = 
REMARK  3 active torsions:
REMARK  status: ('A' for Active; 'I' for Inactive)
REMARK    1  A    between atoms: C_1  and  C_2
REMARK    2  A    between atoms: C_2  and  C_3
REMARK    3  A    between atoms: C_10  and  N_11
REMARK                            x       y       z     vdW  Elec       q    Type
REMARK                         _______ _______ _______ _____ _____    ______ ____
ROOT
ATOM      1  C   UNL     1       6.962   4.822  14.101  0.00  0.00    +0.000 A 
ATOM      2  N   UNL     1       7.495   5.344  15.164  0.00  0.00    +0.000 NA
ATOM      3  N   UNL     1       6.624   5.161  16.220  0.00  0.00    +0.000 N 
ATOM      4  C   UNL     1       6.928   5.571  17.501  0.00  0.00    +0.000 A 
ATOM      5  O   UNL     1       7.961   6.137  17.851  0.00  0.00    +0.000 OA
ATOM      6  C   UNL     1       5.866   5.235  18.477  0.00  0.00    +0.000 A 
ATOM      7  F   UNL     1       6.126   5.560  19.762  0.00  0.00    +0.000 F 
ATOM      8  C   UNL     1       4.754   4.556  18.110  0.00  0.00    +0.000 A 
ATOM      9  N   UNL     1       4.547   4.182  16.795  0.00  0.00    +0.000 NA
ATOM     10  C   UNL     1       5.460   4.497  15.946  0.00  0.00    +0.000 A 
ATOM     11  S   UNL     1       5.377   4.109  14.261  0.00  0.00    +0.000 S 
ENDROOT
BRANCH   8  12
ATOM     12  N   UNL     1       3.824   4.154  19.068  0.00  0.00    +0.000 N 
ATOM     13  C   UNL     1       3.112   5.140  19.902  0.00  0.00    +0.000 C 
ATOM     14  C   UNL     1       1.658   4.664  20.112  0.00  0.00    +0.000 C 
ATOM     15  N   UNL     1       1.557   3.313  20.705  0.00  0.00    +0.000 NA
ATOM     16  C   UNL     1       2.361   2.357  19.916  0.00  0.00    +0.000 C 
ATOM     17  C   UNL     1       3.818   2.813  19.682  0.00  0.00    +0.000 C 
ATOM     18  H   UNL     1       0.582   3.018  20.684  0.00  0.00    +0.000 HD
ENDBRANCH   8  12
BRANCH   1  20
ATOM     19  C   UNL     1       6.992   3.764  11.858  0.00  0.00    +0.000 C 
ATOM     20  C   UNL     1       7.623   4.810  12.756  0.00  0.00    +0.000 C 
ENDBRANCH   1  20
TORSDOF 2
ENDMDL
MODEL 3
REMARK VINA RESULT:      -6.5      1.144      1.144
REMARK  Name = 
REMARK  3 active torsions:
REMARK  status: ('A' for Active; 'I' for Inactive)
REMARK    1  A    between atoms: C_1  and  C_2
REMARK    2  A    between atoms: C_2  and  C_3
REMARK    3  A    between atoms: C_10  and  N_11
REMARK                            x       y       z     vdW  Elec       q    Type
REMARK                         _______ _______ _______ _____ _____    ______ ____
ROOT
ATOM      1  C   UNL     1       6.596   4.983  14.512  0.00  0.00    +0.000 A 
ATOM      2  N   UNL     1       6.292   5.987  15.276  0.00  0.00    +0.000 NA
ATOM      3  N   UNL     1       5.375   5.556  16.215  0.00  0.00    +0.000 N 
ATOM      4  C   UNL     1       4.888   6.388  17.201  0.00  0.00    +0.000 A 
ATOM      5  O   UNL     1       5.184   7.570  17.358  0.00  0.00    +0.000 OA
ATOM      6  C   UNL     1       3.950   5.701  18.119  0.00  0.00    +0.000 A 
ATOM      7  F   UNL     1       3.479   6.447  19.142  0.00  0.00    +0.000 F 
ATOM      8  C   UNL     1       3.668   4.383  17.988  0.00  0.00    +0.000 A 
ATOM      9  N   UNL     1       4.216   3.633  16.965  0.00  0.00    +0.000 NA
ATOM     10  C   UNL     1       5.011   4.239  16.156  0.00  0.00    +0.000 A 
ATOM     11  S   UNL     1       5.795   3.463  14.821  0.00  0.00    +0.000 S 
ENDROOT
BRANCH   8  12
ATOM     12  N   UNL     1       2.870   3.737  18.932  0.00  0.00    +0.000 N 
ATOM     13  C   UNL     1       3.397   2.626  19.745  0.00  0.00    +0.000 C 
ATOM     14  C   UNL     1       2.815   2.728  21.173  0.00  0.00    +0.000 C 
ATOM     15  N   UNL     1       1.338   2.743  21.211  0.00  0.00    +0.000 NA
ATOM     16  C   UNL     1       0.823   3.795  20.309  0.00  0.00    +0.000 C 
ATOM     17  C   UNL     1       1.397   3.723  18.876  0.00  0.00    +0.000 C 
ATOM     18  H   UNL     1       1.036   2.950  22.161  0.00  0.00    +0.000 HD
ENDBRANCH   8  12
BRANCH   1  20
ATOM     19  C   UNL     1       7.109   4.230  12.204  0.00  0.00    +0.000 C 
ATOM     20  C   UNL     1       7.578   5.060  13.383  0.00  0.00    +0.000 C 
ENDBRANCH   1  20
TORSDOF 2
ENDMDL
MODEL 4
REMARK VINA RESULT:      -6.5      5.158      7.431
REMARK  Name = 
REMARK  3 active torsions:
REMARK  status: ('A' for Active; 'I' for Inactive)
REMARK    1  A    between atoms: C_1  and  C_2
REMARK    2  A    between atoms: C_2  and  C_3
REMARK    3  A    between atoms: C_10  and  N_11
REMARK                            x       y       z     vdW  Elec       q    Type
REMARK                         _______ _______ _______ _____ _____    ______ ____
ROOT
ATOM      1  C   UNL     1       0.275  10.224  21.066  0.00  0.00    +0.000 A 
ATOM      2  N   UNL     1       0.739  10.398  19.866  0.00  0.00    +0.000 NA
ATOM      3  N   UNL     1       1.438   9.265  19.503  0.00  0.00    +0.000 N 
ATOM      4  C   UNL     1       2.018   9.127  18.259  0.00  0.00    +0.000 A 
ATOM      5  O   UNL     1       1.999   9.963  17.358  0.00  0.00    +0.000 OA
ATOM      6  C   UNL     1       2.679   7.814  18.076  0.00  0.00    +0.000 A 
ATOM      7  F   UNL     1       3.219   7.594  16.858  0.00  0.00    +0.000 F 
ATOM      8  C   UNL     1       2.650   6.865  19.042  0.00  0.00    +0.000 A 
ATOM      9  N   UNL     1       2.033   7.101  20.257  0.00  0.00    +0.000 NA
ATOM     10  C   UNL     1       1.481   8.251  20.420  0.00  0.00    +0.000 A 
ATOM     11  S   UNL     1       0.660   8.723  21.869  0.00  0.00    +0.000 S 
ENDROOT
BRANCH   8  12
ATOM     12  N   UNL     1       3.182   5.599  18.802  0.00  0.00    +0.000 N 
ATOM     13  C   UNL     1       2.368   4.530  18.196  0.00  0.00    +0.000 C 
ATOM     14  C   UNL     1       3.254   3.707  17.234  0.00  0.00    +0.000 C 
ATOM     15  N   UNL     1       4.457   3.140  17.878  0.00  0.00    +0.000 NA
ATOM     16  C   UNL     1       5.208   4.209  18.570  0.00  0.00    +0.000 C 
ATOM     17  C   UNL     1       4.343   5.055  19.530  0.00  0.00    +0.000 C 
ATOM     18  H   UNL     1       5.053   2.734  17.159  0.00  0.00    +0.000 HD
ENDBRANCH   8  12
BRANCH   1  20
ATOM     19  C   UNL     1      -1.080  10.663  23.098  0.00  0.00    +0.000 C 
ATOM     20  C   UNL     1      -0.555  11.236  21.795  0.00  0.00    +0.000 C 
ENDBRANCH   1  20
TORSDOF 2
ENDMDL
MODEL 5
REMARK VINA RESULT:      -6.4      3.946      4.774
REMARK  Name = 
REMARK  3 active torsions:
REMARK  status: ('A' for Active; 'I' for Inactive)
REMARK    1  A    between atoms: C_1  and  C_2
REMARK    2  A    between atoms: C_2  and  C_3
REMARK    3  A    between atoms: C_10  and  N_11
REMARK                            x       y       z     vdW  Elec       q    Type
REMARK                         _______ _______ _______ _____ _____    ______ ____
ROOT
ATOM      1  C   UNL     1       5.105   4.487  16.578  0.00  0.00    +0.000 A 
ATOM      2  N   UNL     1       4.408   3.941  17.527  0.00  0.00    +0.000 NA
ATOM      3  N   UNL     1       3.706   4.937  18.178  0.00  0.00    +0.000 N 
ATOM      4  C   UNL     1       2.837   4.666  19.213  0.00  0.00    +0.000 A 
ATOM      5  O   UNL     1       2.593   3.555  19.678  0.00  0.00    +0.000 OA
ATOM      6  C   UNL     1       2.165   5.880  19.731  0.00  0.00    +0.000 A 
ATOM      7  F   UNL     1       1.258   5.677  20.710  0.00  0.00    +0.000 F 
ATOM      8  C   UNL     1       2.382   7.099  19.182  0.00  0.00    +0.000 A 
ATOM      9  N   UNL     1       3.273   7.264  18.137  0.00  0.00    +0.000 NA
ATOM     10  C   UNL     1       3.872   6.211  17.707  0.00  0.00    +0.000 A 
ATOM     11  S   UNL     1       5.014   6.221  16.406  0.00  0.00    +0.000 S 
ENDROOT
BRANCH   8  12
ATOM     12  N   UNL     1       1.654   8.207  19.615  0.00  0.00    +0.000 N 
ATOM     13  C   UNL     1       1.483   9.392  18.755  0.00  0.00    +0.000 C 
ATOM     14  C   UNL     1       0.057   9.954  18.950  0.00  0.00    +0.000 C 
ATOM     15  N   UNL     1      -0.263  10.281  20.356  0.00  0.00    +0.000 NA
ATOM     16  C   UNL     1       0.013   9.114  21.219  0.00  0.00    +0.000 C 
ATOM     17  C   UNL     1       1.429   8.525  21.037  0.00  0.00    +0.000 C 
ATOM     18  H   UNL     1      -1.253  10.511  20.421  0.00  0.00    +0.000 HD
ENDBRANCH   8  12
BRANCH   1  20
ATOM     19  C   UNL     1       5.937   4.315  14.247  0.00  0.00    +0.000 C 
ATOM     20  C   UNL     1       5.984   3.718  15.640  0.00  0.00    +0.000 C 
ENDBRANCH   1  20
TORSDOF 2
ENDMDL
MODEL 6
REMARK VINA RESULT:      -6.3      0.754      1.191
REMARK  Name = 
REMARK  3 active torsions:
REMARK  status: ('A' for Active; 'I' for Inactive)
REMARK    1  A    between atoms: C_1  and  C_2
REMARK    2  A    between atoms: C_2  and  C_3
REMARK    3  A    between atoms: C_10  and  N_11
REMARK                            x       y       z     vdW  Elec       q    Type
REMARK                         _______ _______ _______ _____ _____    ______ ____
ROOT
ATOM      1  C   UNL     1       7.030   4.876  14.045  0.00  0.00    +0.000 A 
ATOM      2  N   UNL     1       7.409   5.406  15.168  0.00  0.00    +0.000 NA
ATOM      3  N   UNL     1       6.444   5.142  16.119  0.00  0.00    +0.000 N 
ATOM      4  C   UNL     1       6.579   5.542  17.433  0.00  0.00    +0.000 A 
ATOM      5  O   UNL     1       7.528   6.165  17.903  0.00  0.00    +0.000 OA
ATOM      6  C   UNL     1       5.443   5.114  18.282  0.00  0.00    +0.000 A 
ATOM      7  F   UNL     1       5.541   5.425  19.592  0.00  0.00    +0.000 F 
ATOM      8  C   UNL     1       4.425   4.373  17.784  0.00  0.00    +0.000 A 
ATOM      9  N   UNL     1       4.387   4.017  16.449  0.00  0.00    +0.000 NA
ATOM     10  C   UNL     1       5.363   4.411  15.710  0.00  0.00    +0.000 A 
ATOM     11  S   UNL     1       5.489   4.058  14.020  0.00  0.00    +0.000 S 
ENDROOT
BRANCH   8  12
ATOM     12  N   UNL     1       3.427   3.889  18.629  0.00  0.00    +0.000 N 
ATOM     13  C   UNL     1       2.182   3.312  18.089  0.00  0.00    +0.000 C 
ATOM     14  C   UNL     1       1.760   2.116  18.970  0.00  0.00    +0.000 C 
ATOM     15  N   UNL     1       1.594   2.461  20.398  0.00  0.00    +0.000 NA
ATOM     16  C   UNL     1       2.812   3.134  20.896  0.00  0.00    +0.000 C 
ATOM     17  C   UNL     1       3.264   4.328  20.027  0.00  0.00    +0.000 C 
ATOM     18  H   UNL     1       1.453   1.604  20.929  0.00  0.00    +0.000 HD
ENDBRANCH   8  12
BRANCH   1  20
ATOM     19  C   UNL     1       8.893   6.018  12.869  0.00  0.00    +0.000 C 
ATOM     20  C   UNL     1       7.831   4.938  12.780  0.00  0.00    +0.000 C 
ENDBRANCH   1  20
TORSDOF 2
ENDMDL
MODEL 7
REMARK VINA RESULT:      -6.2      4.010      6.604
REMARK  Name = 
REMARK  3 active torsions:
REMARK  status: ('A' for Active; 'I' for Inactive)
REMARK    1  A    between atoms: C_1  and  C_2
REMARK    2  A    between atoms: C_2  and  C_3
REMARK    3  A    between atoms: C_10  and  N_11
REMARK                            x       y       z     vdW  Elec       q    Type
REMARK                         _______ _______ _______ _____ _____    ______ ____
ROOT
ATOM      1  C   UNL     1       1.013   9.204  19.424  0.00  0.00    +0.000 A 
ATOM      2  N   UNL     1       1.182   8.079  20.051  0.00  0.00    +0.000 NA
ATOM      3  N   UNL     1       2.165   7.362  19.398  0.00  0.00    +0.000 N 
ATOM      4  C   UNL     1       2.601   6.135  19.851  0.00  0.00    +0.000 A 
ATOM      5  O   UNL     1       2.183   5.543  20.843  0.00  0.00    +0.000 OA
ATOM      6  C   UNL     1       3.689   5.570  19.019  0.00  0.00    +0.000 A 
ATOM      7  F   UNL     1       4.200   4.394  19.442  0.00  0.00    +0.000 F 
ATOM      8  C   UNL     1       4.196   6.247  17.961  0.00  0.00    +0.000 A 
ATOM      9  N   UNL     1       3.691   7.479  17.592  0.00  0.00    +0.000 NA
ATOM     10  C   UNL     1       2.731   7.955  18.303  0.00  0.00    +0.000 A 
ATOM     11  S   UNL     1       1.977   9.483  17.996  0.00  0.00    +0.000 S 
ENDROOT
BRANCH   8  12
ATOM     12  N   UNL     1       5.294   5.743  17.264  0.00  0.00    +0.000 N 
ATOM     13  C   UNL     1       6.671   5.981  17.731  0.00  0.00    +0.000 C 
ATOM     14  C   UNL     1       7.516   4.713  17.474  0.00  0.00    +0.000 C 
ATOM     15  N   UNL     1       7.516   4.278  16.061  0.00  0.00    +0.000 NA
ATOM     16  C   UNL     1       6.126   4.145  15.577  0.00  0.00    +0.000 C 
ATOM     17  C   UNL     1       5.255   5.396  15.831  0.00  0.00    +0.000 C 
ATOM     18  H   UNL     1       7.973   3.370  15.997  0.00  0.00    +0.000 HD
ENDBRANCH   8  12
BRANCH   1  20
ATOM     19  C   UNL     1       0.737  11.592  20.037  0.00  0.00    +0.000 C 
ATOM     20  C   UNL     1       0.039  10.259  19.850  0.00  0.00    +0.000 C 
ENDBRANCH   1  20
TORSDOF 2
ENDMDL
MODEL 8
REMARK VINA RESULT:      -6.2      3.844      6.981
REMARK  Name = 
REMARK  3 active torsions:
REMARK  status: ('A' for Active; 'I' for Inactive)
REMARK    1  A    between atoms: C_1  and  C_2
REMARK    2  A    between atoms: C_2  and  C_3
REMARK    3  A    between atoms: C_10  and  N_11
REMARK                            x       y       z     vdW  Elec       q    Type
REMARK                         _______ _______ _______ _____ _____    ______ ____
ROOT
ATOM      1  C   UNL     1       0.796   8.627  20.556  0.00  0.00    +0.000 A 
ATOM      2  N   UNL     1       1.107   7.441  20.983  0.00  0.00    +0.000 NA
ATOM      3  N   UNL     1       2.009   6.885  20.099  0.00  0.00    +0.000 N 
ATOM      4  C   UNL     1       2.563   5.638  20.303  0.00  0.00    +0.000 A 
ATOM      5  O   UNL     1       2.327   4.890  21.248  0.00  0.00    +0.000 OA
ATOM      6  C   UNL     1       3.535   5.263  19.249  0.00  0.00    +0.000 A 
ATOM      7  F   UNL     1       4.156   4.076  19.420  0.00  0.00    +0.000 F 
ATOM      8  C   UNL     1       3.846   6.109  18.239  0.00  0.00    +0.000 A 
ATOM      9  N   UNL     1       3.237   7.345  18.128  0.00  0.00    +0.000 NA
ATOM     10  C   UNL     1       2.376   7.657  19.030  0.00  0.00    +0.000 A 
ATOM     11  S   UNL     1       1.518   9.160  19.059  0.00  0.00    +0.000 S 
ENDROOT
BRANCH   8  12
ATOM     12  N   UNL     1       4.846   5.777  17.325  0.00  0.00    +0.000 N 
ATOM     13  C   UNL     1       5.893   6.745  16.952  0.00  0.00    +0.000 C 
ATOM     14  C   UNL     1       7.234   5.996  16.781  0.00  0.00    +0.000 C 
ATOM     15  N   UNL     1       7.174   4.893  15.798  0.00  0.00    +0.000 NA
ATOM     16  C   UNL     1       6.052   3.988  16.127  0.00  0.00    +0.000 C 
ATOM     17  C   UNL     1       4.701   4.713  16.314  0.00  0.00    +0.000 C 
ATOM     18  H   UNL     1       8.044   4.366  15.843  0.00  0.00    +0.000 HD
ENDBRANCH   8  12
BRANCH   1  20
ATOM     19  C   UNL     1      -0.063   9.355  22.767  0.00  0.00    +0.000 C 
ATOM     20  C   UNL     1      -0.149   9.549  21.265  0.00  0.00    +0.000 C 
ENDBRANCH   1  20
TORSDOF 2
ENDMDL
MODEL 9
REMARK VINA RESULT:      -6.2      2.027      6.339
REMARK  Name = 
REMARK  3 active torsions:
REMARK  status: ('A' for Active; 'I' for Inactive)
REMARK    1  A    between atoms: C_1  and  C_2
REMARK    2  A    between atoms: C_2  and  C_3
REMARK    3  A    between atoms: C_10  and  N_11
REMARK                            x       y       z     vdW  Elec       q    Type
REMARK                         _______ _______ _______ _____ _____    ______ ____
ROOT
ATOM      1  C   UNL     1       2.501   3.921  19.506  0.00  0.00    +0.000 A 
ATOM      2  N   UNL     1       3.760   4.133  19.741  0.00  0.00    +0.000 NA
ATOM      3  N   UNL     1       4.428   4.160  18.533  0.00  0.00    +0.000 N 
ATOM      4  C   UNL     1       5.782   4.409  18.450  0.00  0.00    +0.000 A 
ATOM      5  O   UNL     1       6.537   4.618  19.396  0.00  0.00    +0.000 OA
ATOM      6  C   UNL     1       6.276   4.431  17.053  0.00  0.00    +0.000 A 
ATOM      7  F   UNL     1       7.584   4.726  16.898  0.00  0.00    +0.000 F 
ATOM      8  C   UNL     1       5.438   4.264  16.002  0.00  0.00    +0.000 A 
ATOM      9  N   UNL     1       4.090   4.026  16.194  0.00  0.00    +0.000 NA
ATOM     10  C   UNL     1       3.669   3.984  17.409  0.00  0.00    +0.000 A 
ATOM     11  S   UNL     1       2.017   3.703  17.843  0.00  0.00    +0.000 S 
ENDROOT
BRANCH   8  12
ATOM     12  N   UNL     1       5.909   4.402  14.697  0.00  0.00    +0.000 N 
ATOM     13  C   UNL     1       6.818   5.500  14.324  0.00  0.00    +0.000 C 
ATOM     14  C   UNL     1       7.853   4.973  13.305  0.00  0.00    +0.000 C 
ATOM     15  N   UNL     1       7.243   4.373  12.099  0.00  0.00    +0.000 NA
ATOM     16  C   UNL     1       6.257   3.345  12.494  0.00  0.00    +0.000 C 
ATOM     17  C   UNL     1       5.216   3.843  13.521  0.00  0.00    +0.000 C 
ATOM     18  H   UNL     1       7.976   3.929  11.548  0.00  0.00    +0.000 HD
ENDBRANCH   8  12
BRANCH   1  20
ATOM     19  C   UNL     1       1.839   2.831  21.634  0.00  0.00    +0.000 C 
ATOM     20  C   UNL     1       1.453   3.844  20.574  0.00  0.00    +0.000 C 
ENDBRANCH   1  20
TORSDOF 2
ENDMDL
