MODEL 1
REMARK VINA RESULT:      -8.0      0.000      0.000
REMARK  Name = 
REMARK  11 active torsions:
REMARK  status: ('A' for Active; 'I' for Inactive)
REMARK    1  A    between atoms: C_1  and  C_2
REMARK    2  A    between atoms: C_2  and  C_3
REMARK    3  A    between atoms: C_5  and  C_6
REMARK    4  A    between atoms: C_6  and  C_7
REMARK    5  A    between atoms: C_6  and  C_8
REMARK    6  A    between atoms: C_11  and  C_12
REMARK    7  A    between atoms: N_14  and  C_15
REMARK    8  A    between atoms: C_15  and  C_16
REMARK    9  A    between atoms: C_16  and  C_17
REMARK   10  A    between atoms: C_16  and  C_18
REMARK   11  A    between atoms: N_22  and  C_23
REMARK                            x       y       z     vdW  Elec       q    Type
REMARK                         _______ _______ _______ _____ _____    ______ ____
ROOT
ATOM      1  C   UNL     1       4.971   5.483  18.297  0.00  0.00    +0.000 C 
ATOM      2  O   UNL     1       5.591   5.328  19.342  0.00  0.00    +0.000 OA
ATOM      3  N   UNL     1       3.631   5.815  18.287  0.00  0.00    +0.000 N 
ATOM      4  H   UNL     1       3.147   6.015  17.415  0.00  0.00    +0.000 HD
ENDROOT
BRANCH   1  10
ATOM      5  C   UNL     1       6.910   5.789  16.692  0.00  0.00    +0.000 A 
ATOM      6  N   UNL     1       7.532   5.567  15.494  0.00  0.00    +0.000 NA
ATOM      7  C   UNL     1       6.886   4.864  14.532  0.00  0.00    +0.000 A 
ATOM      8  C   UNL     1       5.593   4.394  14.718  0.00  0.00    +0.000 A 
ATOM      9  C   UNL     1       4.961   4.612  15.943  0.00  0.00    +0.000 A 
ATOM     10  C   UNL     1       5.626   5.297  16.967  0.00  0.00    +0.000 A 
BRANCH   7  11
ATOM     11  C   UNL     1       7.628   4.586  13.237  0.00  0.00    +0.000 C 
ATOM     12  C   UNL     1       6.729   3.883  12.220  0.00  0.00    +0.000 C 
ATOM     13  C   UNL     1       8.202   5.873  12.639  0.00  0.00    +0.000 C 
ENDBRANCH   7  11
BRANCH   5  15
ATOM     14  C   UNL     1       7.595   8.099  17.420  0.00  0.00    +0.000 C 
ATOM     15  C   UNL     1       7.721   6.601  17.671  0.00  0.00    +0.000 C 
ENDBRANCH   5  15
ENDBRANCH   1  10
BRANCH   3  16
ATOM     16  C   UNL     1       2.883   6.030  19.517  0.00  0.00    +0.000 C 
BRANCH  16  17
ATOM     17  C   UNL     1       1.929   4.871  19.876  0.00  0.00    +0.000 C 
ATOM     18  C   UNL     1       2.085   4.482  21.350  0.00  0.00    +0.000 C 
BRANCH  17  19
ATOM     19  C   UNL     1       2.171   3.695  18.975  0.00  0.00    +0.000 A 
ATOM     20  N   UNL     1       1.521   3.454  17.848  0.00  0.00    +0.000 NA
ATOM     21  N   UNL     1       1.963   2.258  17.343  0.00  0.00    +0.000 NA
ATOM     22  C   UNL     1       2.873   1.794  18.160  0.00  0.00    +0.000 A 
ATOM     23  N   UNL     1       3.039   2.657  19.202  0.00  0.00    +0.000 N 
ATOM     24  C   UNL     1       3.938   2.460  20.307  0.00  0.00    +0.000 C 
ENDBRANCH  17  19
ENDBRANCH  16  17
ENDBRANCH   3  16
TORSDOF 6
ENDMDL
MODEL 2
REMARK VINA RESULT:      -7.9      1.071      2.004
REMARK  Name = 
REMARK  11 active torsions:
REMARK  status: ('A' for Active; 'I' for Inactive)
REMARK    1  A    between atoms: C_1  and  C_2
REMARK    2  A    between atoms: C_2  and  C_3
REMARK    3  A    between atoms: C_5  and  C_6
REMARK    4  A    between atoms: C_6  and  C_7
REMARK    5  A    between atoms: C_6  and  C_8
REMARK    6  A    between atoms: C_11  and  C_12
REMARK    7  A    between atoms: N_14  and  C_15
REMARK    8  A    between atoms: C_15  and  C_16
REMARK    9  A    between atoms: C_16  and  C_17
REMARK   10  A    between atoms: C_16  and  C_18
REMARK   11  A    between atoms: N_22  and  C_23
REMARK                            x       y       z     vdW  Elec       q    Type
REMARK                         _______ _______ _______ _____ _____    ______ ____
ROOT
ATOM      1  C   UNL     1       5.718   4.109  18.472  0.00  0.00    +0.000 C 
ATOM      2  O   UNL     1       6.199   4.722  19.417  0.00  0.00    +0.000 OA
ATOM      3  N   UNL     1       4.831   3.066  18.655  0.00  0.00    +0.000 N 
ATOM      4  H   UNL     1       4.382   2.616  17.860  0.00  0.00    +0.000 HD
ENDROOT
BRANCH   1  10
ATOM      5  C   UNL     1       6.983   5.467  16.746  0.00  0.00    +0.000 A 
ATOM      6  N   UNL     1       7.364   5.731  15.458  0.00  0.00    +0.000 NA
ATOM      7  C   UNL     1       6.845   4.989  14.450  0.00  0.00    +0.000 A 
ATOM      8  C   UNL     1       5.909   3.991  14.687  0.00  0.00    +0.000 A 
ATOM      9  C   UNL     1       5.527   3.716  16.000  0.00  0.00    +0.000 A 
ATOM     10  C   UNL     1       6.084   4.440  17.062  0.00  0.00    +0.000 A 
BRANCH   7  11
ATOM     11  C   UNL     1       7.332   5.269  13.039  0.00  0.00    +0.000 C 
ATOM     12  C   UNL     1       8.772   5.783  13.039  0.00  0.00    +0.000 C 
ATOM     13  C   UNL     1       7.212   4.026  12.154  0.00  0.00    +0.000 C 
ENDBRANCH   7  11
BRANCH   5  15
ATOM     14  C   UNL     1       7.663   7.824  17.310  0.00  0.00    +0.000 C 
ATOM     15  C   UNL     1       7.612   6.374  17.775  0.00  0.00    +0.000 C 
ENDBRANCH   5  15
ENDBRANCH   1  10
BRANCH   3  16
ATOM     16  C   UNL     1       4.391   2.653  19.979  0.00  0.00    +0.000 C 
BRANCH  16  17
ATOM     17  C   UNL     1       3.117   3.377  20.465  0.00  0.00    +0.000 C 
ATOM     18  C   UNL     1       2.300   2.466  21.388  0.00  0.00    +0.000 C 
BRANCH  17  19
ATOM     19  C   UNL     1       2.298   3.840  19.296  0.00  0.00    +0.000 A 
ATOM     20  N   UNL     1       1.669   3.045  18.446  0.00  0.00    +0.000 NA
ATOM     21  N   UNL     1       1.092   3.822  17.475  0.00  0.00    +0.000 NA
ATOM     22  C   UNL     1       1.370   5.071  17.748  0.00  0.00    +0.000 A 
ATOM     23  N   UNL     1       2.127   5.136  18.880  0.00  0.00    +0.000 N 
ATOM     24  C   UNL     1       2.642   6.346  19.465  0.00  0.00    +0.000 C 
ENDBRANCH  17  19
ENDBRANCH  16  17
ENDBRANCH   3  16
TORSDOF 6
ENDMDL
MODEL 3
REMARK VINA RESULT:      -7.8      1.162      1.638
REMARK  Name = 
REMARK  11 active torsions:
REMARK  status: ('A' for Active; 'I' for Inactive)
REMARK    1  A    between atoms: C_1  and  C_2
REMARK    2  A    between atoms: C_2  and  C_3
REMARK    3  A    between atoms: C_5  and  C_6
REMARK    4  A    between atoms: C_6  and  C_7
REMARK    5  A    between atoms: C_6  and  C_8
REMARK    6  A    between atoms: C_11  and  C_12
REMARK    7  A    between atoms: N_14  and  C_15
REMARK    8  A    between atoms: C_15  and  C_16
REMARK    9  A    between atoms: C_16  and  C_17
REMARK   10  A    between atoms: C_16  and  C_18
REMARK   11  A    between atoms: N_22  and  C_23
REMARK                            x       y       z     vdW  Elec       q    Type
REMARK                         _______ _______ _______ _____ _____    ______ ____
ROOT
ATOM      1  C   UNL     1       5.015   4.920  18.282  0.00  0.00    +0.000 C 
ATOM      2  O   UNL     1       5.174   4.031  19.110  0.00  0.00    +0.000 OA
ATOM      3  N   UNL     1       4.227   6.025  18.542  0.00  0.00    +0.000 N 
ATOM      4  H   UNL     1       4.163   6.791  17.875  0.00  0.00    +0.000 HD
ENDROOT
BRANCH   1  10
ATOM      5  C   UNL     1       6.888   5.430  16.652  0.00  0.00    +0.000 A 
ATOM      6  N   UNL     1       7.491   5.313  15.430  0.00  0.00    +0.000 NA
ATOM      7  C   UNL     1       6.862   4.627  14.445  0.00  0.00    +0.000 A 
ATOM      8  C   UNL     1       5.604   4.069  14.635  0.00  0.00    +0.000 A 
ATOM      9  C   UNL     1       4.993   4.180  15.884  0.00  0.00    +0.000 A 
ATOM     10  C   UNL     1       5.643   4.847  16.929  0.00  0.00    +0.000 A 
BRANCH   7  11
ATOM     11  C   UNL     1       7.584   4.465  13.119  0.00  0.00    +0.000 C 
ATOM     12  C   UNL     1       6.689   3.797  12.075  0.00  0.00    +0.000 C 
ATOM     13  C   UNL     1       8.095   5.811  12.599  0.00  0.00    +0.000 C 
ENDBRANCH   7  11
BRANCH   5  15
ATOM     14  C   UNL     1       7.545   7.735  17.422  0.00  0.00    +0.000 C 
ATOM     15  C   UNL     1       7.676   6.235  17.657  0.00  0.00    +0.000 C 
ENDBRANCH   5  15
ENDBRANCH   1  10
BRANCH   3  16
ATOM     16  C   UNL     1       3.567   6.214  19.826  0.00  0.00    +0.000 C 
BRANCH  16  17
ATOM     17  C   UNL     1       2.061   5.874  19.805  0.00  0.00    +0.000 C 
ATOM     18  C   UNL     1       1.291   6.785  20.769  0.00  0.00    +0.000 C 
BRANCH  17  19
ATOM     19  C   UNL     1       1.844   4.427  20.137  0.00  0.00    +0.000 A 
ATOM     20  N   UNL     1       1.824   3.922  21.360  0.00  0.00    +0.000 NA
ATOM     21  N   UNL     1       1.676   2.562  21.263  0.00  0.00    +0.000 NA
ATOM     22  C   UNL     1       1.602   2.261  19.991  0.00  0.00    +0.000 A 
ATOM     23  N   UNL     1       1.705   3.395  19.243  0.00  0.00    +0.000 N 
ATOM     24  C   UNL     1       1.693   3.445  17.805  0.00  0.00    +0.000 C 
ENDBRANCH  17  19
ENDBRANCH  16  17
ENDBRANCH   3  16
TORSDOF 6
ENDMDL
MODEL 4
REMARK VINA RESULT:      -7.8      0.734      1.299
REMARK  Name = 
REMARK  11 active torsions:
REMARK  status: ('A' for Active; 'I' for Inactive)
REMARK    1  A    between atoms: C_1  and  C_2
REMARK    2  A    between atoms: C_2  and  C_3
REMARK    3  A    between atoms: C_5  and  C_6
REMARK    4  A    between atoms: C_6  and  C_7
REMARK    5  A    between atoms: C_6  and  C_8
REMARK    6  A    between atoms: C_11  and  C_12
REMARK    7  A    between atoms: N_14  and  C_15
REMARK    8  A    between atoms: C_15  and  C_16
REMARK    9  A    between atoms: C_16  and  C_17
REMARK   10  A    between atoms: C_16  and  C_18
REMARK   11  A    between atoms: N_22  and  C_23
REMARK                            x       y       z     vdW  Elec       q    Type
REMARK                         _______ _______ _______ _____ _____    ______ ____
ROOT
ATOM      1  C   UNL     1       5.279   4.869  18.558  0.00  0.00    +0.000 C 
ATOM      2  O   UNL     1       5.890   4.399  19.510  0.00  0.00    +0.000 OA
ATOM      3  N   UNL     1       4.035   5.450  18.706  0.00  0.00    +0.000 N 
ATOM      4  H   UNL     1       3.572   5.903  17.921  0.00  0.00    +0.000 HD
ENDROOT
BRANCH   1  10
ATOM      5  C   UNL     1       6.974   5.541  16.798  0.00  0.00    +0.000 A 
ATOM      6  N   UNL     1       7.517   5.447  15.546  0.00  0.00    +0.000 NA
ATOM      7  C   UNL     1       6.930   4.641  14.628  0.00  0.00    +0.000 A 
ATOM      8  C   UNL     1       5.769   3.935  14.916  0.00  0.00    +0.000 A 
ATOM      9  C   UNL     1       5.220   4.024  16.196  0.00  0.00    +0.000 A 
ATOM     10  C   UNL     1       5.835   4.816  17.173  0.00  0.00    +0.000 A 
BRANCH   7  11
ATOM     11  C   UNL     1       7.591   4.514  13.267  0.00  0.00    +0.000 C 
ATOM     12  C   UNL     1       6.618   3.962  12.225  0.00  0.00    +0.000 C 
ATOM     13  C   UNL     1       8.165   5.855  12.802  0.00  0.00    +0.000 C 
ENDBRANCH   7  11
BRANCH   5  15
ATOM     14  C   UNL     1       7.435   7.946  17.379  0.00  0.00    +0.000 C 
ATOM     15  C   UNL     1       7.705   6.486  17.720  0.00  0.00    +0.000 C 
ENDBRANCH   5  15
ENDBRANCH   1  10
BRANCH   3  16
ATOM     16  C   UNL     1       3.391   5.568  20.006  0.00  0.00    +0.000 C 
BRANCH  16  17
ATOM     17  C   UNL     1       2.318   4.489  20.268  0.00  0.00    +0.000 C 
ATOM     18  C   UNL     1       2.354   4.041  21.734  0.00  0.00    +0.000 C 
BRANCH  17  19
ATOM     19  C   UNL     1       2.508   3.325  19.340  0.00  0.00    +0.000 A 
ATOM     20  N   UNL     1       3.263   2.267  19.591  0.00  0.00    +0.000 NA
ATOM     21  N   UNL     1       3.247   1.454  18.487  0.00  0.00    +0.000 NA
ATOM     22  C   UNL     1       2.483   2.020  17.588  0.00  0.00    +0.000 A 
ATOM     23  N   UNL     1       1.997   3.197  18.073  0.00  0.00    +0.000 N 
ATOM     24  C   UNL     1       1.143   4.103  17.351  0.00  0.00    +0.000 C 
ENDBRANCH  17  19
ENDBRANCH  16  17
ENDBRANCH   3  16
TORSDOF 6
ENDMDL
MODEL 5
REMARK VINA RESULT:      -7.6      2.552      7.300
REMARK  Name = 
REMARK  11 active torsions:
REMARK  status: ('A' for Active; 'I' for Inactive)
REMARK    1  A    between atoms: C_1  and  C_2
REMARK    2  A    between atoms: C_2  and  C_3
REMARK    3  A    between atoms: C_5  and  C_6
REMARK    4  A    between atoms: C_6  and  C_7
REMARK    5  A    between atoms: C_6  and  C_8
REMARK    6  A    between atoms: C_11  and  C_12
REMARK    7  A    between atoms: N_14  and  C_15
REMARK    8  A    between atoms: C_15  and  C_16
REMARK    9  A    between atoms: C_16  and  C_17
REMARK   10  A    between atoms: C_16  and  C_18
REMARK   11  A    between atoms: N_22  and  C_23
REMARK                            x       y       z     vdW  Elec       q    Type
REMARK                         _______ _______ _______ _____ _____    ______ ____
ROOT
ATOM      1  C   UNL     1       3.455   5.403  17.942  0.00  0.00    +0.000 C 
ATOM      2  O   UNL     1       3.374   4.189  18.083  0.00  0.00    +0.000 OA
ATOM      3  N   UNL     1       4.250   5.972  16.966  0.00  0.00    +0.000 N 
ATOM      4  H   UNL     1       4.250   6.978  16.811  0.00  0.00    +0.000 HD
ENDROOT
BRANCH   1  10
ATOM      5  C   UNL     1       2.264   5.963  20.109  0.00  0.00    +0.000 A 
ATOM      6  N   UNL     1       1.639   6.841  20.951  0.00  0.00    +0.000 NA
ATOM      7  C   UNL     1       1.430   8.116  20.543  0.00  0.00    +0.000 A 
ATOM      8  C   UNL     1       1.804   8.545  19.276  0.00  0.00    +0.000 A 
ATOM      9  C   UNL     1       2.449   7.653  18.419  0.00  0.00    +0.000 A 
ATOM     10  C   UNL     1       2.715   6.343  18.837  0.00  0.00    +0.000 A 
BRANCH   7  11
ATOM     11  C   UNL     1       0.787   9.080  21.524  0.00  0.00    +0.000 C 
ATOM     12  C   UNL     1       0.651  10.479  20.923  0.00  0.00    +0.000 C 
ATOM     13  C   UNL     1      -0.578   8.567  21.991  0.00  0.00    +0.000 C 
ENDBRANCH   7  11
BRANCH   5  15
ATOM     14  C   UNL     1       1.110   3.789  20.636  0.00  0.00    +0.000 C 
ATOM     15  C   UNL     1       2.418   4.570  20.668  0.00  0.00    +0.000 C 
ENDBRANCH   5  15
ENDBRANCH   1  10
BRANCH   3  16
ATOM     16  C   UNL     1       5.014   5.163  16.028  0.00  0.00    +0.000 C 
BRANCH  16  17
ATOM     17  C   UNL     1       6.497   5.578  15.913  0.00  0.00    +0.000 C 
ATOM     18  C   UNL     1       7.248   4.632  14.970  0.00  0.00    +0.000 C 
BRANCH  17  19
ATOM     19  C   UNL     1       7.138   5.615  17.270  0.00  0.00    +0.000 A 
ATOM     20  N   UNL     1       7.248   4.581  18.087  0.00  0.00    +0.000 NA
ATOM     21  N   UNL     1       7.821   5.013  19.255  0.00  0.00    +0.000 NA
ATOM     22  C   UNL     1       8.056   6.294  19.132  0.00  0.00    +0.000 A 
ATOM     23  N   UNL     1       7.644   6.721  17.905  0.00  0.00    +0.000 N 
ATOM     24  C   UNL     1       7.720   8.077  17.430  0.00  0.00    +0.000 C 
ENDBRANCH  17  19
ENDBRANCH  16  17
ENDBRANCH   3  16
TORSDOF 6
ENDMDL
MODEL 6
REMARK VINA RESULT:      -7.5      1.350      1.905
REMARK  Name = 
REMARK  11 active torsions:
REMARK  status: ('A' for Active; 'I' for Inactive)
REMARK    1  A    between atoms: C_1  and  C_2
REMARK    2  A    between atoms: C_2  and  C_3
REMARK    3  A    between atoms: C_5  and  C_6
REMARK    4  A    between atoms: C_6  and  C_7
REMARK    5  A    between atoms: C_6  and  C_8
REMARK    6  A    between atoms: C_11  and  C_12
REMARK    7  A    between atoms: N_14  and  C_15
REMARK    8  A    between atoms: C_15  and  C_16
REMARK    9  A    between atoms: C_16  and  C_17
REMARK   10  A    between atoms: C_16  and  C_18
REMARK   11  A    between atoms: N_22  and  C_23
REMARK                            x       y       z     vdW  Elec       q    Type
REMARK                         _______ _______ _______ _____ _____    ______ ____
ROOT
ATOM      1  C   UNL     1       5.037   4.769  17.887  0.00  0.00    +0.000 C 
ATOM      2  O   UNL     1       4.210   5.617  18.200  0.00  0.00    +0.000 OA
ATOM      3  N   UNL     1       5.404   3.756  18.750  0.00  0.00    +0.000 N 
ATOM      4  H   UNL     1       6.035   3.016  18.451  0.00  0.00    +0.000 HD
ENDROOT
BRANCH   1  10
ATOM      5  C   UNL     1       6.935   5.463  16.357  0.00  0.00    +0.000 A 
ATOM      6  N   UNL     1       7.588   5.439  15.155  0.00  0.00    +0.000 NA
ATOM      7  C   UNL     1       7.036   4.767  14.115  0.00  0.00    +0.000 A 
ATOM      8  C   UNL     1       5.807   4.131  14.229  0.00  0.00    +0.000 A 
ATOM      9  C   UNL     1       5.145   4.148  15.458  0.00  0.00    +0.000 A 
ATOM     10  C   UNL     1       5.718   4.798  16.558  0.00  0.00    +0.000 A 
BRANCH   7  11
ATOM     11  C   UNL     1       7.814   4.712  12.813  0.00  0.00    +0.000 C 
ATOM     12  C   UNL     1       7.008   4.023  11.711  0.00  0.00    +0.000 C 
ATOM     13  C   UNL     1       8.243   6.111  12.363  0.00  0.00    +0.000 C 
ENDBRANCH   7  11
BRANCH   5  15
ATOM     14  C   UNL     1       7.314   7.747  17.345  0.00  0.00    +0.000 C 
ATOM     15  C   UNL     1       7.638   6.260  17.428  0.00  0.00    +0.000 C 
ENDBRANCH   5  15
ENDBRANCH   1  10
BRANCH   3  16
ATOM     16  C   UNL     1       4.807   3.616  20.071  0.00  0.00    +0.000 C 
BRANCH  16  17
ATOM     17  C   UNL     1       4.005   2.310  20.256  0.00  0.00    +0.000 C 
ATOM     18  C   UNL     1       4.777   1.118  19.677  0.00  0.00    +0.000 C 
BRANCH  17  19
ATOM     19  C   UNL     1       2.648   2.434  19.626  0.00  0.00    +0.000 A 
ATOM     20  N   UNL     1       2.408   2.412  18.326  0.00  0.00    +0.000 NA
ATOM     21  N   UNL     1       1.068   2.626  18.130  0.00  0.00    +0.000 NA
ATOM     22  C   UNL     1       0.512   2.767  19.307  0.00  0.00    +0.000 A 
ATOM     23  N   UNL     1       1.462   2.658  20.279  0.00  0.00    +0.000 N 
ATOM     24  C   UNL     1       1.221   2.787  21.691  0.00  0.00    +0.000 C 
ENDBRANCH  17  19
ENDBRANCH  16  17
ENDBRANCH   3  16
TORSDOF 6
ENDMDL
MODEL 7
REMARK VINA RESULT:      -7.5      1.882      3.198
REMARK  Name = 
REMARK  11 active torsions:
REMARK  status: ('A' for Active; 'I' for Inactive)
REMARK    1  A    between atoms: C_1  and  C_2
REMARK    2  A    between atoms: C_2  and  C_3
REMARK    3  A    between atoms: C_5  and  C_6
REMARK    4  A    between atoms: C_6  and  C_7
REMARK    5  A    between atoms: C_6  and  C_8
REMARK    6  A    between atoms: C_11  and  C_12
REMARK    7  A    between atoms: N_14  and  C_15
REMARK    8  A    between atoms: C_15  and  C_16
REMARK    9  A    between atoms: C_16  and  C_17
REMARK   10  A    between atoms: C_16  and  C_18
REMARK   11  A    between atoms: N_22  and  C_23
REMARK                            x       y       z     vdW  Elec       q    Type
REMARK                         _______ _______ _______ _____ _____    ______ ____
ROOT
ATOM      1  C   UNL     1       5.330   4.646  18.250  0.00  0.00    +0.000 C 
ATOM      2  O   UNL     1       5.636   3.779  19.058  0.00  0.00    +0.000 OA
ATOM      3  N   UNL     1       4.420   5.639  18.556  0.00  0.00    +0.000 N 
ATOM      4  H   UNL     1       4.232   6.396  17.903  0.00  0.00    +0.000 HD
ENDROOT
BRANCH   1  10
ATOM      5  C   UNL     1       7.042   5.419  16.548  0.00  0.00    +0.000 A 
ATOM      6  N   UNL     1       7.604   5.390  15.301  0.00  0.00    +0.000 NA
ATOM      7  C   UNL     1       7.037   4.623  14.338  0.00  0.00    +0.000 A 
ATOM      8  C   UNL     1       5.881   3.892  14.575  0.00  0.00    +0.000 A 
ATOM      9  C   UNL     1       5.312   3.915  15.849  0.00  0.00    +0.000 A 
ATOM     10  C   UNL     1       5.906   4.666  16.872  0.00  0.00    +0.000 A 
BRANCH   7  11
ATOM     11  C   UNL     1       7.719   4.567  12.982  0.00  0.00    +0.000 C 
ATOM     12  C   UNL     1       6.808   3.943  11.925  0.00  0.00    +0.000 C 
ATOM     13  C   UNL     1       8.177   5.958  12.534  0.00  0.00    +0.000 C 
ENDBRANCH   7  11
BRANCH   5  15
ATOM     14  C   UNL     1       7.311   7.778  17.384  0.00  0.00    +0.000 C 
ATOM     15  C   UNL     1       7.750   6.326  17.525  0.00  0.00    +0.000 C 
ENDBRANCH   5  15
ENDBRANCH   1  10
BRANCH   3  16
ATOM     16  C   UNL     1       3.795   5.732  19.868  0.00  0.00    +0.000 C 
BRANCH  16  17
ATOM     17  C   UNL     1       2.284   6.044  19.816  0.00  0.00    +0.000 C 
ATOM     18  C   UNL     1       1.524   4.905  19.127  0.00  0.00    +0.000 C 
BRANCH  17  19
ATOM     19  C   UNL     1       2.042   7.354  19.124  0.00  0.00    +0.000 A 
ATOM     20  N   UNL     1       2.350   7.617  17.865  0.00  0.00    +0.000 NA
ATOM     21  N   UNL     1       2.049   8.931  17.612  0.00  0.00    +0.000 NA
ATOM     22  C   UNL     1       1.559   9.444  18.712  0.00  0.00    +0.000 A 
ATOM     23  N   UNL     1       1.536   8.496  19.691  0.00  0.00    +0.000 N 
ATOM     24  C   UNL     1       1.087   8.709  21.041  0.00  0.00    +0.000 C 
ENDBRANCH  17  19
ENDBRANCH  16  17
ENDBRANCH   3  16
TORSDOF 6
ENDMDL
MODEL 8
REMARK VINA RESULT:      -7.4      2.481      7.248
REMARK  Name = 
REMARK  11 active torsions:
REMARK  status: ('A' for Active; 'I' for Inactive)
REMARK    1  A    between atoms: C_1  and  C_2
REMARK    2  A    between atoms: C_2  and  C_3
REMARK    3  A    between atoms: C_5  and  C_6
REMARK    4  A    between atoms: C_6  and  C_7
REMARK    5  A    between atoms: C_6  and  C_8
REMARK    6  A    between atoms: C_11  and  C_12
REMARK    7  A    between atoms: N_14  and  C_15
REMARK    8  A    between atoms: C_15  and  C_16
REMARK    9  A    between atoms: C_16  and  C_17
REMARK   10  A    between atoms: C_16  and  C_18
REMARK   11  A    between atoms: N_22  and  C_23
REMARK                            x       y       z     vdW  Elec       q    Type
REMARK                         _______ _______ _______ _____ _____    ______ ____
ROOT
ATOM      1  C   UNL     1       3.725   5.354  18.738  0.00  0.00    +0.000 C 
ATOM      2  O   UNL     1       4.663   4.889  19.373  0.00  0.00    +0.000 OA
ATOM      3  N   UNL     1       3.529   5.054  17.404  0.00  0.00    +0.000 N 
ATOM      4  H   UNL     1       2.704   5.387  16.908  0.00  0.00    +0.000 HD
ENDROOT
BRANCH   1  10
ATOM      5  C   UNL     1       1.981   5.939  20.482  0.00  0.00    +0.000 A 
ATOM      6  N   UNL     1       1.131   6.821  21.092  0.00  0.00    +0.000 NA
ATOM      7  C   UNL     1       1.011   8.076  20.594  0.00  0.00    +0.000 A 
ATOM      8  C   UNL     1       1.702   8.479  19.459  0.00  0.00    +0.000 A 
ATOM      9  C   UNL     1       2.575   7.582  18.842  0.00  0.00    +0.000 A 
ATOM     10  C   UNL     1       2.749   6.295  19.365  0.00  0.00    +0.000 A 
BRANCH   7  11
ATOM     11  C   UNL     1       0.104   9.047  21.329  0.00  0.00    +0.000 C 
ATOM     12  C   UNL     1       0.621   9.333  22.739  0.00  0.00    +0.000 C 
ATOM     13  C   UNL     1      -0.059  10.353  20.547  0.00  0.00    +0.000 C 
ENDBRANCH   7  11
BRANCH   5  15
ATOM     14  C   UNL     1       1.032   3.608  20.452  0.00  0.00    +0.000 C 
ATOM     15  C   UNL     1       2.010   4.569  21.114  0.00  0.00    +0.000 C 
ENDBRANCH   5  15
ENDBRANCH   1  10
BRANCH   3  16
ATOM     16  C   UNL     1       4.407   4.145  16.682  0.00  0.00    +0.000 C 
BRANCH  16  17
ATOM     17  C   UNL     1       5.380   4.855  15.717  0.00  0.00    +0.000 C 
ATOM     18  C   UNL     1       6.307   3.837  15.042  0.00  0.00    +0.000 C 
BRANCH  17  19
ATOM     19  C   UNL     1       6.166   5.907  16.443  0.00  0.00    +0.000 A 
ATOM     20  N   UNL     1       6.005   7.212  16.300  0.00  0.00    +0.000 NA
ATOM     21  N   UNL     1       6.945   7.850  17.066  0.00  0.00    +0.000 NA
ATOM     22  C   UNL     1       7.657   6.932  17.668  0.00  0.00    +0.000 A 
ATOM     23  N   UNL     1       7.210   5.696  17.308  0.00  0.00    +0.000 N 
ATOM     24  C   UNL     1       7.773   4.448  17.753  0.00  0.00    +0.000 C 
ENDBRANCH  17  19
ENDBRANCH  16  17
ENDBRANCH   3  16
TORSDOF 6
ENDMDL
MODEL 9
REMARK VINA RESULT:      -7.2      1.071      1.299
REMARK  Name = 
REMARK  11 active torsions:
REMARK  status: ('A' for Active; 'I' for Inactive)
REMARK    1  A    between atoms: C_1  and  C_2
REMARK    2  A    between atoms: C_2  and  C_3
REMARK    3  A    between atoms: C_5  and  C_6
REMARK    4  A    between atoms: C_6  and  C_7
REMARK    5  A    between atoms: C_6  and  C_8
REMARK    6  A    between atoms: C_11  and  C_12
REMARK    7  A    between atoms: N_14  and  C_15
REMARK    8  A    between atoms: C_15  and  C_16
REMARK    9  A    between atoms: C_16  and  C_17
REMARK   10  A    between atoms: C_16  and  C_18
REMARK   11  A    between atoms: N_22  and  C_23
REMARK                            x       y       z     vdW  Elec       q    Type
REMARK                         _______ _______ _______ _____ _____    ______ ____
ROOT
ATOM      1  C   UNL     1       5.152   4.745  18.077  0.00  0.00    +0.000 C 
ATOM      2  O   UNL     1       5.533   3.861  18.834  0.00  0.00    +0.000 OA
ATOM      3  N   UNL     1       4.171   5.645  18.444  0.00  0.00    +0.000 N 
ATOM      4  H   UNL     1       3.917   6.420  17.835  0.00  0.00    +0.000 HD
ENDROOT
BRANCH   1  10
ATOM      5  C   UNL     1       6.882   5.606  16.436  0.00  0.00    +0.000 A 
ATOM      6  N   UNL     1       7.424   5.683  15.183  0.00  0.00    +0.000 NA
ATOM      7  C   UNL     1       6.802   5.060  14.153  0.00  0.00    +0.000 A 
ATOM      8  C   UNL     1       5.609   4.372  14.331  0.00  0.00    +0.000 A 
ATOM      9  C   UNL     1       5.060   4.285  15.611  0.00  0.00    +0.000 A 
ATOM     10  C   UNL     1       5.709   4.885  16.698  0.00  0.00    +0.000 A 
BRANCH   7  11
ATOM     11  C   UNL     1       7.461   5.117  12.786  0.00  0.00    +0.000 C 
ATOM     12  C   UNL     1       8.921   5.559  12.890  0.00  0.00    +0.000 C 
ATOM     13  C   UNL     1       7.363   3.769  12.067  0.00  0.00    +0.000 C 
ENDBRANCH   7  11
BRANCH   5  15
ATOM     14  C   UNL     1       7.399   7.859  17.430  0.00  0.00    +0.000 C 
ATOM     15  C   UNL     1       7.653   6.359  17.492  0.00  0.00    +0.000 C 
ENDBRANCH   5  15
ENDBRANCH   1  10
BRANCH   3  16
ATOM     16  C   UNL     1       3.555   5.617  19.763  0.00  0.00    +0.000 C 
BRANCH  16  17
ATOM     17  C   UNL     1       2.019   5.471  19.729  0.00  0.00    +0.000 C 
ATOM     18  C   UNL     1       1.413   5.845  21.086  0.00  0.00    +0.000 C 
BRANCH  17  19
ATOM     19  C   UNL     1       1.633   4.077  19.328  0.00  0.00    +0.000 A 
ATOM     20  N   UNL     1       1.256   3.712  18.113  0.00  0.00    +0.000 NA
ATOM     21  N   UNL     1       0.914   2.385  18.148  0.00  0.00    +0.000 NA
ATOM     22  C   UNL     1       1.093   1.961  19.373  0.00  0.00    +0.000 A 
ATOM     23  N   UNL     1       1.541   2.985  20.153  0.00  0.00    +0.000 N 
ATOM     24  C   UNL     1       1.820   2.894  21.562  0.00  0.00    +0.000 C 
ENDBRANCH  17  19
ENDBRANCH  16  17
ENDBRANCH   3  16
TORSDOF 6
ENDMDL
