MODEL 1
REMARK VINA RESULT:      -7.1      0.000      0.000
REMARK  Name = 
REMARK  3 active torsions:
REMARK  status: ('A' for Active; 'I' for Inactive)
REMARK    1  A    between atoms: C_1  and  O_2
REMARK    2  A    between atoms: O_2  and  C_3
REMARK    3  A    between atoms: C_12  and  C_13
REMARK                            x       y       z     vdW  Elec       q    Type
REMARK                         _______ _______ _______ _____ _____    ______ ____
ROOT
ATOM      1  C   UNL     1       3.350   5.858  18.808  0.00  0.00    +0.000 C 
ATOM      2  C   UNL     1       2.569   4.669  19.347  0.00  0.00    +0.000 A 
ATOM      3  C   UNL     1       1.502   4.700  20.236  0.00  0.00    +0.000 A 
ATOM      4  C   UNL     1       1.008   3.489  20.725  0.00  0.00    +0.000 A 
ATOM      5  C   UNL     1       1.566   2.271  20.308  0.00  0.00    +0.000 A 
ATOM      6  C   UNL     1       2.619   2.249  19.391  0.00  0.00    +0.000 A 
ATOM      7  C   UNL     1       3.125   3.449  18.912  0.00  0.00    +0.000 A 
ATOM      8  C   UNL     1       4.306   3.669  18.023  0.00  0.00    +0.000 C 
ATOM      9  C   UNL     1       4.221   4.446  16.751  0.00  0.00    +0.000 C 
ATOM     10  C   UNL     1       4.513   5.197  18.047  0.00  0.00    +0.000 C 
ENDROOT
BRANCH  10  11
ATOM     11  C   UNL     1       5.943   5.668  18.298  0.00  0.00    +0.000 A 
ATOM     12  C   UNL     1       6.644   6.584  17.549  0.00  0.00    +0.000 A 
ATOM     13  N   UNL     1       7.849   6.718  18.188  0.00  0.00    +0.000 N 
ATOM     14  C   UNL     1       7.832   5.892  19.273  0.00  0.00    +0.000 A 
ATOM     15  N   UNL     1       6.700   5.235  19.361  0.00  0.00    +0.000 NA
ATOM     16  H   UNL     1       8.609   7.326  17.918  0.00  0.00    +0.000 HD
ENDBRANCH  10  11
BRANCH   1  18
ATOM     17  C   UNL     1       2.952   8.013  17.914  0.00  0.00    +0.000 C 
ATOM     18  O   UNL     1       2.531   6.655  17.946  0.00  0.00    +0.000 OA
ENDBRANCH   1  18
TORSDOF 2
ENDMDL
MODEL 2
REMARK VINA RESULT:      -7.1      2.279      3.143
REMARK  Name = 
REMARK  3 active torsions:
REMARK  status: ('A' for Active; 'I' for Inactive)
REMARK    1  A    between atoms: C_1  and  O_2
REMARK    2  A    between atoms: O_2  and  C_3
REMARK    3  A    between atoms: C_12  and  C_13
REMARK                            x       y       z     vdW  Elec       q    Type
REMARK                         _______ _______ _______ _____ _____    ______ ____
ROOT
ATOM      1  C   UNL     1       5.355   4.311  18.736  0.00  0.00    +0.000 C 
ATOM      2  C   UNL     1       3.978   3.935  19.263  0.00  0.00    +0.000 A 
ATOM      3  C   UNL     1       3.690   3.084  20.323  0.00  0.00    +0.000 A 
ATOM      4  C   UNL     1       2.356   2.751  20.564  0.00  0.00    +0.000 A 
ATOM      5  C   UNL     1       1.332   3.282  19.766  0.00  0.00    +0.000 A 
ATOM      6  C   UNL     1       1.629   4.160  18.721  0.00  0.00    +0.000 A 
ATOM      7  C   UNL     1       2.954   4.484  18.465  0.00  0.00    +0.000 A 
ATOM      8  C   UNL     1       3.510   5.303  17.345  0.00  0.00    +0.000 C 
ATOM      9  C   UNL     1       4.396   6.483  17.575  0.00  0.00    +0.000 C 
ATOM     10  C   UNL     1       5.034   5.102  17.455  0.00  0.00    +0.000 C 
ENDROOT
BRANCH  10  11
ATOM     11  C   UNL     1       5.751   4.752  16.153  0.00  0.00    +0.000 A 
ATOM     12  C   UNL     1       5.722   3.538  15.508  0.00  0.00    +0.000 A 
ATOM     13  N   UNL     1       6.464   3.723  14.370  0.00  0.00    +0.000 N 
ATOM     14  C   UNL     1       6.906   5.014  14.374  0.00  0.00    +0.000 A 
ATOM     15  N   UNL     1       6.503   5.657  15.443  0.00  0.00    +0.000 NA
ATOM     16  H   UNL     1       6.643   3.038  13.649  0.00  0.00    +0.000 HD
ENDBRANCH  10  11
BRANCH   1  18
ATOM     17  C   UNL     1       7.368   5.450  19.238  0.00  0.00    +0.000 C 
ATOM     18  O   UNL     1       6.064   5.106  19.692  0.00  0.00    +0.000 OA
ENDBRANCH   1  18
TORSDOF 2
ENDMDL
MODEL 3
REMARK VINA RESULT:      -7.1      1.232      1.272
REMARK  Name = 
REMARK  3 active torsions:
REMARK  status: ('A' for Active; 'I' for Inactive)
REMARK    1  A    between atoms: C_1  and  O_2
REMARK    2  A    between atoms: O_2  and  C_3
REMARK    3  A    between atoms: C_12  and  C_13
REMARK                            x       y       z     vdW  Elec       q    Type
REMARK                         _______ _______ _______ _____ _____    ______ ____
ROOT
ATOM      1  C   UNL     1       3.571   5.349  18.548  0.00  0.00    +0.000 C 
ATOM      2  C   UNL     1       2.705   4.452  19.419  0.00  0.00    +0.000 A 
ATOM      3  C   UNL     1       1.981   4.823  20.545  0.00  0.00    +0.000 A 
ATOM      4  C   UNL     1       1.359   3.823  21.295  0.00  0.00    +0.000 A 
ATOM      5  C   UNL     1       1.448   2.479  20.905  0.00  0.00    +0.000 A 
ATOM      6  C   UNL     1       2.154   2.118  19.754  0.00  0.00    +0.000 A 
ATOM      7  C   UNL     1       2.787   3.106  19.011  0.00  0.00    +0.000 A 
ATOM      8  C   UNL     1       3.679   2.944  17.823  0.00  0.00    +0.000 C 
ATOM      9  C   UNL     1       3.431   3.648  16.531  0.00  0.00    +0.000 C 
ATOM     10  C   UNL     1       4.261   4.353  17.599  0.00  0.00    +0.000 C 
ENDROOT
BRANCH  10  11
ATOM     11  C   UNL     1       5.774   4.421  17.405  0.00  0.00    +0.000 A 
ATOM     12  C   UNL     1       6.445   4.400  16.204  0.00  0.00    +0.000 A 
ATOM     13  N   UNL     1       7.768   4.537  16.533  0.00  0.00    +0.000 N 
ATOM     14  C   UNL     1       7.845   4.630  17.892  0.00  0.00    +0.000 A 
ATOM     15  N   UNL     1       6.660   4.551  18.448  0.00  0.00    +0.000 NA
ATOM     16  H   UNL     1       8.547   4.576  15.891  0.00  0.00    +0.000 HD
ENDBRANCH  10  11
BRANCH   1  18
ATOM     17  C   UNL     1       3.377   7.581  17.784  0.00  0.00    +0.000 C 
ATOM     18  O   UNL     1       2.768   6.296  17.837  0.00  0.00    +0.000 OA
ENDBRANCH   1  18
TORSDOF 2
ENDMDL
MODEL 4
REMARK VINA RESULT:      -6.9      0.914      1.148
REMARK  Name = 
REMARK  3 active torsions:
REMARK  status: ('A' for Active; 'I' for Inactive)
REMARK    1  A    between atoms: C_1  and  O_2
REMARK    2  A    between atoms: O_2  and  C_3
REMARK    3  A    between atoms: C_12  and  C_13
REMARK                            x       y       z     vdW  Elec       q    Type
REMARK                         _______ _______ _______ _____ _____    ______ ____
ROOT
ATOM      1  C   UNL     1       3.398   5.790  18.484  0.00  0.00    +0.000 C 
ATOM      2  C   UNL     1       2.650   4.481  18.685  0.00  0.00    +0.000 A 
ATOM      3  C   UNL     1       1.498   4.280  19.434  0.00  0.00    +0.000 A 
ATOM      4  C   UNL     1       1.040   2.974  19.614  0.00  0.00    +0.000 A 
ATOM      5  C   UNL     1       1.720   1.893  19.033  0.00  0.00    +0.000 A 
ATOM      6  C   UNL     1       2.862   2.107  18.256  0.00  0.00    +0.000 A 
ATOM      7  C   UNL     1       3.331   3.402  18.085  0.00  0.00    +0.000 A 
ATOM      8  C   UNL     1       4.580   3.854  17.398  0.00  0.00    +0.000 C 
ATOM      9  C   UNL     1       4.572   4.868  16.303  0.00  0.00    +0.000 C 
ATOM     10  C   UNL     1       4.677   5.352  17.746  0.00  0.00    +0.000 C 
ENDROOT
BRANCH  10  11
ATOM     11  C   UNL     1       6.038   5.828  18.249  0.00  0.00    +0.000 A 
ATOM     12  C   UNL     1       6.687   5.394  19.381  0.00  0.00    +0.000 A 
ATOM     13  N   UNL     1       7.883   6.063  19.383  0.00  0.00    +0.000 N 
ATOM     14  C   UNL     1       7.908   6.863  18.277  0.00  0.00    +0.000 A 
ATOM     15  N   UNL     1       6.803   6.753  17.579  0.00  0.00    +0.000 NA
ATOM     16  H   UNL     1       8.621   5.975  20.067  0.00  0.00    +0.000 HD
ENDBRANCH  10  11
BRANCH   1  18
ATOM     17  C   UNL     1       2.562   7.997  18.304  0.00  0.00    +0.000 C 
ATOM     18  O   UNL     1       2.620   6.706  17.708  0.00  0.00    +0.000 OA
ENDBRANCH   1  18
TORSDOF 2
ENDMDL
MODEL 5
REMARK VINA RESULT:      -6.8      1.623      1.852
REMARK  Name = 
REMARK  3 active torsions:
REMARK  status: ('A' for Active; 'I' for Inactive)
REMARK    1  A    between atoms: C_1  and  O_2
REMARK    2  A    between atoms: O_2  and  C_3
REMARK    3  A    between atoms: C_12  and  C_13
REMARK                            x       y       z     vdW  Elec       q    Type
REMARK                         _______ _______ _______ _____ _____    ______ ____
ROOT
ATOM      1  C   UNL     1       3.444   5.377  18.459  0.00  0.00    +0.000 C 
ATOM      2  C   UNL     1       2.860   4.484  19.543  0.00  0.00    +0.000 A 
ATOM      3  C   UNL     1       2.388   4.877  20.789  0.00  0.00    +0.000 A 
ATOM      4  C   UNL     1       2.021   3.888  21.703  0.00  0.00    +0.000 A 
ATOM      5  C   UNL     1       2.109   2.530  21.360  0.00  0.00    +0.000 A 
ATOM      6  C   UNL     1       2.558   2.145  20.094  0.00  0.00    +0.000 A 
ATOM      7  C   UNL     1       2.938   3.123  19.185  0.00  0.00    +0.000 A 
ATOM      8  C   UNL     1       3.546   2.944  17.831  0.00  0.00    +0.000 C 
ATOM      9  C   UNL     1       2.965   3.559  16.601  0.00  0.00    +0.000 C 
ATOM     10  C   UNL     1       3.966   4.368  17.419  0.00  0.00    +0.000 C 
ENDROOT
BRANCH  10  11
ATOM     11  C   UNL     1       5.388   4.510  16.880  0.00  0.00    +0.000 A 
ATOM     12  C   UNL     1       6.535   4.638  17.628  0.00  0.00    +0.000 A 
ATOM     13  N   UNL     1       7.553   4.679  16.712  0.00  0.00    +0.000 N 
ATOM     14  C   UNL     1       6.994   4.581  15.471  0.00  0.00    +0.000 A 
ATOM     15  N   UNL     1       5.687   4.490  15.538  0.00  0.00    +0.000 NA
ATOM     16  H   UNL     1       8.541   4.754  16.912  0.00  0.00    +0.000 HD
ENDBRANCH  10  11
BRANCH   1  18
ATOM     17  C   UNL     1       2.725   7.610  18.147  0.00  0.00    +0.000 C 
ATOM     18  O   UNL     1       2.439   6.236  17.913  0.00  0.00    +0.000 OA
ENDBRANCH   1  18
TORSDOF 2
ENDMDL
MODEL 6
REMARK VINA RESULT:      -6.6      2.493      5.047
REMARK  Name = 
REMARK  3 active torsions:
REMARK  status: ('A' for Active; 'I' for Inactive)
REMARK    1  A    between atoms: C_1  and  O_2
REMARK    2  A    between atoms: O_2  and  C_3
REMARK    3  A    between atoms: C_12  and  C_13
REMARK                            x       y       z     vdW  Elec       q    Type
REMARK                         _______ _______ _______ _____ _____    ______ ____
ROOT
ATOM      1  C   UNL     1       5.827   5.268  18.420  0.00  0.00    +0.000 C 
ATOM      2  C   UNL     1       6.061   4.877  16.968  0.00  0.00    +0.000 A 
ATOM      3  C   UNL     1       7.091   5.307  16.140  0.00  0.00    +0.000 A 
ATOM      4  C   UNL     1       7.053   4.947  14.792  0.00  0.00    +0.000 A 
ATOM      5  C   UNL     1       6.010   4.152  14.294  0.00  0.00    +0.000 A 
ATOM      6  C   UNL     1       4.994   3.701  15.140  0.00  0.00    +0.000 A 
ATOM      7  C   UNL     1       5.017   4.067  16.479  0.00  0.00    +0.000 A 
ATOM      8  C   UNL     1       3.990   3.798  17.532  0.00  0.00    +0.000 C 
ATOM      9  C   UNL     1       4.322   3.133  18.827  0.00  0.00    +0.000 C 
ATOM     10  C   UNL     1       4.451   4.650  18.730  0.00  0.00    +0.000 C 
ENDROOT
BRANCH  10  11
ATOM     11  C   UNL     1       3.371   5.507  19.387  0.00  0.00    +0.000 A 
ATOM     12  C   UNL     1       2.592   5.153  20.464  0.00  0.00    +0.000 A 
ATOM     13  N   UNL     1       1.819   6.255  20.720  0.00  0.00    +0.000 N 
ATOM     14  C   UNL     1       2.150   7.211  19.805  0.00  0.00    +0.000 A 
ATOM     15  N   UNL     1       3.075   6.786  18.978  0.00  0.00    +0.000 NA
ATOM     16  H   UNL     1       1.136   6.353  21.458  0.00  0.00    +0.000 HD
ENDBRANCH  10  11
BRANCH   1  18
ATOM     17  C   UNL     1       7.846   5.705  19.575  0.00  0.00    +0.000 C 
ATOM     18  O   UNL     1       6.854   4.734  19.261  0.00  0.00    +0.000 OA
ENDBRANCH   1  18
TORSDOF 2
ENDMDL
MODEL 7
REMARK VINA RESULT:      -6.4      2.595      5.075
REMARK  Name = 
REMARK  3 active torsions:
REMARK  status: ('A' for Active; 'I' for Inactive)
REMARK    1  A    between atoms: C_1  and  O_2
REMARK    2  A    between atoms: O_2  and  C_3
REMARK    3  A    between atoms: C_12  and  C_13
REMARK                            x       y       z     vdW  Elec       q    Type
REMARK                         _______ _______ _______ _____ _____    ______ ____
ROOT
ATOM      1  C   UNL     1       3.541   5.912  17.467  0.00  0.00    +0.000 C 
ATOM      2  C   UNL     1       4.787   5.565  16.666  0.00  0.00    +0.000 A 
ATOM      3  C   UNL     1       5.127   6.029  15.402  0.00  0.00    +0.000 A 
ATOM      4  C   UNL     1       6.246   5.483  14.772  0.00  0.00    +0.000 A 
ATOM      5  C   UNL     1       7.019   4.503  15.412  0.00  0.00    +0.000 A 
ATOM      6  C   UNL     1       6.686   4.063  16.696  0.00  0.00    +0.000 A 
ATOM      7  C   UNL     1       5.566   4.591  17.323  0.00  0.00    +0.000 A 
ATOM      8  C   UNL     1       4.963   4.196  18.633  0.00  0.00    +0.000 C 
ATOM      9  C   UNL     1       4.701   5.178  19.726  0.00  0.00    +0.000 C 
ATOM     10  C   UNL     1       3.622   4.955  18.671  0.00  0.00    +0.000 C 
ENDROOT
BRANCH  10  11
ATOM     11  C   UNL     1       2.401   4.123  19.055  0.00  0.00    +0.000 A 
ATOM     12  C   UNL     1       1.675   4.229  20.219  0.00  0.00    +0.000 A 
ATOM     13  N   UNL     1       0.656   3.323  20.086  0.00  0.00    +0.000 N 
ATOM     14  C   UNL     1       0.804   2.714  18.874  0.00  0.00    +0.000 A 
ATOM     15  N   UNL     1       1.855   3.166  18.233  0.00  0.00    +0.000 NA
ATOM     16  H   UNL     1      -0.081   3.143  20.753  0.00  0.00    +0.000 HD
ENDBRANCH  10  11
BRANCH   1  18
ATOM     17  C   UNL     1       2.258   7.785  18.135  0.00  0.00    +0.000 C 
ATOM     18  O   UNL     1       3.564   7.284  17.873  0.00  0.00    +0.000 OA
ENDBRANCH   1  18
TORSDOF 2
ENDMDL
MODEL 8
REMARK VINA RESULT:      -6.3      2.557      3.993
REMARK  Name = 
REMARK  3 active torsions:
REMARK  status: ('A' for Active; 'I' for Inactive)
REMARK    1  A    between atoms: C_1  and  O_2
REMARK    2  A    between atoms: O_2  and  C_3
REMARK    3  A    between atoms: C_12  and  C_13
REMARK                            x       y       z     vdW  Elec       q    Type
REMARK                         _______ _______ _______ _____ _____    ______ ____
ROOT
ATOM      1  C   UNL     1       5.727   4.887  18.233  0.00  0.00    +0.000 C 
ATOM      2  C   UNL     1       4.420   5.457  18.761  0.00  0.00    +0.000 A 
ATOM      3  C   UNL     1       3.652   4.962  19.808  0.00  0.00    +0.000 A 
ATOM      4  C   UNL     1       2.407   5.544  20.052  0.00  0.00    +0.000 A 
ATOM      5  C   UNL     1       1.954   6.615  19.268  0.00  0.00    +0.000 A 
ATOM      6  C   UNL     1       2.745   7.125  18.236  0.00  0.00    +0.000 A 
ATOM      7  C   UNL     1       3.979   6.543  17.978  0.00  0.00    +0.000 A 
ATOM      8  C   UNL     1       4.933   6.845  16.869  0.00  0.00    +0.000 C 
ATOM      9  C   UNL     1       6.364   7.194  17.112  0.00  0.00    +0.000 C 
ATOM     10  C   UNL     1       5.987   5.724  16.967  0.00  0.00    +0.000 C 
ENDROOT
BRANCH  10  11
ATOM     11  C   UNL     1       6.329   5.020  15.655  0.00  0.00    +0.000 A 
ATOM     12  C   UNL     1       5.754   3.866  15.175  0.00  0.00    +0.000 A 
ATOM     13  N   UNL     1       6.344   3.658  13.955  0.00  0.00    +0.000 N 
ATOM     14  C   UNL     1       7.236   4.670  13.752  0.00  0.00    +0.000 A 
ATOM     15  N   UNL     1       7.259   5.502  14.765  0.00  0.00    +0.000 NA
ATOM     16  H   UNL     1       6.148   2.902  13.313  0.00  0.00    +0.000 HD
ENDBRANCH  10  11
BRANCH   1  18
ATOM     17  C   UNL     1       8.053   4.748  18.647  0.00  0.00    +0.000 C 
ATOM     18  O   UNL     1       6.773   5.039  19.197  0.00  0.00    +0.000 OA
ENDBRANCH   1  18
TORSDOF 2
ENDMDL
MODEL 9
REMARK VINA RESULT:      -6.3      2.302      3.512
REMARK  Name = 
REMARK  3 active torsions:
REMARK  status: ('A' for Active; 'I' for Inactive)
REMARK    1  A    between atoms: C_1  and  O_2
REMARK    2  A    between atoms: O_2  and  C_3
REMARK    3  A    between atoms: C_12  and  C_13
REMARK                            x       y       z     vdW  Elec       q    Type
REMARK                         _______ _______ _______ _____ _____    ______ ____
ROOT
ATOM      1  C   UNL     1       4.505   3.333  18.966  0.00  0.00    +0.000 C 
ATOM      2  C   UNL     1       3.332   4.067  19.598  0.00  0.00    +0.000 A 
ATOM      3  C   UNL     1       2.160   3.507  20.091  0.00  0.00    +0.000 A 
ATOM      4  C   UNL     1       1.137   4.362  20.504  0.00  0.00    +0.000 A 
ATOM      5  C   UNL     1       1.300   5.753  20.440  0.00  0.00    +0.000 A 
ATOM      6  C   UNL     1       2.494   6.308  19.971  0.00  0.00    +0.000 A 
ATOM      7  C   UNL     1       3.510   5.464  19.544  0.00  0.00    +0.000 A 
ATOM      8  C   UNL     1       4.812   5.828  18.908  0.00  0.00    +0.000 C 
ATOM      9  C   UNL     1       6.126   5.364  19.444  0.00  0.00    +0.000 C 
ATOM     10  C   UNL     1       5.392   4.477  18.443  0.00  0.00    +0.000 C 
ENDROOT
BRANCH  10  11
ATOM     11  C   UNL     1       5.905   4.437  17.006  0.00  0.00    +0.000 A 
ATOM     12  C   UNL     1       7.187   4.716  16.589  0.00  0.00    +0.000 A 
ATOM     13  N   UNL     1       7.176   4.494  15.237  0.00  0.00    +0.000 N 
ATOM     14  C   UNL     1       5.915   4.102  14.895  0.00  0.00    +0.000 A 
ATOM     15  N   UNL     1       5.121   4.069  15.938  0.00  0.00    +0.000 NA
ATOM     16  H   UNL     1       7.959   4.589  14.605  0.00  0.00    +0.000 HD
ENDBRANCH  10  11
BRANCH   1  18
ATOM     17  C   UNL     1       4.783   1.166  19.877  0.00  0.00    +0.000 C 
ATOM     18  O   UNL     1       5.184   2.530  19.936  0.00  0.00    +0.000 OA
ENDBRANCH   1  18
TORSDOF 2
ENDMDL
