MODEL 1
REMARK VINA RESULT:      -8.4      0.000      0.000
REMARK  Name = 
REMARK  12 active torsions:
REMARK  status: ('A' for Active; 'I' for Inactive)
REMARK    1  A    between atoms: C_1  and  O_2
REMARK    2  A    between atoms: O_2  and  C_3
REMARK    3  A    between atoms: C_6  and  C_7
REMARK    4  A    between atoms: C_7  and  S_8
REMARK    5  A    between atoms: S_8  and  C_9
REMARK    6  A    between atoms: C_11  and  C_12
REMARK    7  A    between atoms: C_12  and  C_14
REMARK    8  A    between atoms: C_17  and  C_18
REMARK    9  A    between atoms: C_18  and  C_19
REMARK   10  A    between atoms: C_18  and  C_20
REMARK   11  A    between atoms: C_18  and  C_21
REMARK   12  A    between atoms: C_24  and  C_25
REMARK                            x       y       z     vdW  Elec       q    Type
REMARK                         _______ _______ _______ _____ _____    ______ ____
ROOT
ATOM      1  C   UNL     1       7.196   6.899  17.631  0.00  0.00    +0.000 A 
ATOM      2  N   UNL     1       6.005   6.647  18.036  0.00  0.00    +0.000 NA
ATOM      3  C   UNL     1       5.191   5.905  17.204  0.00  0.00    +0.000 A 
ATOM      4  C   UNL     1       5.592   5.385  16.022  0.00  0.00    +0.000 A 
ATOM      5  C   UNL     1       4.836   4.564  15.015  0.00  0.00    +0.000 C 
ATOM      6  C   UNL     1       7.005   5.653  15.635  0.00  0.00    +0.000 A 
ATOM      7  O   UNL     1       7.527   5.148  14.648  0.00  0.00    +0.000 OA
ATOM      8  N   UNL     1       7.704   6.475  16.455  0.00  0.00    +0.000 N 
ATOM      9  H   UNL     1       8.663   6.677  16.219  0.00  0.00    +0.000 HD
ENDROOT
BRANCH   3  10
ATOM     10  C   UNL     1       3.764   5.701  17.681  0.00  0.00    +0.000 C 
ATOM     11  O   UNL     1       3.168   4.633  17.558  0.00  0.00    +0.000 OA
BRANCH  10  12
ATOM     12  C   UNL     1       3.021   6.845  18.291  0.00  0.00    +0.000 A 
ATOM     13  C   UNL     1       2.768   7.957  17.486  0.00  0.00    +0.000 A 
ATOM     14  C   UNL     1       1.975   9.013  17.951  0.00  0.00    +0.000 A 
ATOM     15  C   UNL     1       1.399   8.989  19.232  0.00  0.00    +0.000 A 
ATOM     16  C   UNL     1       1.705   7.885  20.051  0.00  0.00    +0.000 A 
ATOM     17  C   UNL     1       2.491   6.820  19.584  0.00  0.00    +0.000 A 
BRANCH  15  18
ATOM     18  C   UNL     1       0.412  10.073  19.708  0.00  0.00    +0.000 C 
ATOM     19  C   UNL     1      -0.794  10.257  18.758  0.00  0.00    +0.000 C 
ATOM     20  C   UNL     1      -0.157   9.677  21.090  0.00  0.00    +0.000 C 
ATOM     21  C   UNL     1       1.110  11.442  19.837  0.00  0.00    +0.000 C 
ENDBRANCH  15  18
ENDBRANCH  10  12
ENDBRANCH   3  10
BRANCH   1  22
ATOM     22  S   UNL     1       8.337   7.816  18.560  0.00  0.00    +0.000 S 
BRANCH  22  23
ATOM     23  C   UNL     1       8.111   9.446  17.791  0.00  0.00    +0.000 C 
BRANCH  23  27
ATOM     24  C   UNL     1      10.494  12.492  19.733  0.00  0.00    +0.000 A 
ATOM     25  C   UNL     1      10.114  12.632  18.399  0.00  0.00    +0.000 A 
ATOM     26  C   UNL     1       9.339  11.653  17.772  0.00  0.00    +0.000 A 
ATOM     27  C   UNL     1       8.942  10.506  18.472  0.00  0.00    +0.000 A 
ATOM     28  C   UNL     1       9.350  10.358  19.805  0.00  0.00    +0.000 A 
ATOM     29  C   UNL     1      10.120  11.345  20.433  0.00  0.00    +0.000 A 
BRANCH  24  31
ATOM     30  C   UNL     1      12.275  14.008  19.362  0.00  0.00    +0.000 C 
ATOM     31  O   UNL     1      11.261  13.511  20.228  0.00  0.00    +0.000 OA
ENDBRANCH  24  31
ENDBRANCH  23  27
ENDBRANCH  22  23
ENDBRANCH   1  22
TORSDOF 7
ENDMDL
MODEL 2
REMARK VINA RESULT:      -8.4      0.488      1.182
REMARK  Name = 
REMARK  12 active torsions:
REMARK  status: ('A' for Active; 'I' for Inactive)
REMARK    1  A    between atoms: C_1  and  O_2
REMARK    2  A    between atoms: O_2  and  C_3
REMARK    3  A    between atoms: C_6  and  C_7
REMARK    4  A    between atoms: C_7  and  S_8
REMARK    5  A    between atoms: S_8  and  C_9
REMARK    6  A    between atoms: C_11  and  C_12
REMARK    7  A    between atoms: C_12  and  C_14
REMARK    8  A    between atoms: C_17  and  C_18
REMARK    9  A    between atoms: C_18  and  C_19
REMARK   10  A    between atoms: C_18  and  C_20
REMARK   11  A    between atoms: C_18  and  C_21
REMARK   12  A    between atoms: C_24  and  C_25
REMARK                            x       y       z     vdW  Elec       q    Type
REMARK                         _______ _______ _______ _____ _____    ______ ____
ROOT
ATOM      1  C   UNL     1       7.258   6.769  17.825  0.00  0.00    +0.000 A 
ATOM      2  N   UNL     1       6.095   6.486  18.288  0.00  0.00    +0.000 NA
ATOM      3  C   UNL     1       5.244   5.762  17.477  0.00  0.00    +0.000 A 
ATOM      4  C   UNL     1       5.583   5.290  16.256  0.00  0.00    +0.000 A 
ATOM      5  C   UNL     1       4.780   4.495  15.264  0.00  0.00    +0.000 C 
ATOM      6  C   UNL     1       6.968   5.592  15.800  0.00  0.00    +0.000 A 
ATOM      7  O   UNL     1       7.439   5.131  14.766  0.00  0.00    +0.000 OA
ATOM      8  N   UNL     1       7.702   6.395  16.607  0.00  0.00    +0.000 N 
ATOM      9  H   UNL     1       8.644   6.619  16.325  0.00  0.00    +0.000 HD
ENDROOT
BRANCH   3  10
ATOM     10  C   UNL     1       3.850   5.520  18.027  0.00  0.00    +0.000 C 
ATOM     11  O   UNL     1       3.392   4.393  18.206  0.00  0.00    +0.000 OA
BRANCH  10  12
ATOM     12  C   UNL     1       2.965   6.685  18.331  0.00  0.00    +0.000 A 
ATOM     13  C   UNL     1       2.436   6.780  19.619  0.00  0.00    +0.000 A 
ATOM     14  C   UNL     1       1.698   7.904  20.010  0.00  0.00    +0.000 A 
ATOM     15  C   UNL     1       1.473   8.976  19.131  0.00  0.00    +0.000 A 
ATOM     16  C   UNL     1       1.969   8.843  17.819  0.00  0.00    +0.000 A 
ATOM     17  C   UNL     1       2.718   7.723  17.428  0.00  0.00    +0.000 A 
BRANCH  15  18
ATOM     18  C   UNL     1       0.786  10.279  19.585  0.00  0.00    +0.000 C 
ATOM     19  C   UNL     1       1.452  11.551  19.008  0.00  0.00    +0.000 C 
ATOM     20  C   UNL     1      -0.682  10.279  19.103  0.00  0.00    +0.000 C 
ATOM     21  C   UNL     1       0.802  10.408  21.122  0.00  0.00    +0.000 C 
ENDBRANCH  15  18
ENDBRANCH  10  12
ENDBRANCH   3  10
BRANCH   1  22
ATOM     22  S   UNL     1       8.438   7.670  18.720  0.00  0.00    +0.000 S 
BRANCH  22  23
ATOM     23  C   UNL     1       8.191   9.310  17.981  0.00  0.00    +0.000 C 
BRANCH  23  27
ATOM     24  C   UNL     1      10.887  12.254  19.653  0.00  0.00    +0.000 A 
ATOM     25  C   UNL     1      10.815  12.060  18.274  0.00  0.00    +0.000 A 
ATOM     26  C   UNL     1       9.940  11.114  17.732  0.00  0.00    +0.000 A 
ATOM     27  C   UNL     1       9.130  10.335  18.568  0.00  0.00    +0.000 A 
ATOM     28  C   UNL     1       9.226  10.515  19.955  0.00  0.00    +0.000 A 
ATOM     29  C   UNL     1      10.098  11.470  20.494  0.00  0.00    +0.000 A 
BRANCH  24  31
ATOM     30  C   UNL     1      11.551  14.526  19.608  0.00  0.00    +0.000 C 
ATOM     31  O   UNL     1      11.789  13.198  20.060  0.00  0.00    +0.000 OA
ENDBRANCH  24  31
ENDBRANCH  23  27
ENDBRANCH  22  23
ENDBRANCH   1  22
TORSDOF 7
ENDMDL
MODEL 3
REMARK VINA RESULT:      -8.3      6.346     11.106
REMARK  Name = 
REMARK  12 active torsions:
REMARK  status: ('A' for Active; 'I' for Inactive)
REMARK    1  A    between atoms: C_1  and  O_2
REMARK    2  A    between atoms: O_2  and  C_3
REMARK    3  A    between atoms: C_6  and  C_7
REMARK    4  A    between atoms: C_7  and  S_8
REMARK    5  A    between atoms: S_8  and  C_9
REMARK    6  A    between atoms: C_11  and  C_12
REMARK    7  A    between atoms: C_12  and  C_14
REMARK    8  A    between atoms: C_17  and  C_18
REMARK    9  A    between atoms: C_18  and  C_19
REMARK   10  A    between atoms: C_18  and  C_20
REMARK   11  A    between atoms: C_18  and  C_21
REMARK   12  A    between atoms: C_24  and  C_25
REMARK                            x       y       z     vdW  Elec       q    Type
REMARK                         _______ _______ _______ _____ _____    ______ ____
ROOT
ATOM      1  C   UNL     1      -1.843  10.836  18.098  0.00  0.00    +0.000 A 
ATOM      2  N   UNL     1      -1.138  10.187  18.951  0.00  0.00    +0.000 NA
ATOM      3  C   UNL     1      -0.054  10.834  19.509  0.00  0.00    +0.000 A 
ATOM      4  C   UNL     1       0.270  12.121  19.254  0.00  0.00    +0.000 A 
ATOM      5  C   UNL     1       1.403  12.961  19.776  0.00  0.00    +0.000 C 
ATOM      6  C   UNL     1      -0.624  12.846  18.309  0.00  0.00    +0.000 A 
ATOM      7  O   UNL     1      -0.510  14.045  18.078  0.00  0.00    +0.000 OA
ATOM      8  N   UNL     1      -1.600  12.110  17.726  0.00  0.00    +0.000 N 
ATOM      9  H   UNL     1      -2.221  12.572  17.079  0.00  0.00    +0.000 HD
ENDROOT
BRANCH   3  10
ATOM     10  C   UNL     1       0.803  10.004  20.448  0.00  0.00    +0.000 C 
ATOM     11  O   UNL     1       1.015  10.327  21.615  0.00  0.00    +0.000 OA
BRANCH  10  12
ATOM     12  C   UNL     1       1.462   8.763  19.941  0.00  0.00    +0.000 A 
ATOM     13  C   UNL     1       1.458   7.640  20.771  0.00  0.00    +0.000 A 
ATOM     14  C   UNL     1       1.949   6.411  20.315  0.00  0.00    +0.000 A 
ATOM     15  C   UNL     1       2.450   6.258  19.012  0.00  0.00    +0.000 A 
ATOM     16  C   UNL     1       2.495   7.410  18.204  0.00  0.00    +0.000 A 
ATOM     17  C   UNL     1       1.994   8.642  18.654  0.00  0.00    +0.000 A 
BRANCH  15  18
ATOM     18  C   UNL     1       2.863   4.884  18.448  0.00  0.00    +0.000 C 
ATOM     19  C   UNL     1       3.491   3.953  19.511  0.00  0.00    +0.000 C 
ATOM     20  C   UNL     1       1.615   4.161  17.894  0.00  0.00    +0.000 C 
ATOM     21  C   UNL     1       3.890   5.038  17.307  0.00  0.00    +0.000 C 
ENDBRANCH  15  18
ENDBRANCH  10  12
ENDBRANCH   3  10
BRANCH   1  22
ATOM     22  S   UNL     1      -3.233  10.162  17.311  0.00  0.00    +0.000 S 
BRANCH  22  23
ATOM     23  C   UNL     1      -4.309  11.624  17.293  0.00  0.00    +0.000 C 
BRANCH  23  27
ATOM     24  C   UNL     1      -6.903  11.756  20.755  0.00  0.00    +0.000 A 
ATOM     25  C   UNL     1      -5.776  12.574  20.681  0.00  0.00    +0.000 A 
ATOM     26  C   UNL     1      -4.941  12.538  19.561  0.00  0.00    +0.000 A 
ATOM     27  C   UNL     1      -5.215  11.667  18.498  0.00  0.00    +0.000 A 
ATOM     28  C   UNL     1      -6.334  10.828  18.590  0.00  0.00    +0.000 A 
ATOM     29  C   UNL     1      -7.174  10.873  19.710  0.00  0.00    +0.000 A 
BRANCH  24  31
ATOM     30  C   UNL     1      -6.980  12.518  22.995  0.00  0.00    +0.000 C 
ATOM     31  O   UNL     1      -7.632  11.875  21.905  0.00  0.00    +0.000 OA
ENDBRANCH  24  31
ENDBRANCH  23  27
ENDBRANCH  22  23
ENDBRANCH   1  22
TORSDOF 7
ENDMDL
MODEL 4
REMARK VINA RESULT:      -8.3      4.712      8.243
REMARK  Name = 
REMARK  12 active torsions:
REMARK  status: ('A' for Active; 'I' for Inactive)
REMARK    1  A    between atoms: C_1  and  O_2
REMARK    2  A    between atoms: O_2  and  C_3
REMARK    3  A    between atoms: C_6  and  C_7
REMARK    4  A    between atoms: C_7  and  S_8
REMARK    5  A    between atoms: S_8  and  C_9
REMARK    6  A    between atoms: C_11  and  C_12
REMARK    7  A    between atoms: C_12  and  C_14
REMARK    8  A    between atoms: C_17  and  C_18
REMARK    9  A    between atoms: C_18  and  C_19
REMARK   10  A    between atoms: C_18  and  C_20
REMARK   11  A    between atoms: C_18  and  C_21
REMARK   12  A    between atoms: C_24  and  C_25
REMARK                            x       y       z     vdW  Elec       q    Type
REMARK                         _______ _______ _______ _____ _____    ______ ____
ROOT
ATOM      1  C   UNL     1       1.514   8.334  20.355  0.00  0.00    +0.000 A 
ATOM      2  N   UNL     1       1.120   9.246  19.543  0.00  0.00    +0.000 NA
ATOM      3  C   UNL     1       0.454  10.332  20.077  0.00  0.00    +0.000 A 
ATOM      4  C   UNL     1       0.245  10.514  21.400  0.00  0.00    +0.000 A 
ATOM      5  C   UNL     1      -0.453  11.629  22.129  0.00  0.00    +0.000 C 
ATOM      6  C   UNL     1       0.784   9.457  22.299  0.00  0.00    +0.000 A 
ATOM      7  O   UNL     1       0.762   9.554  23.521  0.00  0.00    +0.000 OA
ATOM      8  N   UNL     1       1.330   8.376  21.691  0.00  0.00    +0.000 N 
ATOM      9  H   UNL     1       1.703   7.642  22.273  0.00  0.00    +0.000 HD
ENDROOT
BRANCH   3  10
ATOM     10  C   UNL     1      -0.070  11.346  19.075  0.00  0.00    +0.000 C 
ATOM     11  O   UNL     1      -1.128  11.195  18.468  0.00  0.00    +0.000 OA
BRANCH  10  12
ATOM     12  C   UNL     1       0.738  12.565  18.770  0.00  0.00    +0.000 A 
ATOM     13  C   UNL     1       0.119  13.808  18.914  0.00  0.00    +0.000 A 
ATOM     14  C   UNL     1       0.847  14.993  18.762  0.00  0.00    +0.000 A 
ATOM     15  C   UNL     1       2.222  14.978  18.471  0.00  0.00    +0.000 A 
ATOM     16  C   UNL     1       2.821  13.719  18.278  0.00  0.00    +0.000 A 
ATOM     17  C   UNL     1       2.096  12.528  18.441  0.00  0.00    +0.000 A 
BRANCH  15  18
ATOM     18  C   UNL     1       3.068  16.267  18.439  0.00  0.00    +0.000 C 
ATOM     19  C   UNL     1       4.586  15.995  18.324  0.00  0.00    +0.000 C 
ATOM     20  C   UNL     1       2.666  17.113  17.210  0.00  0.00    +0.000 C 
ATOM     21  C   UNL     1       2.846  17.108  19.712  0.00  0.00    +0.000 C 
ENDBRANCH  15  18
ENDBRANCH  10  12
ENDBRANCH   3  10
BRANCH   1  22
ATOM     22  S   UNL     1       2.362   6.913  19.840  0.00  0.00    +0.000 S 
BRANCH  22  23
ATOM     23  C   UNL     1       2.934   7.475  18.211  0.00  0.00    +0.000 C 
BRANCH  23  27
ATOM     24  C   UNL     1       5.196   4.416  16.149  0.00  0.00    +0.000 A 
ATOM     25  C   UNL     1       5.496   5.765  15.965  0.00  0.00    +0.000 A 
ATOM     26  C   UNL     1       4.771   6.754  16.636  0.00  0.00    +0.000 A 
ATOM     27  C   UNL     1       3.720   6.405  17.494  0.00  0.00    +0.000 A 
ATOM     28  C   UNL     1       3.406   5.049  17.654  0.00  0.00    +0.000 A 
ATOM     29  C   UNL     1       4.140   4.059  16.988  0.00  0.00    +0.000 A 
BRANCH  24  31
ATOM     30  C   UNL     1       6.249   3.924  14.087  0.00  0.00    +0.000 C 
ATOM     31  O   UNL     1       5.968   3.546  15.429  0.00  0.00    +0.000 OA
ENDBRANCH  24  31
ENDBRANCH  23  27
ENDBRANCH  22  23
ENDBRANCH   1  22
TORSDOF 7
ENDMDL
MODEL 5
REMARK VINA RESULT:      -8.2      5.110      8.690
REMARK  Name = 
REMARK  12 active torsions:
REMARK  status: ('A' for Active; 'I' for Inactive)
REMARK    1  A    between atoms: C_1  and  O_2
REMARK    2  A    between atoms: O_2  and  C_3
REMARK    3  A    between atoms: C_6  and  C_7
REMARK    4  A    between atoms: C_7  and  S_8
REMARK    5  A    between atoms: S_8  and  C_9
REMARK    6  A    between atoms: C_11  and  C_12
REMARK    7  A    between atoms: C_12  and  C_14
REMARK    8  A    between atoms: C_17  and  C_18
REMARK    9  A    between atoms: C_18  and  C_19
REMARK   10  A    between atoms: C_18  and  C_20
REMARK   11  A    between atoms: C_18  and  C_21
REMARK   12  A    between atoms: C_24  and  C_25
REMARK                            x       y       z     vdW  Elec       q    Type
REMARK                         _______ _______ _______ _____ _____    ______ ____
ROOT
ATOM      1  C   UNL     1       2.844   6.284  19.508  0.00  0.00    +0.000 A 
ATOM      2  N   UNL     1       3.916   6.049  18.843  0.00  0.00    +0.000 NA
ATOM      3  C   UNL     1       4.472   4.791  18.951  0.00  0.00    +0.000 A 
ATOM      4  C   UNL     1       3.926   3.782  19.666  0.00  0.00    +0.000 A 
ATOM      5  C   UNL     1       4.403   2.372  19.878  0.00  0.00    +0.000 C 
ATOM      6  C   UNL     1       2.647   4.091  20.362  0.00  0.00    +0.000 A 
ATOM      7  O   UNL     1       1.991   3.239  20.950  0.00  0.00    +0.000 OA
ATOM      8  N   UNL     1       2.224   5.377  20.292  0.00  0.00    +0.000 N 
ATOM      9  H   UNL     1       1.361   5.618  20.754  0.00  0.00    +0.000 HD
ENDROOT
BRANCH   3  10
ATOM     10  C   UNL     1       5.785   4.581  18.216  0.00  0.00    +0.000 C 
ATOM     11  O   UNL     1       6.869   4.535  18.792  0.00  0.00    +0.000 OA
BRANCH  10  12
ATOM     12  C   UNL     1       5.784   4.464  16.727  0.00  0.00    +0.000 A 
ATOM     13  C   UNL     1       6.982   4.718  16.055  0.00  0.00    +0.000 A 
ATOM     14  C   UNL     1       7.087   4.513  14.675  0.00  0.00    +0.000 A 
ATOM     15  C   UNL     1       6.003   4.036  13.919  0.00  0.00    +0.000 A 
ATOM     16  C   UNL     1       4.788   3.833  14.600  0.00  0.00    +0.000 A 
ATOM     17  C   UNL     1       4.682   4.028  15.986  0.00  0.00    +0.000 A 
BRANCH  15  18
ATOM     18  C   UNL     1       6.140   3.671  12.427  0.00  0.00    +0.000 C 
ATOM     19  C   UNL     1       6.547   2.197  12.197  0.00  0.00    +0.000 C 
ATOM     20  C   UNL     1       4.781   3.880  11.721  0.00  0.00    +0.000 C 
ATOM     21  C   UNL     1       7.198   4.554  11.735  0.00  0.00    +0.000 C 
ENDBRANCH  15  18
ENDBRANCH  10  12
ENDBRANCH   3  10
BRANCH   1  22
ATOM     22  S   UNL     1       2.027   7.812  19.478  0.00  0.00    +0.000 S 
BRANCH  22  23
ATOM     23  C   UNL     1       1.327   7.814  21.153  0.00  0.00    +0.000 C 
BRANCH  23  27
ATOM     24  C   UNL     1      -1.060  11.346  21.904  0.00  0.00    +0.000 A 
ATOM     25  C   UNL     1      -0.769  10.453  22.935  0.00  0.00    +0.000 A 
ATOM     26  C   UNL     1       0.007   9.315  22.696  0.00  0.00    +0.000 A 
ATOM     27  C   UNL     1       0.495   9.046  21.411  0.00  0.00    +0.000 A 
ATOM     28  C   UNL     1       0.178   9.933  20.373  0.00  0.00    +0.000 A 
ATOM     29  C   UNL     1      -0.593  11.077  20.617  0.00  0.00    +0.000 A 
BRANCH  24  31
ATOM     30  C   UNL     1      -1.266  13.315  23.201  0.00  0.00    +0.000 C 
ATOM     31  O   UNL     1      -1.837  12.412  22.261  0.00  0.00    +0.000 OA
ENDBRANCH  24  31
ENDBRANCH  23  27
ENDBRANCH  22  23
ENDBRANCH   1  22
TORSDOF 7
ENDMDL
MODEL 6
REMARK VINA RESULT:      -8.1      5.004      8.243
REMARK  Name = 
REMARK  12 active torsions:
REMARK  status: ('A' for Active; 'I' for Inactive)
REMARK    1  A    between atoms: C_1  and  O_2
REMARK    2  A    between atoms: O_2  and  C_3
REMARK    3  A    between atoms: C_6  and  C_7
REMARK    4  A    between atoms: C_7  and  S_8
REMARK    5  A    between atoms: S_8  and  C_9
REMARK    6  A    between atoms: C_11  and  C_12
REMARK    7  A    between atoms: C_12  and  C_14
REMARK    8  A    between atoms: C_17  and  C_18
REMARK    9  A    between atoms: C_18  and  C_19
REMARK   10  A    between atoms: C_18  and  C_20
REMARK   11  A    between atoms: C_18  and  C_21
REMARK   12  A    between atoms: C_24  and  C_25
REMARK                            x       y       z     vdW  Elec       q    Type
REMARK                         _______ _______ _______ _____ _____    ______ ____
ROOT
ATOM      1  C   UNL     1       1.539   8.301  20.338  0.00  0.00    +0.000 A 
ATOM      2  N   UNL     1       1.146   9.209  19.521  0.00  0.00    +0.000 NA
ATOM      3  C   UNL     1       0.452  10.282  20.043  0.00  0.00    +0.000 A 
ATOM      4  C   UNL     1       0.215  10.457  21.362  0.00  0.00    +0.000 A 
ATOM      5  C   UNL     1      -0.515  11.559  22.080  0.00  0.00    +0.000 C 
ATOM      6  C   UNL     1       0.752   9.407  22.270  0.00  0.00    +0.000 A 
ATOM      7  O   UNL     1       0.705   9.501  23.491  0.00  0.00    +0.000 OA
ATOM      8  N   UNL     1       1.328   8.337  21.671  0.00  0.00    +0.000 N 
ATOM      9  H   UNL     1       1.701   7.607  22.258  0.00  0.00    +0.000 HD
ENDROOT
BRANCH   3  10
ATOM     10  C   UNL     1      -0.068  11.290  19.034  0.00  0.00    +0.000 C 
ATOM     11  O   UNL     1      -0.932  11.015  18.205  0.00  0.00    +0.000 OA
BRANCH  10  12
ATOM     12  C   UNL     1       0.512  12.667  19.003  0.00  0.00    +0.000 A 
ATOM     13  C   UNL     1       1.899  12.785  18.894  0.00  0.00    +0.000 A 
ATOM     14  C   UNL     1       2.501  14.040  18.740  0.00  0.00    +0.000 A 
ATOM     15  C   UNL     1       1.738  15.218  18.677  0.00  0.00    +0.000 A 
ATOM     16  C   UNL     1       0.345  15.087  18.840  0.00  0.00    +0.000 A 
ATOM     17  C   UNL     1      -0.262  13.831  18.985  0.00  0.00    +0.000 A 
BRANCH  15  18
ATOM     18  C   UNL     1       2.370  16.589  18.367  0.00  0.00    +0.000 C 
ATOM     19  C   UNL     1       3.237  16.584  17.086  0.00  0.00    +0.000 C 
ATOM     20  C   UNL     1       1.250  17.632  18.151  0.00  0.00    +0.000 C 
ATOM     21  C   UNL     1       3.267  17.062  19.528  0.00  0.00    +0.000 C 
ENDBRANCH  15  18
ENDBRANCH  10  12
ENDBRANCH   3  10
BRANCH   1  22
ATOM     22  S   UNL     1       2.420   6.895  19.838  0.00  0.00    +0.000 S 
BRANCH  22  23
ATOM     23  C   UNL     1       2.890   7.413  18.162  0.00  0.00    +0.000 C 
BRANCH  23  27
ATOM     24  C   UNL     1       5.232   4.391  16.134  0.00  0.00    +0.000 A 
ATOM     25  C   UNL     1       5.407   5.742  15.837  0.00  0.00    +0.000 A 
ATOM     26  C   UNL     1       4.656   6.720  16.496  0.00  0.00    +0.000 A 
ATOM     27  C   UNL     1       3.704   6.356  17.457  0.00  0.00    +0.000 A 
ATOM     28  C   UNL     1       3.514   4.995  17.733  0.00  0.00    +0.000 A 
ATOM     29  C   UNL     1       4.274   4.018  17.077  0.00  0.00    +0.000 A 
BRANCH  24  31
ATOM     30  C   UNL     1       6.392   3.970  14.114  0.00  0.00    +0.000 C 
ATOM     31  O   UNL     1       6.016   3.532  15.414  0.00  0.00    +0.000 OA
ENDBRANCH  24  31
ENDBRANCH  23  27
ENDBRANCH  22  23
ENDBRANCH   1  22
TORSDOF 7
ENDMDL
MODEL 7
REMARK VINA RESULT:      -8.1      1.344      1.718
REMARK  Name = 
REMARK  12 active torsions:
REMARK  status: ('A' for Active; 'I' for Inactive)
REMARK    1  A    between atoms: C_1  and  O_2
REMARK    2  A    between atoms: O_2  and  C_3
REMARK    3  A    between atoms: C_6  and  C_7
REMARK    4  A    between atoms: C_7  and  S_8
REMARK    5  A    between atoms: S_8  and  C_9
REMARK    6  A    between atoms: C_11  and  C_12
REMARK    7  A    between atoms: C_12  and  C_14
REMARK    8  A    between atoms: C_17  and  C_18
REMARK    9  A    between atoms: C_18  and  C_19
REMARK   10  A    between atoms: C_18  and  C_20
REMARK   11  A    between atoms: C_18  and  C_21
REMARK   12  A    between atoms: C_24  and  C_25
REMARK                            x       y       z     vdW  Elec       q    Type
REMARK                         _______ _______ _______ _____ _____    ______ ____
ROOT
ATOM      1  C   UNL     1       6.577   5.972  18.160  0.00  0.00    +0.000 A 
ATOM      2  N   UNL     1       5.534   6.056  18.902  0.00  0.00    +0.000 NA
ATOM      3  C   UNL     1       4.434   5.302  18.545  0.00  0.00    +0.000 A 
ATOM      4  C   UNL     1       4.412   4.446  17.499  0.00  0.00    +0.000 A 
ATOM      5  C   UNL     1       3.307   3.564  16.987  0.00  0.00    +0.000 C 
ATOM      6  C   UNL     1       5.673   4.339  16.715  0.00  0.00    +0.000 A 
ATOM      7  O   UNL     1       5.825   3.521  15.815  0.00  0.00    +0.000 OA
ATOM      8  N   UNL     1       6.670   5.188  17.066  0.00  0.00    +0.000 N 
ATOM      9  H   UNL     1       7.536   5.141  16.553  0.00  0.00    +0.000 HD
ENDROOT
BRANCH   3  10
ATOM     10  C   UNL     1       3.192   5.494  19.398  0.00  0.00    +0.000 C 
ATOM     11  O   UNL     1       2.680   4.581  20.041  0.00  0.00    +0.000 OA
BRANCH  10  12
ATOM     12  C   UNL     1       2.526   6.830  19.439  0.00  0.00    +0.000 A 
ATOM     13  C   UNL     1       2.459   7.559  18.250  0.00  0.00    +0.000 A 
ATOM     14  C   UNL     1       1.746   8.762  18.185  0.00  0.00    +0.000 A 
ATOM     15  C   UNL     1       1.066   9.273  19.304  0.00  0.00    +0.000 A 
ATOM     16  C   UNL     1       1.186   8.554  20.509  0.00  0.00    +0.000 A 
ATOM     17  C   UNL     1       1.891   7.343  20.574  0.00  0.00    +0.000 A 
BRANCH  15  18
ATOM     18  C   UNL     1       0.163  10.519  19.216  0.00  0.00    +0.000 C 
ATOM     19  C   UNL     1      -0.550  10.849  20.548  0.00  0.00    +0.000 C 
ATOM     20  C   UNL     1       1.021  11.750  18.845  0.00  0.00    +0.000 C 
ATOM     21  C   UNL     1      -0.929  10.338  18.142  0.00  0.00    +0.000 C 
ENDBRANCH  15  18
ENDBRANCH  10  12
ENDBRANCH   3  10
BRANCH   1  22
ATOM     22  S   UNL     1       8.036   6.854  18.476  0.00  0.00    +0.000 S 
BRANCH  22  23
ATOM     23  C   UNL     1       7.685   8.365  17.533  0.00  0.00    +0.000 C 
BRANCH  23  27
ATOM     24  C   UNL     1       9.636  11.828  19.246  0.00  0.00    +0.000 A 
ATOM     25  C   UNL     1       8.942  11.929  18.040  0.00  0.00    +0.000 A 
ATOM     26  C   UNL     1       8.306  10.813  17.489  0.00  0.00    +0.000 A 
ATOM     27  C   UNL     1       8.367   9.570  18.133  0.00  0.00    +0.000 A 
ATOM     28  C   UNL     1       9.089   9.469  19.331  0.00  0.00    +0.000 A 
ATOM     29  C   UNL     1       9.718  10.592  19.885  0.00  0.00    +0.000 A 
BRANCH  24  31
ATOM     30  C   UNL     1       9.926  14.155  18.921  0.00  0.00    +0.000 C 
ATOM     31  O   UNL     1      10.225  12.986  19.674  0.00  0.00    +0.000 OA
ENDBRANCH  24  31
ENDBRANCH  23  27
ENDBRANCH  22  23
ENDBRANCH   1  22
TORSDOF 7
ENDMDL
MODEL 8
REMARK VINA RESULT:      -8.1      1.305      1.807
REMARK  Name = 
REMARK  12 active torsions:
REMARK  status: ('A' for Active; 'I' for Inactive)
REMARK    1  A    between atoms: C_1  and  O_2
REMARK    2  A    between atoms: O_2  and  C_3
REMARK    3  A    between atoms: C_6  and  C_7
REMARK    4  A    between atoms: C_7  and  S_8
REMARK    5  A    between atoms: S_8  and  C_9
REMARK    6  A    between atoms: C_11  and  C_12
REMARK    7  A    between atoms: C_12  and  C_14
REMARK    8  A    between atoms: C_17  and  C_18
REMARK    9  A    between atoms: C_18  and  C_19
REMARK   10  A    between atoms: C_18  and  C_20
REMARK   11  A    between atoms: C_18  and  C_21
REMARK   12  A    between atoms: C_24  and  C_25
REMARK                            x       y       z     vdW  Elec       q    Type
REMARK                         _______ _______ _______ _____ _____    ______ ____
ROOT
ATOM      1  C   UNL     1       6.679   6.068  18.138  0.00  0.00    +0.000 A 
ATOM      2  N   UNL     1       5.636   6.136  18.882  0.00  0.00    +0.000 NA
ATOM      3  C   UNL     1       4.556   5.347  18.542  0.00  0.00    +0.000 A 
ATOM      4  C   UNL     1       4.554   4.473  17.511  0.00  0.00    +0.000 A 
ATOM      5  C   UNL     1       3.472   3.553  17.018  0.00  0.00    +0.000 C 
ATOM      6  C   UNL     1       5.815   4.387  16.723  0.00  0.00    +0.000 A 
ATOM      7  O   UNL     1       5.986   3.559  15.837  0.00  0.00    +0.000 OA
ATOM      8  N   UNL     1       6.789   5.269  17.057  0.00  0.00    +0.000 N 
ATOM      9  H   UNL     1       7.655   5.237  16.541  0.00  0.00    +0.000 HD
ENDROOT
BRANCH   3  10
ATOM     10  C   UNL     1       3.313   5.519  19.397  0.00  0.00    +0.000 C 
ATOM     11  O   UNL     1       2.899   4.643  20.152  0.00  0.00    +0.000 OA
BRANCH  10  12
ATOM     12  C   UNL     1       2.521   6.783  19.300  0.00  0.00    +0.000 A 
ATOM     13  C   UNL     1       1.908   7.256  20.462  0.00  0.00    +0.000 A 
ATOM     14  C   UNL     1       1.252   8.492  20.473  0.00  0.00    +0.000 A 
ATOM     15  C   UNL     1       1.195   9.303  19.328  0.00  0.00    +0.000 A 
ATOM     16  C   UNL     1       1.772   8.790  18.150  0.00  0.00    +0.000 A 
ATOM     17  C   UNL     1       2.440   7.556  18.138  0.00  0.00    +0.000 A 
BRANCH  15  18
ATOM     18  C   UNL     1       0.601  10.726  19.358  0.00  0.00    +0.000 C 
ATOM     19  C   UNL     1       1.537  11.789  18.738  0.00  0.00    +0.000 C 
ATOM     20  C   UNL     1      -0.713  10.750  18.545  0.00  0.00    +0.000 C 
ATOM     21  C   UNL     1       0.294  11.168  20.804  0.00  0.00    +0.000 C 
ENDBRANCH  15  18
ENDBRANCH  10  12
ENDBRANCH   3  10
BRANCH   1  22
ATOM     22  S   UNL     1       8.114   6.995  18.434  0.00  0.00    +0.000 S 
BRANCH  22  23
ATOM     23  C   UNL     1       7.662   8.533  17.582  0.00  0.00    +0.000 C 
BRANCH  23  27
ATOM     24  C   UNL     1       9.718  11.963  19.236  0.00  0.00    +0.000 A 
ATOM     25  C   UNL     1       9.008  12.070  18.040  0.00  0.00    +0.000 A 
ATOM     26  C   UNL     1       8.338  10.965  17.508  0.00  0.00    +0.000 A 
ATOM     27  C   UNL     1       8.380   9.726  18.162  0.00  0.00    +0.000 A 
ATOM     28  C   UNL     1       9.118   9.618  19.349  0.00  0.00    +0.000 A 
ATOM     29  C   UNL     1       9.781  10.730  19.884  0.00  0.00    +0.000 A 
BRANCH  24  31
ATOM     30  C   UNL     1      10.080  14.274  18.871  0.00  0.00    +0.000 C 
ATOM     31  O   UNL     1      10.340  13.109  19.647  0.00  0.00    +0.000 OA
ENDBRANCH  24  31
ENDBRANCH  23  27
ENDBRANCH  22  23
ENDBRANCH   1  22
TORSDOF 7
ENDMDL
MODEL 9
REMARK VINA RESULT:      -8.1      5.104      8.458
REMARK  Name = 
REMARK  12 active torsions:
REMARK  status: ('A' for Active; 'I' for Inactive)
REMARK    1  A    between atoms: C_1  and  O_2
REMARK    2  A    between atoms: O_2  and  C_3
REMARK    3  A    between atoms: C_6  and  C_7
REMARK    4  A    between atoms: C_7  and  S_8
REMARK    5  A    between atoms: S_8  and  C_9
REMARK    6  A    between atoms: C_11  and  C_12
REMARK    7  A    between atoms: C_12  and  C_14
REMARK    8  A    between atoms: C_17  and  C_18
REMARK    9  A    between atoms: C_18  and  C_19
REMARK   10  A    between atoms: C_18  and  C_20
REMARK   11  A    between atoms: C_18  and  C_21
REMARK   12  A    between atoms: C_24  and  C_25
REMARK                            x       y       z     vdW  Elec       q    Type
REMARK                         _______ _______ _______ _____ _____    ______ ____
ROOT
ATOM      1  C   UNL     1       1.178   8.494  20.664  0.00  0.00    +0.000 A 
ATOM      2  N   UNL     1       0.807   9.420  19.858  0.00  0.00    +0.000 NA
ATOM      3  C   UNL     1       0.151  10.510  20.395  0.00  0.00    +0.000 A 
ATOM      4  C   UNL     1      -0.070  10.682  21.717  0.00  0.00    +0.000 A 
ATOM      5  C   UNL     1      -0.759  11.800  22.450  0.00  0.00    +0.000 C 
ATOM      6  C   UNL     1       0.442   9.608  22.612  0.00  0.00    +0.000 A 
ATOM      7  O   UNL     1       0.408   9.692  23.834  0.00  0.00    +0.000 OA
ATOM      8  N   UNL     1       0.980   8.525  21.999  0.00  0.00    +0.000 N 
ATOM      9  H   UNL     1       1.335   7.779  22.577  0.00  0.00    +0.000 HD
ENDROOT
BRANCH   3  10
ATOM     10  C   UNL     1      -0.346  11.543  19.398  0.00  0.00    +0.000 C 
ATOM     11  O   UNL     1       0.411  12.288  18.781  0.00  0.00    +0.000 OA
BRANCH  10  12
ATOM     12  C   UNL     1      -1.814  11.705  19.177  0.00  0.00    +0.000 A 
ATOM     13  C   UNL     1      -2.427  10.865  18.244  0.00  0.00    +0.000 A 
ATOM     14  C   UNL     1      -3.816  10.878  18.071  0.00  0.00    +0.000 A 
ATOM     15  C   UNL     1      -4.642  11.723  18.831  0.00  0.00    +0.000 A 
ATOM     16  C   UNL     1      -4.006  12.600  19.731  0.00  0.00    +0.000 A 
ATOM     17  C   UNL     1      -2.615  12.582  19.914  0.00  0.00    +0.000 A 
BRANCH  15  18
ATOM     18  C   UNL     1      -6.180  11.651  18.756  0.00  0.00    +0.000 C 
ATOM     19  C   UNL     1      -6.723  10.203  18.761  0.00  0.00    +0.000 C 
ATOM     20  C   UNL     1      -6.788  12.366  19.984  0.00  0.00    +0.000 C 
ATOM     21  C   UNL     1      -6.705  12.335  17.477  0.00  0.00    +0.000 C 
ENDBRANCH  15  18
ENDBRANCH  10  12
ENDBRANCH   3  10
BRANCH   1  22
ATOM     22  S   UNL     1       2.011   7.066  20.145  0.00  0.00    +0.000 S 
BRANCH  22  23
ATOM     23  C   UNL     1       2.509   7.594  18.481  0.00  0.00    +0.000 C 
BRANCH  23  27
ATOM     24  C   UNL     1       4.925   4.604  16.493  0.00  0.00    +0.000 A 
ATOM     25  C   UNL     1       5.251   5.957  16.398  0.00  0.00    +0.000 A 
ATOM     26  C   UNL     1       4.476   6.924  17.045  0.00  0.00    +0.000 A 
ATOM     27  C   UNL     1       3.349   6.549  17.789  0.00  0.00    +0.000 A 
ATOM     28  C   UNL     1       3.012   5.190  17.858  0.00  0.00    +0.000 A 
ATOM     29  C   UNL     1       3.796   4.223  17.216  0.00  0.00    +0.000 A 
BRANCH  24  31
ATOM     30  C   UNL     1       6.038   4.120  14.459  0.00  0.00    +0.000 C 
ATOM     31  O   UNL     1       5.753   3.759  15.806  0.00  0.00    +0.000 OA
ENDBRANCH  24  31
ENDBRANCH  23  27
ENDBRANCH  22  23
ENDBRANCH   1  22
TORSDOF 7
ENDMDL
