MODEL 1
REMARK VINA RESULT:      -8.6      0.000      0.000
REMARK  Name = 
REMARK  15 active torsions:
REMARK  status: ('A' for Active; 'I' for Inactive)
REMARK    1  A    between atoms: C_1  and  O_2
REMARK    2  A    between atoms: O_2  and  C_3
REMARK    3  A    between atoms: C_6  and  C_7
REMARK    4  A    between atoms: C_8  and  C_9
REMARK    5  A    between atoms: N_11  and  C_12
REMARK    6  A    between atoms: C_14  and  C_15
REMARK    7  A    between atoms: C_15  and  C_17
REMARK    8  A    between atoms: C_19  and  O_20
REMARK    9  A    between atoms: O_20  and  C_21
REMARK   10  A    between atoms: C_22  and  O_23
REMARK   11  A    between atoms: O_23  and  C_24
REMARK   12  A    between atoms: C_25  and  O_26
REMARK   13  A    between atoms: O_26  and  C_27
REMARK   14  A    between atoms: C_31  and  O_32
REMARK   15  A    between atoms: O_32  and  C_33
REMARK                            x       y       z     vdW  Elec       q    Type
REMARK                         _______ _______ _______ _____ _____    ______ ____
ROOT
ATOM      1  C   UNL     1       6.032   6.706  16.954  0.00  0.00    +0.000 A 
ATOM      2  C   UNL     1       4.845   6.750  17.713  0.00  0.00    +0.000 A 
ATOM      3  C   UNL     1       3.912   5.713  17.687  0.00  0.00    +0.000 A 
ATOM      4  C   UNL     1       4.110   4.632  16.831  0.00  0.00    +0.000 A 
ATOM      5  C   UNL     1       5.270   4.573  16.061  0.00  0.00    +0.000 A 
ATOM      6  C   UNL     1       6.242   5.586  16.122  0.00  0.00    +0.000 A 
ENDROOT
BRANCH   1   9
ATOM      7  C   UNL     1       7.923   7.981  17.945  0.00  0.00    +0.000 C 
ATOM      8  O   UNL     1       8.271   7.162  18.788  0.00  0.00    +0.000 OA
ATOM      9  N   UNL     1       6.934   7.805  16.998  0.00  0.00    +0.000 N 
ATOM     10  H   UNL     1       6.844   8.489  16.257  0.00  0.00    +0.000 HD
BRANCH   7  12
ATOM     11  C   UNL     1       9.124   9.831  18.970  0.00  0.00    +0.000 C 
ATOM     12  C   UNL     1       8.634   9.286  17.846  0.00  0.00    +0.000 C 
BRANCH  11  16
ATOM     13  C   UNL     1      11.145  13.601  19.166  0.00  0.00    +0.000 A 
ATOM     14  C   UNL     1      10.683  13.104  17.948  0.00  0.00    +0.000 A 
ATOM     15  C   UNL     1      10.037  11.859  17.891  0.00  0.00    +0.000 A 
ATOM     16  C   UNL     1       9.875  11.089  19.053  0.00  0.00    +0.000 A 
ATOM     17  C   UNL     1      10.358  11.593  20.264  0.00  0.00    +0.000 A 
ATOM     18  C   UNL     1      10.995  12.834  20.321  0.00  0.00    +0.000 A 
BRANCH  13  20
ATOM     19  C   UNL     1      11.221  15.801  20.013  0.00  0.00    +0.000 C 
ATOM     20  O   UNL     1      11.745  14.829  19.112  0.00  0.00    +0.000 OA
ENDBRANCH  13  20
ENDBRANCH  11  16
ENDBRANCH   7  12
ENDBRANCH   1   9
BRANCH   3  21
ATOM     21  C   UNL     1       2.724   5.804  18.573  0.00  0.00    +0.000 C 
ATOM     22  O   UNL     1       2.186   4.773  18.981  0.00  0.00    +0.000 OA
BRANCH  21  23
ATOM     23  C   UNL     1       2.184   7.129  18.988  0.00  0.00    +0.000 A 
ATOM     24  C   UNL     1       1.744   7.269  20.298  0.00  0.00    +0.000 A 
ATOM     25  C   UNL     1       1.307   8.509  20.770  0.00  0.00    +0.000 A 
ATOM     26  C   UNL     1       1.271   9.630  19.904  0.00  0.00    +0.000 A 
ATOM     27  C   UNL     1       1.657   9.470  18.553  0.00  0.00    +0.000 A 
ATOM     28  C   UNL     1       2.099   8.215  18.111  0.00  0.00    +0.000 A 
BRANCH  25  29
ATOM     29  O   UNL     1       0.895   8.686  22.075  0.00  0.00    +0.000 OA
ATOM     30  C   UNL     1      -0.506   8.519  22.300  0.00  0.00    +0.000 C 
ENDBRANCH  25  29
BRANCH  26  31
ATOM     31  O   UNL     1       0.782  10.792  20.458  0.00  0.00    +0.000 OA
ATOM     32  C   UNL     1      -0.510  11.237  20.056  0.00  0.00    +0.000 C 
ENDBRANCH  26  31
BRANCH  27  33
ATOM     33  O   UNL     1       1.557  10.546  17.712  0.00  0.00    +0.000 OA
ATOM     34  C   UNL     1       2.503  11.601  17.840  0.00  0.00    +0.000 C 
ENDBRANCH  27  33
ENDBRANCH  21  23
ENDBRANCH   3  21
BRANCH   6  35
ATOM     35  O   UNL     1       7.274   5.373  15.247  0.00  0.00    +0.000 OA
ATOM     36  C   UNL     1       6.995   4.728  14.014  0.00  0.00    +0.000 C 
ENDBRANCH   6  35
TORSDOF 10
ENDMDL
MODEL 2
REMARK VINA RESULT:      -8.5      0.567      2.112
REMARK  Name = 
REMARK  15 active torsions:
REMARK  status: ('A' for Active; 'I' for Inactive)
REMARK    1  A    between atoms: C_1  and  O_2
REMARK    2  A    between atoms: O_2  and  C_3
REMARK    3  A    between atoms: C_6  and  C_7
REMARK    4  A    between atoms: C_8  and  C_9
REMARK    5  A    between atoms: N_11  and  C_12
REMARK    6  A    between atoms: C_14  and  C_15
REMARK    7  A    between atoms: C_15  and  C_17
REMARK    8  A    between atoms: C_19  and  O_20
REMARK    9  A    between atoms: O_20  and  C_21
REMARK   10  A    between atoms: C_22  and  O_23
REMARK   11  A    between atoms: O_23  and  C_24
REMARK   12  A    between atoms: C_25  and  O_26
REMARK   13  A    between atoms: O_26  and  C_27
REMARK   14  A    between atoms: C_31  and  O_32
REMARK   15  A    between atoms: O_32  and  C_33
REMARK                            x       y       z     vdW  Elec       q    Type
REMARK                         _______ _______ _______ _____ _____    ______ ____
ROOT
ATOM      1  C   UNL     1       5.848   6.712  17.117  0.00  0.00    +0.000 A 
ATOM      2  C   UNL     1       4.760   6.753  18.012  0.00  0.00    +0.000 A 
ATOM      3  C   UNL     1       3.784   5.756  18.037  0.00  0.00    +0.000 A 
ATOM      4  C   UNL     1       3.831   4.725  17.101  0.00  0.00    +0.000 A 
ATOM      5  C   UNL     1       4.890   4.671  16.197  0.00  0.00    +0.000 A 
ATOM      6  C   UNL     1       5.908   5.639  16.202  0.00  0.00    +0.000 A 
ENDROOT
BRANCH   1   9
ATOM      7  C   UNL     1       7.863   7.877  17.988  0.00  0.00    +0.000 C 
ATOM      8  O   UNL     1       8.239   7.020  18.780  0.00  0.00    +0.000 OA
ATOM      9  N   UNL     1       6.798   7.770  17.118  0.00  0.00    +0.000 N 
ATOM     10  H   UNL     1       6.681   8.478  16.404  0.00  0.00    +0.000 HD
BRANCH   7  12
ATOM     11  C   UNL     1       9.073   9.735  18.988  0.00  0.00    +0.000 C 
ATOM     12  C   UNL     1       8.622   9.153  17.866  0.00  0.00    +0.000 C 
BRANCH  11  16
ATOM     13  C   UNL     1      11.210  13.444  19.103  0.00  0.00    +0.000 A 
ATOM     14  C   UNL     1      10.865  12.859  17.885  0.00  0.00    +0.000 A 
ATOM     15  C   UNL     1      10.181  11.634  17.858  0.00  0.00    +0.000 A 
ATOM     16  C   UNL     1       9.859  10.973  19.053  0.00  0.00    +0.000 A 
ATOM     17  C   UNL     1      10.226  11.563  20.265  0.00  0.00    +0.000 A 
ATOM     18  C   UNL     1      10.902  12.785  20.292  0.00  0.00    +0.000 A 
BRANCH  13  20
ATOM     19  C   UNL     1      11.088  15.719  18.491  0.00  0.00    +0.000 C 
ATOM     20  O   UNL     1      11.861  14.644  19.017  0.00  0.00    +0.000 OA
ENDBRANCH  13  20
ENDBRANCH  11  16
ENDBRANCH   7  12
ENDBRANCH   1   9
BRANCH   3  21
ATOM     21  C   UNL     1       2.712   5.836  19.062  0.00  0.00    +0.000 C 
ATOM     22  O   UNL     1       2.292   4.804  19.588  0.00  0.00    +0.000 OA
BRANCH  21  23
ATOM     23  C   UNL     1       2.150   7.153  19.473  0.00  0.00    +0.000 A 
ATOM     24  C   UNL     1       2.026   8.138  18.502  0.00  0.00    +0.000 A 
ATOM     25  C   UNL     1       1.428   9.363  18.806  0.00  0.00    +0.000 A 
ATOM     26  C   UNL     1       0.977   9.630  20.123  0.00  0.00    +0.000 A 
ATOM     27  C   UNL     1       1.164   8.651  21.126  0.00  0.00    +0.000 A 
ATOM     28  C   UNL     1       1.759   7.428  20.788  0.00  0.00    +0.000 A 
BRANCH  25  29
ATOM     29  O   UNL     1       1.262  10.348  17.854  0.00  0.00    +0.000 OA
ATOM     30  C   UNL     1       2.367  11.239  17.699  0.00  0.00    +0.000 C 
ENDBRANCH  25  29
BRANCH  26  31
ATOM     31  O   UNL     1       0.445  10.883  20.325  0.00  0.00    +0.000 OA
ATOM     32  C   UNL     1       1.258  11.865  20.961  0.00  0.00    +0.000 C 
ENDBRANCH  26  31
BRANCH  27  33
ATOM     33  O   UNL     1       0.781   8.946  22.408  0.00  0.00    +0.000 OA
ATOM     34  C   UNL     1      -0.607   9.057  22.695  0.00  0.00    +0.000 C 
ENDBRANCH  27  33
ENDBRANCH  21  23
ENDBRANCH   3  21
BRANCH   6  35
ATOM     35  O   UNL     1       6.820   5.443  15.199  0.00  0.00    +0.000 OA
ATOM     36  C   UNL     1       6.649   4.331  14.335  0.00  0.00    +0.000 C 
ENDBRANCH   6  35
TORSDOF 10
ENDMDL
MODEL 3
REMARK VINA RESULT:      -8.5      1.469      2.252
REMARK  Name = 
REMARK  15 active torsions:
REMARK  status: ('A' for Active; 'I' for Inactive)
REMARK    1  A    between atoms: C_1  and  O_2
REMARK    2  A    between atoms: O_2  and  C_3
REMARK    3  A    between atoms: C_6  and  C_7
REMARK    4  A    between atoms: C_8  and  C_9
REMARK    5  A    between atoms: N_11  and  C_12
REMARK    6  A    between atoms: C_14  and  C_15
REMARK    7  A    between atoms: C_15  and  C_17
REMARK    8  A    between atoms: C_19  and  O_20
REMARK    9  A    between atoms: O_20  and  C_21
REMARK   10  A    between atoms: C_22  and  O_23
REMARK   11  A    between atoms: O_23  and  C_24
REMARK   12  A    between atoms: C_25  and  O_26
REMARK   13  A    between atoms: O_26  and  C_27
REMARK   14  A    between atoms: C_31  and  O_32
REMARK   15  A    between atoms: O_32  and  C_33
REMARK                            x       y       z     vdW  Elec       q    Type
REMARK                         _______ _______ _______ _____ _____    ______ ____
ROOT
ATOM      1  C   UNL     1       6.528   6.084  16.110  0.00  0.00    +0.000 A 
ATOM      2  C   UNL     1       5.319   5.703  16.727  0.00  0.00    +0.000 A 
ATOM      3  C   UNL     1       4.642   4.536  16.371  0.00  0.00    +0.000 A 
ATOM      4  C   UNL     1       5.123   3.756  15.321  0.00  0.00    +0.000 A 
ATOM      5  C   UNL     1       6.308   4.121  14.686  0.00  0.00    +0.000 A 
ATOM      6  C   UNL     1       7.027   5.264  15.077  0.00  0.00    +0.000 A 
ENDROOT
BRANCH   1   9
ATOM      7  C   UNL     1       7.701   7.549  17.740  0.00  0.00    +0.000 C 
ATOM      8  O   UNL     1       7.856   6.732  18.640  0.00  0.00    +0.000 OA
ATOM      9  N   UNL     1       7.159   7.298  16.495  0.00  0.00    +0.000 N 
ATOM     10  H   UNL     1       7.228   8.014  15.782  0.00  0.00    +0.000 HD
BRANCH   7  12
ATOM     11  C   UNL     1       8.961   9.221  18.979  0.00  0.00    +0.000 C 
ATOM     12  C   UNL     1       8.175   8.949  17.925  0.00  0.00    +0.000 C 
BRANCH  11  16
ATOM     13  C   UNL     1      10.506  13.129  19.800  0.00  0.00    +0.000 A 
ATOM     14  C   UNL     1      10.555  12.601  18.511  0.00  0.00    +0.000 A 
ATOM     15  C   UNL     1      10.062  11.313  18.255  0.00  0.00    +0.000 A 
ATOM     16  C   UNL     1       9.541  10.531  19.297  0.00  0.00    +0.000 A 
ATOM     17  C   UNL     1       9.514  11.067  20.587  0.00  0.00    +0.000 A 
ATOM     18  C   UNL     1       9.999  12.352  20.841  0.00  0.00    +0.000 A 
BRANCH  13  20
ATOM     19  C   UNL     1      11.441  15.013  18.730  0.00  0.00    +0.000 C 
ATOM     20  O   UNL     1      10.998  14.398  19.937  0.00  0.00    +0.000 OA
ENDBRANCH  13  20
ENDBRANCH  11  16
ENDBRANCH   7  12
ENDBRANCH   1   9
BRANCH   3  21
ATOM     21  C   UNL     1       3.414   4.169  17.122  0.00  0.00    +0.000 C 
ATOM     22  O   UNL     1       2.838   3.110  16.868  0.00  0.00    +0.000 OA
BRANCH  21  23
ATOM     23  C   UNL     1       2.882   5.059  18.191  0.00  0.00    +0.000 A 
ATOM     24  C   UNL     1       2.520   4.477  19.399  0.00  0.00    +0.000 A 
ATOM     25  C   UNL     1       2.094   5.270  20.468  0.00  0.00    +0.000 A 
ATOM     26  C   UNL     1       1.990   6.675  20.318  0.00  0.00    +0.000 A 
ATOM     27  C   UNL     1       2.297   7.258  19.067  0.00  0.00    +0.000 A 
ATOM     28  C   UNL     1       2.729   6.438  18.016  0.00  0.00    +0.000 A 
BRANCH  25  29
ATOM     29  O   UNL     1       1.759   4.723  21.690  0.00  0.00    +0.000 OA
ATOM     30  C   UNL     1       2.046   3.332  21.835  0.00  0.00    +0.000 C 
ENDBRANCH  25  29
BRANCH  26  31
ATOM     31  O   UNL     1       1.519   7.355  21.418  0.00  0.00    +0.000 OA
ATOM     32  C   UNL     1       0.279   8.045  21.302  0.00  0.00    +0.000 C 
ENDBRANCH  26  31
BRANCH  27  33
ATOM     33  O   UNL     1       2.131   8.610  18.917  0.00  0.00    +0.000 OA
ATOM     34  C   UNL     1       1.477   9.090  17.748  0.00  0.00    +0.000 C 
ENDBRANCH  27  33
ENDBRANCH  21  23
ENDBRANCH   3  21
BRANCH   6  35
ATOM     35  O   UNL     1       8.129   5.481  14.291  0.00  0.00    +0.000 OA
ATOM     36  C   UNL     1       7.984   5.398  12.882  0.00  0.00    +0.000 C 
ENDBRANCH   6  35
TORSDOF 10
ENDMDL
MODEL 4
REMARK VINA RESULT:      -8.2      0.826      2.299
REMARK  Name = 
REMARK  15 active torsions:
REMARK  status: ('A' for Active; 'I' for Inactive)
REMARK    1  A    between atoms: C_1  and  O_2
REMARK    2  A    between atoms: O_2  and  C_3
REMARK    3  A    between atoms: C_6  and  C_7
REMARK    4  A    between atoms: C_8  and  C_9
REMARK    5  A    between atoms: N_11  and  C_12
REMARK    6  A    between atoms: C_14  and  C_15
REMARK    7  A    between atoms: C_15  and  C_17
REMARK    8  A    between atoms: C_19  and  O_20
REMARK    9  A    between atoms: O_20  and  C_21
REMARK   10  A    between atoms: C_22  and  O_23
REMARK   11  A    between atoms: O_23  and  C_24
REMARK   12  A    between atoms: C_25  and  O_26
REMARK   13  A    between atoms: O_26  and  C_27
REMARK   14  A    between atoms: C_31  and  O_32
REMARK   15  A    between atoms: O_32  and  C_33
REMARK                            x       y       z     vdW  Elec       q    Type
REMARK                         _______ _______ _______ _____ _____    ______ ____
ROOT
ATOM      1  C   UNL     1       6.082   6.442  17.139  0.00  0.00    +0.000 A 
ATOM      2  C   UNL     1       4.824   6.544  17.766  0.00  0.00    +0.000 A 
ATOM      3  C   UNL     1       3.820   5.595  17.570  0.00  0.00    +0.000 A 
ATOM      4  C   UNL     1       4.027   4.552  16.669  0.00  0.00    +0.000 A 
ATOM      5  C   UNL     1       5.259   4.439  16.027  0.00  0.00    +0.000 A 
ATOM      6  C   UNL     1       6.296   5.358  16.261  0.00  0.00    +0.000 A 
ENDROOT
BRANCH   1   9
ATOM      7  C   UNL     1       8.004   7.441  18.359  0.00  0.00    +0.000 C 
ATOM      8  O   UNL     1       8.247   6.506  19.113  0.00  0.00    +0.000 OA
ATOM      9  N   UNL     1       7.058   7.455  17.354  0.00  0.00    +0.000 N 
ATOM     10  H   UNL     1       7.057   8.225  16.697  0.00  0.00    +0.000 HD
BRANCH   7  12
ATOM     11  C   UNL     1       8.308   9.813  17.916  0.00  0.00    +0.000 C 
ATOM     12  C   UNL     1       8.813   8.689  18.448  0.00  0.00    +0.000 C 
BRANCH  11  16
ATOM     13  C   UNL     1      10.281  13.612  17.817  0.00  0.00    +0.000 A 
ATOM     14  C   UNL     1      10.995  12.447  18.089  0.00  0.00    +0.000 A 
ATOM     15  C   UNL     1      10.337  11.209  18.137  0.00  0.00    +0.000 A 
ATOM     16  C   UNL     1       8.950  11.133  17.939  0.00  0.00    +0.000 A 
ATOM     17  C   UNL     1       8.245  12.312  17.684  0.00  0.00    +0.000 A 
ATOM     18  C   UNL     1       8.901  13.544  17.630  0.00  0.00    +0.000 A 
BRANCH  13  20
ATOM     19  C   UNL     1      10.538  15.825  18.595  0.00  0.00    +0.000 C 
ATOM     20  O   UNL     1      11.021  14.762  17.778  0.00  0.00    +0.000 OA
ENDBRANCH  13  20
ENDBRANCH  11  16
ENDBRANCH   7  12
ENDBRANCH   1   9
BRANCH   3  21
ATOM     21  C   UNL     1       2.550   5.737  18.326  0.00  0.00    +0.000 C 
ATOM     22  O   UNL     1       1.842   4.747  18.521  0.00  0.00    +0.000 OA
BRANCH  21  23
ATOM     23  C   UNL     1       2.131   7.060  18.867  0.00  0.00    +0.000 A 
ATOM     24  C   UNL     1       2.096   8.137  17.991  0.00  0.00    +0.000 A 
ATOM     25  C   UNL     1       1.631   9.384  18.418  0.00  0.00    +0.000 A 
ATOM     26  C   UNL     1       1.225   9.571  19.763  0.00  0.00    +0.000 A 
ATOM     27  C   UNL     1       1.323   8.491  20.669  0.00  0.00    +0.000 A 
ATOM     28  C   UNL     1       1.785   7.250  20.209  0.00  0.00    +0.000 A 
BRANCH  25  29
ATOM     29  O   UNL     1       1.555  10.463  17.563  0.00  0.00    +0.000 OA
ATOM     30  C   UNL     1       2.545  11.473  17.764  0.00  0.00    +0.000 C 
ENDBRANCH  25  29
BRANCH  26  31
ATOM     31  O   UNL     1       0.826  10.848  20.088  0.00  0.00    +0.000 OA
ATOM     32  C   UNL     1      -0.550  11.182  19.935  0.00  0.00    +0.000 C 
ENDBRANCH  26  31
BRANCH  27  33
ATOM     33  O   UNL     1       0.987   8.704  21.980  0.00  0.00    +0.000 OA
ATOM     34  C   UNL     1      -0.385   8.634  22.352  0.00  0.00    +0.000 C 
ENDBRANCH  27  33
ENDBRANCH  21  23
ENDBRANCH   3  21
BRANCH   6  35
ATOM     35  O   UNL     1       7.400   5.108  15.490  0.00  0.00    +0.000 OA
ATOM     36  C   UNL     1       7.226   4.939  14.092  0.00  0.00    +0.000 C 
ENDBRANCH   6  35
TORSDOF 10
ENDMDL
MODEL 5
REMARK VINA RESULT:      -8.1      1.349      2.442
REMARK  Name = 
REMARK  15 active torsions:
REMARK  status: ('A' for Active; 'I' for Inactive)
REMARK    1  A    between atoms: C_1  and  O_2
REMARK    2  A    between atoms: O_2  and  C_3
REMARK    3  A    between atoms: C_6  and  C_7
REMARK    4  A    between atoms: C_8  and  C_9
REMARK    5  A    between atoms: N_11  and  C_12
REMARK    6  A    between atoms: C_14  and  C_15
REMARK    7  A    between atoms: C_15  and  C_17
REMARK    8  A    between atoms: C_19  and  O_20
REMARK    9  A    between atoms: O_20  and  C_21
REMARK   10  A    between atoms: C_22  and  O_23
REMARK   11  A    between atoms: O_23  and  C_24
REMARK   12  A    between atoms: C_25  and  O_26
REMARK   13  A    between atoms: O_26  and  C_27
REMARK   14  A    between atoms: C_31  and  O_32
REMARK   15  A    between atoms: O_32  and  C_33
REMARK                            x       y       z     vdW  Elec       q    Type
REMARK                         _______ _______ _______ _____ _____    ______ ____
ROOT
ATOM      1  C   UNL     1       5.291   6.564  17.369  0.00  0.00    +0.000 A 
ATOM      2  C   UNL     1       4.355   6.779  18.401  0.00  0.00    +0.000 A 
ATOM      3  C   UNL     1       3.299   5.898  18.637  0.00  0.00    +0.000 A 
ATOM      4  C   UNL     1       3.106   4.813  17.785  0.00  0.00    +0.000 A 
ATOM      5  C   UNL     1       4.011   4.588  16.750  0.00  0.00    +0.000 A 
ATOM      6  C   UNL     1       5.110   5.438  16.539  0.00  0.00    +0.000 A 
ENDROOT
BRANCH   1   9
ATOM      7  C   UNL     1       7.553   7.502  17.800  0.00  0.00    +0.000 C 
ATOM      8  O   UNL     1       7.983   6.612  18.525  0.00  0.00    +0.000 OA
ATOM      9  N   UNL     1       6.331   7.511  17.157  0.00  0.00    +0.000 N 
ATOM     10  H   UNL     1       6.153   8.225  16.462  0.00  0.00    +0.000 HD
BRANCH   7  12
ATOM     11  C   UNL     1       8.253   9.787  18.251  0.00  0.00    +0.000 C 
ATOM     12  C   UNL     1       8.406   8.685  17.499  0.00  0.00    +0.000 C 
BRANCH  11  16
ATOM     13  C   UNL     1      10.611  13.320  17.710  0.00  0.00    +0.000 A 
ATOM     14  C   UNL     1      11.183  12.153  18.214  0.00  0.00    +0.000 A 
ATOM     15  C   UNL     1      10.398  11.006  18.405  0.00  0.00    +0.000 A 
ATOM     16  C   UNL     1       9.025  11.028  18.116  0.00  0.00    +0.000 A 
ATOM     17  C   UNL     1       8.462  12.209  17.626  0.00  0.00    +0.000 A 
ATOM     18  C   UNL     1       9.245  13.349  17.431  0.00  0.00    +0.000 A 
BRANCH  13  20
ATOM     19  C   UNL     1      10.865  15.581  17.087  0.00  0.00    +0.000 C 
ATOM     20  O   UNL     1      11.467  14.375  17.548  0.00  0.00    +0.000 OA
ENDBRANCH  13  20
ENDBRANCH  11  16
ENDBRANCH   7  12
ENDBRANCH   1   9
BRANCH   3  21
ATOM     21  C   UNL     1       2.401   6.159  19.791  0.00  0.00    +0.000 C 
ATOM     22  O   UNL     1       2.116   5.240  20.561  0.00  0.00    +0.000 OA
BRANCH  21  23
ATOM     23  C   UNL     1       1.854   7.522  20.038  0.00  0.00    +0.000 A 
ATOM     24  C   UNL     1       1.505   8.290  18.935  0.00  0.00    +0.000 A 
ATOM     25  C   UNL     1       0.909   9.543  19.102  0.00  0.00    +0.000 A 
ATOM     26  C   UNL     1       0.690  10.060  20.404  0.00  0.00    +0.000 A 
ATOM     27  C   UNL     1       1.106   9.305  21.524  0.00  0.00    +0.000 A 
ATOM     28  C   UNL     1       1.694   8.048  21.324  0.00  0.00    +0.000 A 
BRANCH  25  29
ATOM     29  O   UNL     1       0.522  10.314  18.026  0.00  0.00    +0.000 OA
ATOM     30  C   UNL     1      -0.794  10.057  17.533  0.00  0.00    +0.000 C 
ENDBRANCH  25  29
BRANCH  26  31
ATOM     31  O   UNL     1       0.137  11.320  20.455  0.00  0.00    +0.000 OA
ATOM     32  C   UNL     1       1.014  12.434  20.587  0.00  0.00    +0.000 C 
ENDBRANCH  26  31
BRANCH  27  33
ATOM     33  O   UNL     1       0.946   9.844  22.773  0.00  0.00    +0.000 OA
ATOM     34  C   UNL     1      -0.308   9.689  23.426  0.00  0.00    +0.000 C 
ENDBRANCH  27  33
ENDBRANCH  21  23
ENDBRANCH   3  21
BRANCH   6  35
ATOM     35  O   UNL     1       5.842   5.081  15.437  0.00  0.00    +0.000 OA
ATOM     36  C   UNL     1       6.311   3.746  15.338  0.00  0.00    +0.000 C 
ENDBRANCH   6  35
TORSDOF 10
ENDMDL
MODEL 6
REMARK VINA RESULT:      -8.1      1.836      3.502
REMARK  Name = 
REMARK  15 active torsions:
REMARK  status: ('A' for Active; 'I' for Inactive)
REMARK    1  A    between atoms: C_1  and  O_2
REMARK    2  A    between atoms: O_2  and  C_3
REMARK    3  A    between atoms: C_6  and  C_7
REMARK    4  A    between atoms: C_8  and  C_9
REMARK    5  A    between atoms: N_11  and  C_12
REMARK    6  A    between atoms: C_14  and  C_15
REMARK    7  A    between atoms: C_15  and  C_17
REMARK    8  A    between atoms: C_19  and  O_20
REMARK    9  A    between atoms: O_20  and  C_21
REMARK   10  A    between atoms: C_22  and  O_23
REMARK   11  A    between atoms: O_23  and  C_24
REMARK   12  A    between atoms: C_25  and  O_26
REMARK   13  A    between atoms: O_26  and  C_27
REMARK   14  A    between atoms: C_31  and  O_32
REMARK   15  A    between atoms: O_32  and  C_33
REMARK                            x       y       z     vdW  Elec       q    Type
REMARK                         _______ _______ _______ _____ _____    ______ ____
ROOT
ATOM      1  C   UNL     1       6.958   5.632  16.241  0.00  0.00    +0.000 A 
ATOM      2  C   UNL     1       5.891   5.057  16.959  0.00  0.00    +0.000 A 
ATOM      3  C   UNL     1       5.093   4.048  16.417  0.00  0.00    +0.000 A 
ATOM      4  C   UNL     1       5.297   3.645  15.099  0.00  0.00    +0.000 A 
ATOM      5  C   UNL     1       6.337   4.210  14.365  0.00  0.00    +0.000 A 
ATOM      6  C   UNL     1       7.182   5.186  14.922  0.00  0.00    +0.000 A 
ENDROOT
BRANCH   1   9
ATOM      7  C   UNL     1       7.872   6.873  18.192  0.00  0.00    +0.000 C 
ATOM      8  O   UNL     1       7.507   6.110  19.079  0.00  0.00    +0.000 OA
ATOM      9  N   UNL     1       7.721   6.676  16.834  0.00  0.00    +0.000 N 
ATOM     10  H   UNL     1       8.201   7.299  16.197  0.00  0.00    +0.000 HD
BRANCH   7  12
ATOM     11  C   UNL     1       8.184   9.279  18.014  0.00  0.00    +0.000 C 
ATOM     12  C   UNL     1       8.604   8.121  18.547  0.00  0.00    +0.000 C 
BRANCH  11  16
ATOM     13  C   UNL     1      10.053  13.068  18.709  0.00  0.00    +0.000 A 
ATOM     14  C   UNL     1      10.405  11.951  19.465  0.00  0.00    +0.000 A 
ATOM     15  C   UNL     1       9.774  10.718  19.242  0.00  0.00    +0.000 A 
ATOM     16  C   UNL     1       8.764  10.601  18.275  0.00  0.00    +0.000 A 
ATOM     17  C   UNL     1       8.410  11.733  17.536  0.00  0.00    +0.000 A 
ATOM     18  C   UNL     1       9.042  12.959  17.754  0.00  0.00    +0.000 A 
BRANCH  13  20
ATOM     19  C   UNL     1      10.226  15.399  18.390  0.00  0.00    +0.000 C 
ATOM     20  O   UNL     1      10.740  14.216  18.995  0.00  0.00    +0.000 OA
ENDBRANCH  13  20
ENDBRANCH  11  16
ENDBRANCH   7  12
ENDBRANCH   1   9
BRANCH   3  21
ATOM     21  C   UNL     1       4.036   3.443  17.268  0.00  0.00    +0.000 C 
ATOM     22  O   UNL     1       3.768   2.247  17.149  0.00  0.00    +0.000 OA
BRANCH  21  23
ATOM     23  C   UNL     1       3.309   4.264  18.276  0.00  0.00    +0.000 A 
ATOM     24  C   UNL     1       3.021   5.584  17.952  0.00  0.00    +0.000 A 
ATOM     25  C   UNL     1       2.267   6.378  18.820  0.00  0.00    +0.000 A 
ATOM     26  C   UNL     1       1.822   5.856  20.061  0.00  0.00    +0.000 A 
ATOM     27  C   UNL     1       2.173   4.534  20.417  0.00  0.00    +0.000 A 
ATOM     28  C   UNL     1       2.923   3.759  19.522  0.00  0.00    +0.000 A 
BRANCH  25  29
ATOM     29  O   UNL     1       1.938   7.682  18.511  0.00  0.00    +0.000 OA
ATOM     30  C   UNL     1       2.865   8.361  17.664  0.00  0.00    +0.000 C 
ENDBRANCH  25  29
BRANCH  26  31
ATOM     31  O   UNL     1       1.127   6.737  20.858  0.00  0.00    +0.000 OA
ATOM     32  C   UNL     1       1.810   7.889  21.343  0.00  0.00    +0.000 C 
ENDBRANCH  26  31
BRANCH  27  33
ATOM     33  O   UNL     1       1.790   4.064  21.646  0.00  0.00    +0.000 OA
ATOM     34  C   UNL     1       1.910   2.671  21.909  0.00  0.00    +0.000 C 
ENDBRANCH  27  33
ENDBRANCH  21  23
ENDBRANCH   3  21
BRANCH   6  35
ATOM     35  O   UNL     1       8.101   5.657  14.021  0.00  0.00    +0.000 OA
ATOM     36  C   UNL     1       7.933   5.333  12.650  0.00  0.00    +0.000 C 
ENDBRANCH   6  35
TORSDOF 10
ENDMDL
MODEL 7
REMARK VINA RESULT:      -7.9      1.635      2.665
REMARK  Name = 
REMARK  15 active torsions:
REMARK  status: ('A' for Active; 'I' for Inactive)
REMARK    1  A    between atoms: C_1  and  O_2
REMARK    2  A    between atoms: O_2  and  C_3
REMARK    3  A    between atoms: C_6  and  C_7
REMARK    4  A    between atoms: C_8  and  C_9
REMARK    5  A    between atoms: N_11  and  C_12
REMARK    6  A    between atoms: C_14  and  C_15
REMARK    7  A    between atoms: C_15  and  C_17
REMARK    8  A    between atoms: C_19  and  O_20
REMARK    9  A    between atoms: O_20  and  C_21
REMARK   10  A    between atoms: C_22  and  O_23
REMARK   11  A    between atoms: O_23  and  C_24
REMARK   12  A    between atoms: C_25  and  O_26
REMARK   13  A    between atoms: O_26  and  C_27
REMARK   14  A    between atoms: C_31  and  O_32
REMARK   15  A    between atoms: O_32  and  C_33
REMARK                            x       y       z     vdW  Elec       q    Type
REMARK                         _______ _______ _______ _____ _____    ______ ____
ROOT
ATOM      1  C   UNL     1       6.860   5.588  16.169  0.00  0.00    +0.000 A 
ATOM      2  C   UNL     1       5.649   5.188  16.769  0.00  0.00    +0.000 A 
ATOM      3  C   UNL     1       4.777   4.292  16.150  0.00  0.00    +0.000 A 
ATOM      4  C   UNL     1       5.061   3.833  14.865  0.00  0.00    +0.000 A 
ATOM      5  C   UNL     1       6.246   4.226  14.246  0.00  0.00    +0.000 A 
ATOM      6  C   UNL     1       7.158   5.084  14.885  0.00  0.00    +0.000 A 
ENDROOT
BRANCH   1   9
ATOM      7  C   UNL     1       7.251   7.641  17.516  0.00  0.00    +0.000 C 
ATOM      8  O   UNL     1       6.085   7.911  17.777  0.00  0.00    +0.000 OA
ATOM      9  N   UNL     1       7.697   6.525  16.835  0.00  0.00    +0.000 N 
ATOM     10  H   UNL     1       8.690   6.332  16.818  0.00  0.00    +0.000 HD
BRANCH   7  12
ATOM     11  C   UNL     1       8.139   9.858  17.977  0.00  0.00    +0.000 C 
ATOM     12  C   UNL     1       8.342   8.532  18.001  0.00  0.00    +0.000 C 
BRANCH  11  16
ATOM     13  C   UNL     1      11.051  12.694  19.322  0.00  0.00    +0.000 A 
ATOM     14  C   UNL     1      10.695  11.607  20.119  0.00  0.00    +0.000 A 
ATOM     15  C   UNL     1       9.727  10.693  19.677  0.00  0.00    +0.000 A 
ATOM     16  C   UNL     1       9.087  10.877  18.443  0.00  0.00    +0.000 A 
ATOM     17  C   UNL     1       9.442  11.980  17.662  0.00  0.00    +0.000 A 
ATOM     18  C   UNL     1      10.410  12.887  18.099  0.00  0.00    +0.000 A 
BRANCH  13  20
ATOM     19  C   UNL     1      11.759  14.910  19.712  0.00  0.00    +0.000 C 
ATOM     20  O   UNL     1      12.016  13.515  19.839  0.00  0.00    +0.000 OA
ENDBRANCH  13  20
ENDBRANCH  11  16
ENDBRANCH   7  12
ENDBRANCH   1   9
BRANCH   3  21
ATOM     21  C   UNL     1       3.558   3.864  16.884  0.00  0.00    +0.000 C 
ATOM     22  O   UNL     1       3.029   2.785  16.610  0.00  0.00    +0.000 OA
BRANCH  21  23
ATOM     23  C   UNL     1       2.978   4.718  17.958  0.00  0.00    +0.000 A 
ATOM     24  C   UNL     1       2.392   4.083  19.045  0.00  0.00    +0.000 A 
ATOM     25  C   UNL     1       1.907   4.827  20.124  0.00  0.00    +0.000 A 
ATOM     26  C   UNL     1       1.973   6.243  20.101  0.00  0.00    +0.000 A 
ATOM     27  C   UNL     1       2.511   6.889  18.965  0.00  0.00    +0.000 A 
ATOM     28  C   UNL     1       2.997   6.115  17.902  0.00  0.00    +0.000 A 
BRANCH  25  29
ATOM     29  O   UNL     1       1.349   4.223  21.231  0.00  0.00    +0.000 OA
ATOM     30  C   UNL     1       2.189   3.281  21.901  0.00  0.00    +0.000 C 
ENDBRANCH  25  29
BRANCH  26  31
ATOM     31  O   UNL     1       1.428   6.878  21.194  0.00  0.00    +0.000 OA
ATOM     32  C   UNL     1       0.385   7.823  20.971  0.00  0.00    +0.000 C 
ENDBRANCH  26  31
BRANCH  27  33
ATOM     33  O   UNL     1       2.511   8.258  18.930  0.00  0.00    +0.000 OA
ATOM     34  C   UNL     1       2.018   8.909  17.764  0.00  0.00    +0.000 C 
ENDBRANCH  27  33
ENDBRANCH  21  23
ENDBRANCH   3  21
BRANCH   6  35
ATOM     35  O   UNL     1       8.227   5.397  14.088  0.00  0.00    +0.000 OA
ATOM     36  C   UNL     1       8.035   5.440  12.683  0.00  0.00    +0.000 C 
ENDBRANCH   6  35
TORSDOF 10
ENDMDL
MODEL 8
REMARK VINA RESULT:      -7.8      5.118      7.792
REMARK  Name = 
REMARK  15 active torsions:
REMARK  status: ('A' for Active; 'I' for Inactive)
REMARK    1  A    between atoms: C_1  and  O_2
REMARK    2  A    between atoms: O_2  and  C_3
REMARK    3  A    between atoms: C_6  and  C_7
REMARK    4  A    between atoms: C_8  and  C_9
REMARK    5  A    between atoms: N_11  and  C_12
REMARK    6  A    between atoms: C_14  and  C_15
REMARK    7  A    between atoms: C_15  and  C_17
REMARK    8  A    between atoms: C_19  and  O_20
REMARK    9  A    between atoms: O_20  and  C_21
REMARK   10  A    between atoms: C_22  and  O_23
REMARK   11  A    between atoms: O_23  and  C_24
REMARK   12  A    between atoms: C_25  and  O_26
REMARK   13  A    between atoms: O_26  and  C_27
REMARK   14  A    between atoms: C_31  and  O_32
REMARK   15  A    between atoms: O_32  and  C_33
REMARK                            x       y       z     vdW  Elec       q    Type
REMARK                         _______ _______ _______ _____ _____    ______ ____
ROOT
ATOM      1  C   UNL     1       2.449   6.815  18.844  0.00  0.00    +0.000 A 
ATOM      2  C   UNL     1       1.974   8.071  18.417  0.00  0.00    +0.000 A 
ATOM      3  C   UNL     1       1.320   8.949  19.283  0.00  0.00    +0.000 A 
ATOM      4  C   UNL     1       1.053   8.551  20.592  0.00  0.00    +0.000 A 
ATOM      5  C   UNL     1       1.501   7.308  21.032  0.00  0.00    +0.000 A 
ATOM      6  C   UNL     1       2.210   6.440  20.184  0.00  0.00    +0.000 A 
ENDROOT
BRANCH   1   9
ATOM      7  C   UNL     1       4.434   5.946  17.627  0.00  0.00    +0.000 C 
ATOM      8  O   UNL     1       5.302   6.566  18.230  0.00  0.00    +0.000 OA
ATOM      9  N   UNL     1       3.083   5.950  17.910  0.00  0.00    +0.000 N 
ATOM     10  H   UNL     1       2.487   5.278  17.445  0.00  0.00    +0.000 HD
BRANCH   7  12
ATOM     11  C   UNL     1       5.346   5.582  15.401  0.00  0.00    +0.000 C 
ATOM     12  C   UNL     1       4.816   5.039  16.508  0.00  0.00    +0.000 C 
BRANCH  11  16
ATOM     13  C   UNL     1       6.812   3.319  12.075  0.00  0.00    +0.000 A 
ATOM     14  C   UNL     1       7.629   4.244  12.722  0.00  0.00    +0.000 A 
ATOM     15  C   UNL     1       7.135   4.993  13.800  0.00  0.00    +0.000 A 
ATOM     16  C   UNL     1       5.805   4.841  14.221  0.00  0.00    +0.000 A 
ATOM     17  C   UNL     1       4.992   3.922  13.552  0.00  0.00    +0.000 A 
ATOM     18  C   UNL     1       5.486   3.171  12.483  0.00  0.00    +0.000 A 
BRANCH  13  20
ATOM     19  C   UNL     1       6.892   1.315  10.832  0.00  0.00    +0.000 C 
ATOM     20  O   UNL     1       7.397   2.630  11.049  0.00  0.00    +0.000 OA
ENDBRANCH  13  20
ENDBRANCH  11  16
ENDBRANCH   7  12
ENDBRANCH   1   9
BRANCH   3  21
ATOM     21  C   UNL     1       0.918  10.284  18.772  0.00  0.00    +0.000 C 
ATOM     22  O   UNL     1       1.780  11.134  18.542  0.00  0.00    +0.000 OA
BRANCH  21  23
ATOM     23  C   UNL     1      -0.515  10.601  18.518  0.00  0.00    +0.000 A 
ATOM     24  C   UNL     1      -1.148  11.484  19.384  0.00  0.00    +0.000 A 
ATOM     25  C   UNL     1      -2.465  11.886  19.149  0.00  0.00    +0.000 A 
ATOM     26  C   UNL     1      -3.184  11.365  18.045  0.00  0.00    +0.000 A 
ATOM     27  C   UNL     1      -2.560  10.416  17.203  0.00  0.00    +0.000 A 
ATOM     28  C   UNL     1      -1.235  10.039  17.459  0.00  0.00    +0.000 A 
BRANCH  25  29
ATOM     29  O   UNL     1      -3.108  12.787  19.973  0.00  0.00    +0.000 OA
ATOM     30  C   UNL     1      -2.278  13.811  20.524  0.00  0.00    +0.000 C 
ENDBRANCH  25  29
BRANCH  26  31
ATOM     31  O   UNL     1      -4.488  11.793  17.932  0.00  0.00    +0.000 OA
ATOM     32  C   UNL     1      -5.523  10.922  18.378  0.00  0.00    +0.000 C 
ENDBRANCH  26  31
BRANCH  27  33
ATOM     33  O   UNL     1      -3.288   9.873  16.177  0.00  0.00    +0.000 OA
ATOM     34  C   UNL     1      -3.185  10.459  14.884  0.00  0.00    +0.000 C 
ENDBRANCH  27  33
ENDBRANCH  21  23
ENDBRANCH   3  21
BRANCH   6  35
ATOM     35  O   UNL     1       2.507   5.247  20.787  0.00  0.00    +0.000 OA
ATOM     36  C   UNL     1       1.603   4.164  20.630  0.00  0.00    +0.000 C 
ENDBRANCH   6  35
TORSDOF 10
ENDMDL
MODEL 9
REMARK VINA RESULT:      -7.7      1.014      1.178
REMARK  Name = 
REMARK  15 active torsions:
REMARK  status: ('A' for Active; 'I' for Inactive)
REMARK    1  A    between atoms: C_1  and  O_2
REMARK    2  A    between atoms: O_2  and  C_3
REMARK    3  A    between atoms: C_6  and  C_7
REMARK    4  A    between atoms: C_8  and  C_9
REMARK    5  A    between atoms: N_11  and  C_12
REMARK    6  A    between atoms: C_14  and  C_15
REMARK    7  A    between atoms: C_15  and  C_17
REMARK    8  A    between atoms: C_19  and  O_20
REMARK    9  A    between atoms: O_20  and  C_21
REMARK   10  A    between atoms: C_22  and  O_23
REMARK   11  A    between atoms: O_23  and  C_24
REMARK   12  A    between atoms: C_25  and  O_26
REMARK   13  A    between atoms: O_26  and  C_27
REMARK   14  A    between atoms: C_31  and  O_32
REMARK   15  A    between atoms: O_32  and  C_33
REMARK                            x       y       z     vdW  Elec       q    Type
REMARK                         _______ _______ _______ _____ _____    ______ ____
ROOT
ATOM      1  C   UNL     1       6.177   6.641  17.167  0.00  0.00    +0.000 A 
ATOM      2  C   UNL     1       5.011   6.692  17.956  0.00  0.00    +0.000 A 
ATOM      3  C   UNL     1       4.006   5.729  17.857  0.00  0.00    +0.000 A 
ATOM      4  C   UNL     1       4.110   4.725  16.896  0.00  0.00    +0.000 A 
ATOM      5  C   UNL     1       5.248   4.662  16.094  0.00  0.00    +0.000 A 
ATOM      6  C   UNL     1       6.291   5.595  16.227  0.00  0.00    +0.000 A 
ENDROOT
BRANCH   1   9
ATOM      7  C   UNL     1       8.150   7.698  18.247  0.00  0.00    +0.000 C 
ATOM      8  O   UNL     1       8.437   6.796  19.025  0.00  0.00    +0.000 OA
ATOM      9  N   UNL     1       7.154   7.666  17.292  0.00  0.00    +0.000 N 
ATOM     10  H   UNL     1       7.116   8.409  16.605  0.00  0.00    +0.000 HD
BRANCH   7  12
ATOM     11  C   UNL     1       8.328  10.108  17.969  0.00  0.00    +0.000 C 
ATOM     12  C   UNL     1       8.953   8.953  18.245  0.00  0.00    +0.000 C 
BRANCH  11  16
ATOM     13  C   UNL     1      10.220  13.942  17.738  0.00  0.00    +0.000 A 
ATOM     14  C   UNL     1      10.981  12.776  17.801  0.00  0.00    +0.000 A 
ATOM     15  C   UNL     1      10.352  11.526  17.895  0.00  0.00    +0.000 A 
ATOM     16  C   UNL     1       8.953  11.436  17.953  0.00  0.00    +0.000 A 
ATOM     17  C   UNL     1       8.204  12.615  17.905  0.00  0.00    +0.000 A 
ATOM     18  C   UNL     1       8.830  13.859  17.806  0.00  0.00    +0.000 A 
BRANCH  13  20
ATOM     19  C   UNL     1      10.258  16.274  18.093  0.00  0.00    +0.000 C 
ATOM     20  O   UNL     1      10.931  15.106  17.632  0.00  0.00    +0.000 OA
ENDBRANCH  13  20
ENDBRANCH  11  16
ENDBRANCH   7  12
ENDBRANCH   1   9
BRANCH   3  21
ATOM     21  C   UNL     1       2.844   5.815  18.778  0.00  0.00    +0.000 C 
ATOM     22  O   UNL     1       2.425   4.795  19.328  0.00  0.00    +0.000 OA
BRANCH  21  23
ATOM     23  C   UNL     1       2.191   7.124  19.058  0.00  0.00    +0.000 A 
ATOM     24  C   UNL     1       1.574   7.291  20.291  0.00  0.00    +0.000 A 
ATOM     25  C   UNL     1       1.018   8.523  20.644  0.00  0.00    +0.000 A 
ATOM     26  C   UNL     1       1.043   9.606  19.730  0.00  0.00    +0.000 A 
ATOM     27  C   UNL     1       1.613   9.414  18.451  0.00  0.00    +0.000 A 
ATOM     28  C   UNL     1       2.170   8.169  18.128  0.00  0.00    +0.000 A 
BRANCH  25  29
ATOM     29  O   UNL     1       0.428   8.728  21.874  0.00  0.00    +0.000 OA
ATOM     30  C   UNL     1       1.297   9.224  22.893  0.00  0.00    +0.000 C 
ENDBRANCH  25  29
BRANCH  26  31
ATOM     31  O   UNL     1       0.429  10.760  20.162  0.00  0.00    +0.000 OA
ATOM     32  C   UNL     1       1.251  11.824  20.631  0.00  0.00    +0.000 C 
ENDBRANCH  26  31
BRANCH  27  33
ATOM     33  O   UNL     1       1.574  10.450  17.555  0.00  0.00    +0.000 OA
ATOM     34  C   UNL     1       2.557  11.473  17.654  0.00  0.00    +0.000 C 
ENDBRANCH  27  33
ENDBRANCH  21  23
ENDBRANCH   3  21
BRANCH   6  35
ATOM     35  O   UNL     1       7.288   5.397  15.308  0.00  0.00    +0.000 OA
ATOM     36  C   UNL     1       6.944   4.871  14.037  0.00  0.00    +0.000 C 
ENDBRANCH   6  35
TORSDOF 10
ENDMDL
