MODEL 1
REMARK VINA RESULT:      -7.4      0.000      0.000
REMARK  Name = 
REMARK  20 active torsions:
REMARK  status: ('A' for Active; 'I' for Inactive)
REMARK    1  A    between atoms: C_1  and  C_2
REMARK    2  A    between atoms: C_2  and  C_3
REMARK    3  A    between atoms: C_3  and  C_4
REMARK    4  A    between atoms: C_4  and  C_5
REMARK    5  A    between atoms: C_5  and  C_6
REMARK    6  A    between atoms: C_6  and  C_7
REMARK    7  A    between atoms: C_7  and  C_8
REMARK    8  A    between atoms: C_8  and  C_9
REMARK    9  A    between atoms: C_9  and  C_10
REMARK   10  A    between atoms: N_12  and  C_13
REMARK   11  A    between atoms: C_13  and  C_14
REMARK   12  A    between atoms: C_13  and  C_21
REMARK   13  A    between atoms: C_14  and  N_15
REMARK   14  A    between atoms: C_21  and  O_22
REMARK   15  A    between atoms: C_21  and  C_23
REMARK   16  A    between atoms: C_26  and  O_27
REMARK   17  A    between atoms: O_27  and  C_28
REMARK   18  A    between atoms: C_28  and  C_29
REMARK   19  A    between atoms: C_28  and  C_30
REMARK   20  A    between atoms: C_28  and  C_31
REMARK                            x       y       z     vdW  Elec       q    Type
REMARK                         _______ _______ _______ _____ _____    ______ ____
ROOT
ATOM      1  C   UNL     1       4.239   5.369  18.587  0.00  0.00    +0.000 C 
ENDROOT
BRANCH   1   4
ATOM      2  C   UNL     1       5.858   6.349  16.943  0.00  0.00    +0.000 C 
ATOM      3  O   UNL     1       5.114   6.256  15.976  0.00  0.00    +0.000 OA
ATOM      4  N   UNL     1       5.527   5.959  18.216  0.00  0.00    +0.000 N 
ATOM      5  H   UNL     1       6.232   6.001  18.948  0.00  0.00    +0.000 HD
BRANCH   2   6
ATOM      6  C   UNL     1       7.295   6.838  16.879  0.00  0.00    +0.000 C 
BRANCH   6   7
ATOM      7  C   UNL     1       7.834   7.490  18.145  0.00  0.00    +0.000 C 
BRANCH   7   8
ATOM      8  C   UNL     1       8.153   8.957  17.833  0.00  0.00    +0.000 C 
BRANCH   8   9
ATOM      9  C   UNL     1       8.857   9.681  18.975  0.00  0.00    +0.000 C 
BRANCH   9  10
ATOM     10  C   UNL     1       9.581  10.932  18.464  0.00  0.00    +0.000 C 
BRANCH  10  11
ATOM     11  C   UNL     1      10.714  11.319  19.414  0.00  0.00    +0.000 C 
BRANCH  11  12
ATOM     12  C   UNL     1      11.748  12.237  18.759  0.00  0.00    +0.000 C 
BRANCH  12  14
ATOM     13  C   UNL     1      10.970  14.045  17.168  0.00  0.00    +0.000 C 
ATOM     14  C   UNL     1      11.317  12.576  17.330  0.00  0.00    +0.000 C 
ENDBRANCH  12  14
ENDBRANCH  11  12
ENDBRANCH  10  11
ENDBRANCH   9  10
ENDBRANCH   8   9
ENDBRANCH   7   8
ENDBRANCH   6   7
ENDBRANCH   2   6
ENDBRANCH   1   4
BRANCH   1  15
ATOM     15  C   UNL     1       4.355   3.807  18.811  0.00  0.00    +0.000 C 
BRANCH  15  16
ATOM     16  N   UNL     1       3.704   2.858  17.866  0.00  0.00    +0.000 NA
ATOM     17  C   UNL     1       2.623   3.439  17.033  0.00  0.00    +0.000 C 
ATOM     18  C   UNL     1       1.328   3.787  17.791  0.00  0.00    +0.000 C 
ATOM     19  O   UNL     1       0.793   2.627  18.437  0.00  0.00    +0.000 OA
ATOM     20  C   UNL     1       1.758   2.071  19.338  0.00  0.00    +0.000 C 
ATOM     21  C   UNL     1       3.076   1.724  18.612  0.00  0.00    +0.000 C 
ENDBRANCH  15  16
ENDBRANCH   1  15
BRANCH   1  22
ATOM     22  C   UNL     1       3.542   6.111  19.790  0.00  0.00    +0.000 C 
BRANCH  22  23
ATOM     23  C   UNL     1       2.661   7.344  19.523  0.00  0.00    +0.000 A 
ATOM     24  C   UNL     1       2.644   7.888  18.225  0.00  0.00    +0.000 A 
ATOM     25  C   UNL     1       1.773   8.934  17.870  0.00  0.00    +0.000 A 
ATOM     26  C   UNL     1       0.872   9.453  18.798  0.00  0.00    +0.000 A 
ATOM     27  C   UNL     1       0.948   8.997  20.109  0.00  0.00    +0.000 A 
ATOM     28  C   UNL     1       1.837   7.964  20.469  0.00  0.00    +0.000 A 
BRANCH  26  29
ATOM     29  O   UNL     1       0.040  10.430  18.331  0.00  0.00    +0.000 OA
BRANCH  29  30
ATOM     30  C   UNL     1       0.034  11.759  18.900  0.00  0.00    +0.000 C 
ATOM     31  C   UNL     1      -0.376  11.720  20.377  0.00  0.00    +0.000 C 
ATOM     32  C   UNL     1       1.506  12.230  18.854  0.00  0.00    +0.000 C 
ATOM     33  C   UNL     1      -0.784  12.777  18.091  0.00  0.00    +0.000 C 
ENDBRANCH  29  30
ENDBRANCH  26  29
ENDBRANCH  22  23
BRANCH  22  34
ATOM     34  O   UNL     1       2.744   5.208  20.569  0.00  0.00    +0.000 OA
ATOM     35  H   UNL     1       1.931   5.000  20.083  0.00  0.00    +0.000 HD
ENDBRANCH  22  34
ENDBRANCH   1  22
TORSDOF 16
ENDMDL
MODEL 2
REMARK VINA RESULT:      -7.1      1.657      2.141
REMARK  Name = 
REMARK  20 active torsions:
REMARK  status: ('A' for Active; 'I' for Inactive)
REMARK    1  A    between atoms: C_1  and  C_2
REMARK    2  A    between atoms: C_2  and  C_3
REMARK    3  A    between atoms: C_3  and  C_4
REMARK    4  A    between atoms: C_4  and  C_5
REMARK    5  A    between atoms: C_5  and  C_6
REMARK    6  A    between atoms: C_6  and  C_7
REMARK    7  A    between atoms: C_7  and  C_8
REMARK    8  A    between atoms: C_8  and  C_9
REMARK    9  A    between atoms: C_9  and  C_10
REMARK   10  A    between atoms: N_12  and  C_13
REMARK   11  A    between atoms: C_13  and  C_14
REMARK   12  A    between atoms: C_13  and  C_21
REMARK   13  A    between atoms: C_14  and  N_15
REMARK   14  A    between atoms: C_21  and  O_22
REMARK   15  A    between atoms: C_21  and  C_23
REMARK   16  A    between atoms: C_26  and  O_27
REMARK   17  A    between atoms: O_27  and  C_28
REMARK   18  A    between atoms: C_28  and  C_29
REMARK   19  A    between atoms: C_28  and  C_30
REMARK   20  A    between atoms: C_28  and  C_31
REMARK                            x       y       z     vdW  Elec       q    Type
REMARK                         _______ _______ _______ _____ _____    ______ ____
ROOT
ATOM      1  C   UNL     1       2.878   6.600  18.480  0.00  0.00    +0.000 C 
ENDROOT
BRANCH   1   4
ATOM      2  C   UNL     1       5.083   6.549  17.289  0.00  0.00    +0.000 C 
ATOM      3  O   UNL     1       4.633   6.868  16.196  0.00  0.00    +0.000 OA
ATOM      4  N   UNL     1       4.328   6.403  18.425  0.00  0.00    +0.000 N 
ATOM      5  H   UNL     1       4.769   6.061  19.275  0.00  0.00    +0.000 HD
BRANCH   2   6
ATOM      6  C   UNL     1       6.534   6.187  17.549  0.00  0.00    +0.000 C 
BRANCH   6   7
ATOM      7  C   UNL     1       7.570   7.195  17.066  0.00  0.00    +0.000 C 
BRANCH   7   8
ATOM      8  C   UNL     1       8.074   7.985  18.281  0.00  0.00    +0.000 C 
BRANCH   8   9
ATOM      9  C   UNL     1       8.157   9.488  18.034  0.00  0.00    +0.000 C 
BRANCH   9  10
ATOM     10  C   UNL     1       9.263  10.121  18.887  0.00  0.00    +0.000 C 
BRANCH  10  11
ATOM     11  C   UNL     1       9.919  11.278  18.136  0.00  0.00    +0.000 C 
BRANCH  11  12
ATOM     12  C   UNL     1      11.356  11.538  18.592  0.00  0.00    +0.000 C 
BRANCH  12  14
ATOM     13  C   UNL     1      11.331  13.253  16.730  0.00  0.00    +0.000 C 
ATOM     14  C   UNL     1      11.808  12.927  18.134  0.00  0.00    +0.000 C 
ENDBRANCH  12  14
ENDBRANCH  11  12
ENDBRANCH  10  11
ENDBRANCH   9  10
ENDBRANCH   8   9
ENDBRANCH   7   8
ENDBRANCH   6   7
ENDBRANCH   2   6
ENDBRANCH   1   4
BRANCH   1  15
ATOM     15  C   UNL     1       2.098   5.223  18.453  0.00  0.00    +0.000 C 
BRANCH  15  16
ATOM     16  N   UNL     1       2.834   3.935  18.573  0.00  0.00    +0.000 NA
ATOM     17  C   UNL     1       2.064   2.729  18.180  0.00  0.00    +0.000 C 
ATOM     18  C   UNL     1       0.933   2.331  19.146  0.00  0.00    +0.000 C 
ATOM     19  O   UNL     1       1.449   2.099  20.461  0.00  0.00    +0.000 OA
ATOM     20  C   UNL     1       2.123   3.267  20.945  0.00  0.00    +0.000 C 
ATOM     21  C   UNL     1       3.256   3.703  19.989  0.00  0.00    +0.000 C 
ENDBRANCH  15  16
ENDBRANCH   1  15
BRANCH   1  22
ATOM     22  C   UNL     1       2.425   7.538  19.662  0.00  0.00    +0.000 C 
BRANCH  22  23
ATOM     23  C   UNL     1       1.392   8.650  19.407  0.00  0.00    +0.000 A 
ATOM     24  C   UNL     1       1.243   9.138  18.096  0.00  0.00    +0.000 A 
ATOM     25  C   UNL     1       0.238  10.062  17.758  0.00  0.00    +0.000 A 
ATOM     26  C   UNL     1      -0.668  10.508  18.718  0.00  0.00    +0.000 A 
ATOM     27  C   UNL     1      -0.470  10.115  20.036  0.00  0.00    +0.000 A 
ATOM     28  C   UNL     1       0.552   9.206  20.378  0.00  0.00    +0.000 A 
BRANCH  26  29
ATOM     29  O   UNL     1      -1.632  11.364  18.269  0.00  0.00    +0.000 OA
BRANCH  29  30
ATOM     30  C   UNL     1      -2.829  10.886  17.614  0.00  0.00    +0.000 C 
ATOM     31  C   UNL     1      -4.023  11.796  17.924  0.00  0.00    +0.000 C 
ATOM     32  C   UNL     1      -2.546  11.016  16.099  0.00  0.00    +0.000 C 
ATOM     33  C   UNL     1      -3.135   9.404  17.883  0.00  0.00    +0.000 C 
ENDBRANCH  29  30
ENDBRANCH  26  29
ENDBRANCH  22  23
BRANCH  22  34
ATOM     34  O   UNL     1       1.929   6.777  20.773  0.00  0.00    +0.000 OA
ATOM     35  H   UNL     1       1.075   7.142  21.054  0.00  0.00    +0.000 HD
ENDBRANCH  22  34
ENDBRANCH   1  22
TORSDOF 16
ENDMDL
MODEL 3
REMARK VINA RESULT:      -7.0      1.782      2.404
REMARK  Name = 
REMARK  20 active torsions:
REMARK  status: ('A' for Active; 'I' for Inactive)
REMARK    1  A    between atoms: C_1  and  C_2
REMARK    2  A    between atoms: C_2  and  C_3
REMARK    3  A    between atoms: C_3  and  C_4
REMARK    4  A    between atoms: C_4  and  C_5
REMARK    5  A    between atoms: C_5  and  C_6
REMARK    6  A    between atoms: C_6  and  C_7
REMARK    7  A    between atoms: C_7  and  C_8
REMARK    8  A    between atoms: C_8  and  C_9
REMARK    9  A    between atoms: C_9  and  C_10
REMARK   10  A    between atoms: N_12  and  C_13
REMARK   11  A    between atoms: C_13  and  C_14
REMARK   12  A    between atoms: C_13  and  C_21
REMARK   13  A    between atoms: C_14  and  N_15
REMARK   14  A    between atoms: C_21  and  O_22
REMARK   15  A    between atoms: C_21  and  C_23
REMARK   16  A    between atoms: C_26  and  O_27
REMARK   17  A    between atoms: O_27  and  C_28
REMARK   18  A    between atoms: C_28  and  C_29
REMARK   19  A    between atoms: C_28  and  C_30
REMARK   20  A    between atoms: C_28  and  C_31
REMARK                            x       y       z     vdW  Elec       q    Type
REMARK                         _______ _______ _______ _____ _____    ______ ____
ROOT
ATOM      1  C   UNL     1       2.826   6.569  18.329  0.00  0.00    +0.000 C 
ENDROOT
BRANCH   1   4
ATOM      2  C   UNL     1       4.944   6.594  16.989  0.00  0.00    +0.000 C 
ATOM      3  O   UNL     1       4.437   7.059  15.977  0.00  0.00    +0.000 OA
ATOM      4  N   UNL     1       4.260   6.334  18.149  0.00  0.00    +0.000 N 
ATOM      5  H   UNL     1       4.742   5.877  18.919  0.00  0.00    +0.000 HD
BRANCH   2   6
ATOM      6  C   UNL     1       6.394   6.157  17.101  0.00  0.00    +0.000 C 
BRANCH   6   7
ATOM      7  C   UNL     1       6.903   5.893  18.513  0.00  0.00    +0.000 C 
BRANCH   7   8
ATOM      8  C   UNL     1       8.103   6.814  18.772  0.00  0.00    +0.000 C 
BRANCH   8   9
ATOM      9  C   UNL     1       8.063   8.104  17.961  0.00  0.00    +0.000 C 
BRANCH   9  10
ATOM     10  C   UNL     1       8.781   9.237  18.702  0.00  0.00    +0.000 C 
BRANCH  10  11
ATOM     11  C   UNL     1       8.763  10.517  17.868  0.00  0.00    +0.000 C 
BRANCH  11  12
ATOM     12  C   UNL     1      10.011  11.377  18.076  0.00  0.00    +0.000 C 
BRANCH  12  14
ATOM     13  C   UNL     1       8.993  13.542  18.902  0.00  0.00    +0.000 C 
ATOM     14  C   UNL     1       9.699  12.840  17.755  0.00  0.00    +0.000 C 
ENDBRANCH  12  14
ENDBRANCH  11  12
ENDBRANCH  10  11
ENDBRANCH   9  10
ENDBRANCH   8   9
ENDBRANCH   7   8
ENDBRANCH   6   7
ENDBRANCH   2   6
ENDBRANCH   1   4
BRANCH   1  15
ATOM     15  C   UNL     1       2.023   5.211  18.462  0.00  0.00    +0.000 C 
BRANCH  15  16
ATOM     16  N   UNL     1       2.190   4.348  19.663  0.00  0.00    +0.000 NA
ATOM     17  C   UNL     1       3.320   3.389  19.599  0.00  0.00    +0.000 C 
ATOM     18  C   UNL     1       3.131   2.219  18.616  0.00  0.00    +0.000 C 
ATOM     19  O   UNL     1       1.954   1.472  18.939  0.00  0.00    +0.000 OA
ATOM     20  C   UNL     1       0.802   2.324  18.920  0.00  0.00    +0.000 C 
ATOM     21  C   UNL     1       0.966   3.518  19.886  0.00  0.00    +0.000 C 
ENDBRANCH  15  16
ENDBRANCH   1  15
BRANCH   1  22
ATOM     22  C   UNL     1       2.505   7.586  19.488  0.00  0.00    +0.000 C 
BRANCH  22  23
ATOM     23  C   UNL     1       1.449   8.685  19.274  0.00  0.00    +0.000 A 
ATOM     24  C   UNL     1       1.267   9.197  17.976  0.00  0.00    +0.000 A 
ATOM     25  C   UNL     1       0.240  10.108  17.675  0.00  0.00    +0.000 A 
ATOM     26  C   UNL     1      -0.656  10.519  18.661  0.00  0.00    +0.000 A 
ATOM     27  C   UNL     1      -0.427  10.103  19.966  0.00  0.00    +0.000 A 
ATOM     28  C   UNL     1       0.617   9.206  20.271  0.00  0.00    +0.000 A 
BRANCH  26  29
ATOM     29  O   UNL     1      -1.643  11.366  18.246  0.00  0.00    +0.000 OA
BRANCH  29  30
ATOM     30  C   UNL     1      -2.797  10.891  17.518  0.00  0.00    +0.000 C 
ATOM     31  C   UNL     1      -3.145   9.452  17.922  0.00  0.00    +0.000 C 
ATOM     32  C   UNL     1      -3.971  11.784  17.983  0.00  0.00    +0.000 C 
ATOM     33  C   UNL     1      -2.686  11.061  15.995  0.00  0.00    +0.000 C 
ENDBRANCH  29  30
ENDBRANCH  26  29
ENDBRANCH  22  23
BRANCH  22  34
ATOM     34  O   UNL     1       2.137   6.905  20.696  0.00  0.00    +0.000 OA
ATOM     35  H   UNL     1       1.856   6.002  20.481  0.00  0.00    +0.000 HD
ENDBRANCH  22  34
ENDBRANCH   1  22
TORSDOF 16
ENDMDL
MODEL 4
REMARK VINA RESULT:      -7.0      1.231      2.060
REMARK  Name = 
REMARK  20 active torsions:
REMARK  status: ('A' for Active; 'I' for Inactive)
REMARK    1  A    between atoms: C_1  and  C_2
REMARK    2  A    between atoms: C_2  and  C_3
REMARK    3  A    between atoms: C_3  and  C_4
REMARK    4  A    between atoms: C_4  and  C_5
REMARK    5  A    between atoms: C_5  and  C_6
REMARK    6  A    between atoms: C_6  and  C_7
REMARK    7  A    between atoms: C_7  and  C_8
REMARK    8  A    between atoms: C_8  and  C_9
REMARK    9  A    between atoms: C_9  and  C_10
REMARK   10  A    between atoms: N_12  and  C_13
REMARK   11  A    between atoms: C_13  and  C_14
REMARK   12  A    between atoms: C_13  and  C_21
REMARK   13  A    between atoms: C_14  and  N_15
REMARK   14  A    between atoms: C_21  and  O_22
REMARK   15  A    between atoms: C_21  and  C_23
REMARK   16  A    between atoms: C_26  and  O_27
REMARK   17  A    between atoms: O_27  and  C_28
REMARK   18  A    between atoms: C_28  and  C_29
REMARK   19  A    between atoms: C_28  and  C_30
REMARK   20  A    between atoms: C_28  and  C_31
REMARK                            x       y       z     vdW  Elec       q    Type
REMARK                         _______ _______ _______ _____ _____    ______ ____
ROOT
ATOM      1  C   UNL     1       3.167   6.315  18.198  0.00  0.00    +0.000 C 
ENDROOT
BRANCH   1   4
ATOM      2  C   UNL     1       5.303   6.392  16.889  0.00  0.00    +0.000 C 
ATOM      3  O   UNL     1       4.787   6.768  15.844  0.00  0.00    +0.000 OA
ATOM      4  N   UNL     1       4.615   6.157  18.052  0.00  0.00    +0.000 N 
ATOM      5  H   UNL     1       5.110   5.773  18.853  0.00  0.00    +0.000 HD
BRANCH   2   6
ATOM      6  C   UNL     1       6.774   6.049  17.046  0.00  0.00    +0.000 C 
BRANCH   6   7
ATOM      7  C   UNL     1       7.299   6.009  18.475  0.00  0.00    +0.000 C 
BRANCH   7   8
ATOM      8  C   UNL     1       8.148   7.265  18.712  0.00  0.00    +0.000 C 
BRANCH   8   9
ATOM      9  C   UNL     1       8.123   8.242  17.542  0.00  0.00    +0.000 C 
BRANCH   9  10
ATOM     10  C   UNL     1       7.940   9.682  18.038  0.00  0.00    +0.000 C 
BRANCH  10  11
ATOM     11  C   UNL     1       9.257  10.228  18.588  0.00  0.00    +0.000 C 
BRANCH  11  12
ATOM     12  C   UNL     1       9.632  11.583  17.985  0.00  0.00    +0.000 C 
BRANCH  12  14
ATOM     13  C   UNL     1      11.695  11.546  19.450  0.00  0.00    +0.000 C 
ATOM     14  C   UNL     1      11.147  11.787  18.054  0.00  0.00    +0.000 C 
ENDBRANCH  12  14
ENDBRANCH  11  12
ENDBRANCH  10  11
ENDBRANCH   9  10
ENDBRANCH   8   9
ENDBRANCH   7   8
ENDBRANCH   6   7
ENDBRANCH   2   6
ENDBRANCH   1   4
BRANCH   1  15
ATOM     15  C   UNL     1       2.412   4.928  18.089  0.00  0.00    +0.000 C 
BRANCH  15  16
ATOM     16  N   UNL     1       3.170   3.649  18.147  0.00  0.00    +0.000 NA
ATOM     17  C   UNL     1       2.411   2.446  17.724  0.00  0.00    +0.000 C 
ATOM     18  C   UNL     1       1.306   1.994  18.697  0.00  0.00    +0.000 C 
ATOM     19  O   UNL     1       1.853   1.722  19.992  0.00  0.00    +0.000 OA
ATOM     20  C   UNL     1       2.518   2.882  20.505  0.00  0.00    +0.000 C 
ATOM     21  C   UNL     1       3.624   3.371  19.544  0.00  0.00    +0.000 C 
ENDBRANCH  15  16
ENDBRANCH   1  15
BRANCH   1  22
ATOM     22  C   UNL     1       2.760   7.136  19.480  0.00  0.00    +0.000 C 
BRANCH  22  23
ATOM     23  C   UNL     1       1.837   8.361  19.346  0.00  0.00    +0.000 A 
ATOM     24  C   UNL     1       1.116   8.784  20.478  0.00  0.00    +0.000 A 
ATOM     25  C   UNL     1       0.352   9.964  20.472  0.00  0.00    +0.000 A 
ATOM     26  C   UNL     1       0.304  10.773  19.339  0.00  0.00    +0.000 A 
ATOM     27  C   UNL     1       0.926  10.317  18.183  0.00  0.00    +0.000 A 
ATOM     28  C   UNL     1       1.675   9.122  18.184  0.00  0.00    +0.000 A 
BRANCH  26  29
ATOM     29  O   UNL     1      -0.427  11.920  19.461  0.00  0.00    +0.000 OA
BRANCH  29  30
ATOM     30  C   UNL     1       0.187  13.180  19.814  0.00  0.00    +0.000 C 
ATOM     31  C   UNL     1      -0.149  14.261  18.780  0.00  0.00    +0.000 C 
ATOM     32  C   UNL     1      -0.484  13.604  21.142  0.00  0.00    +0.000 C 
ATOM     33  C   UNL     1       1.695  13.081  20.090  0.00  0.00    +0.000 C 
ENDBRANCH  29  30
ENDBRANCH  26  29
ENDBRANCH  22  23
BRANCH  22  34
ATOM     34  O   UNL     1       2.163   6.291  20.475  0.00  0.00    +0.000 OA
ATOM     35  H   UNL     1       2.020   5.408  20.100  0.00  0.00    +0.000 HD
ENDBRANCH  22  34
ENDBRANCH   1  22
TORSDOF 16
ENDMDL
MODEL 5
REMARK VINA RESULT:      -7.0      1.213      1.548
REMARK  Name = 
REMARK  20 active torsions:
REMARK  status: ('A' for Active; 'I' for Inactive)
REMARK    1  A    between atoms: C_1  and  C_2
REMARK    2  A    between atoms: C_2  and  C_3
REMARK    3  A    between atoms: C_3  and  C_4
REMARK    4  A    between atoms: C_4  and  C_5
REMARK    5  A    between atoms: C_5  and  C_6
REMARK    6  A    between atoms: C_6  and  C_7
REMARK    7  A    between atoms: C_7  and  C_8
REMARK    8  A    between atoms: C_8  and  C_9
REMARK    9  A    between atoms: C_9  and  C_10
REMARK   10  A    between atoms: N_12  and  C_13
REMARK   11  A    between atoms: C_13  and  C_14
REMARK   12  A    between atoms: C_13  and  C_21
REMARK   13  A    between atoms: C_14  and  N_15
REMARK   14  A    between atoms: C_21  and  O_22
REMARK   15  A    between atoms: C_21  and  C_23
REMARK   16  A    between atoms: C_26  and  O_27
REMARK   17  A    between atoms: O_27  and  C_28
REMARK   18  A    between atoms: C_28  and  C_29
REMARK   19  A    between atoms: C_28  and  C_30
REMARK   20  A    between atoms: C_28  and  C_31
REMARK                            x       y       z     vdW  Elec       q    Type
REMARK                         _______ _______ _______ _____ _____    ______ ____
ROOT
ATOM      1  C   UNL     1       4.008   5.790  18.121  0.00  0.00    +0.000 C 
ENDROOT
BRANCH   1   4
ATOM      2  C   UNL     1       6.475   5.876  18.554  0.00  0.00    +0.000 C 
ATOM      3  O   UNL     1       6.422   5.321  19.645  0.00  0.00    +0.000 OA
ATOM      4  N   UNL     1       5.385   6.135  17.763  0.00  0.00    +0.000 N 
ATOM      5  H   UNL     1       5.509   6.668  16.906  0.00  0.00    +0.000 HD
BRANCH   2   6
ATOM      6  C   UNL     1       7.743   6.437  17.937  0.00  0.00    +0.000 C 
BRANCH   6   7
ATOM      7  C   UNL     1       7.693   7.904  17.529  0.00  0.00    +0.000 C 
BRANCH   7   8
ATOM      8  C   UNL     1       8.540   8.709  18.523  0.00  0.00    +0.000 C 
BRANCH   8   9
ATOM      9  C   UNL     1       8.727  10.167  18.118  0.00  0.00    +0.000 C 
BRANCH   9  10
ATOM     10  C   UNL     1       9.694  10.878  19.073  0.00  0.00    +0.000 C 
BRANCH  10  11
ATOM     11  C   UNL     1      10.398  12.030  18.358  0.00  0.00    +0.000 C 
BRANCH  11  12
ATOM     12  C   UNL     1      10.405  13.320  19.180  0.00  0.00    +0.000 C 
BRANCH  12  14
ATOM     13  C   UNL     1      12.330  14.962  19.107  0.00  0.00    +0.000 C 
ATOM     14  C   UNL     1      11.827  13.636  19.649  0.00  0.00    +0.000 C 
ENDBRANCH  12  14
ENDBRANCH  11  12
ENDBRANCH  10  11
ENDBRANCH   9  10
ENDBRANCH   8   9
ENDBRANCH   7   8
ENDBRANCH   6   7
ENDBRANCH   2   6
ENDBRANCH   1   4
BRANCH   1  15
ATOM     15  C   UNL     1       3.811   4.225  18.251  0.00  0.00    +0.000 C 
BRANCH  15  16
ATOM     16  N   UNL     1       2.763   3.526  17.460  0.00  0.00    +0.000 NA
ATOM     17  C   UNL     1       1.373   3.978  17.715  0.00  0.00    +0.000 C 
ATOM     18  C   UNL     1       0.796   3.581  19.086  0.00  0.00    +0.000 C 
ATOM     19  O   UNL     1       0.820   2.159  19.253  0.00  0.00    +0.000 OA
ATOM     20  C   UNL     1       2.158   1.665  19.118  0.00  0.00    +0.000 C 
ATOM     21  C   UNL     1       2.773   2.060  17.757  0.00  0.00    +0.000 C 
ENDBRANCH  15  16
ENDBRANCH   1  15
BRANCH   1  22
ATOM     22  C   UNL     1       3.476   6.582  19.375  0.00  0.00    +0.000 C 
BRANCH  22  23
ATOM     23  C   UNL     1       2.399   7.667  19.197  0.00  0.00    +0.000 A 
ATOM     24  C   UNL     1       1.703   8.113  20.336  0.00  0.00    +0.000 A 
ATOM     25  C   UNL     1       0.795   9.185  20.278  0.00  0.00    +0.000 A 
ATOM     26  C   UNL     1       0.573   9.863  19.081  0.00  0.00    +0.000 A 
ATOM     27  C   UNL     1       1.174   9.370  17.929  0.00  0.00    +0.000 A 
ATOM     28  C   UNL     1       2.067   8.280  17.985  0.00  0.00    +0.000 A 
BRANCH  26  29
ATOM     29  O   UNL     1      -0.289  10.920  19.150  0.00  0.00    +0.000 OA
BRANCH  29  30
ATOM     30  C   UNL     1       0.182  12.277  19.311  0.00  0.00    +0.000 C 
ATOM     31  C   UNL     1       0.024  12.742  20.764  0.00  0.00    +0.000 C 
ATOM     32  C   UNL     1       1.700  12.220  19.020  0.00  0.00    +0.000 C 
ATOM     33  C   UNL     1      -0.426  13.269  18.309  0.00  0.00    +0.000 C 
ENDBRANCH  29  30
ENDBRANCH  26  29
ENDBRANCH  22  23
BRANCH  22  34
ATOM     34  O   UNL     1       2.986   5.691  20.387  0.00  0.00    +0.000 OA
ATOM     35  H   UNL     1       2.034   5.835  20.505  0.00  0.00    +0.000 HD
ENDBRANCH  22  34
ENDBRANCH   1  22
TORSDOF 16
ENDMDL
MODEL 6
REMARK VINA RESULT:      -7.0      1.277      2.140
REMARK  Name = 
REMARK  20 active torsions:
REMARK  status: ('A' for Active; 'I' for Inactive)
REMARK    1  A    between atoms: C_1  and  C_2
REMARK    2  A    between atoms: C_2  and  C_3
REMARK    3  A    between atoms: C_3  and  C_4
REMARK    4  A    between atoms: C_4  and  C_5
REMARK    5  A    between atoms: C_5  and  C_6
REMARK    6  A    between atoms: C_6  and  C_7
REMARK    7  A    between atoms: C_7  and  C_8
REMARK    8  A    between atoms: C_8  and  C_9
REMARK    9  A    between atoms: C_9  and  C_10
REMARK   10  A    between atoms: N_12  and  C_13
REMARK   11  A    between atoms: C_13  and  C_14
REMARK   12  A    between atoms: C_13  and  C_21
REMARK   13  A    between atoms: C_14  and  N_15
REMARK   14  A    between atoms: C_21  and  O_22
REMARK   15  A    between atoms: C_21  and  C_23
REMARK   16  A    between atoms: C_26  and  O_27
REMARK   17  A    between atoms: O_27  and  C_28
REMARK   18  A    between atoms: C_28  and  C_29
REMARK   19  A    between atoms: C_28  and  C_30
REMARK   20  A    between atoms: C_28  and  C_31
REMARK                            x       y       z     vdW  Elec       q    Type
REMARK                         _______ _______ _______ _____ _____    ______ ____
ROOT
ATOM      1  C   UNL     1       5.285   5.323  18.030  0.00  0.00    +0.000 C 
ENDROOT
BRANCH   1   4
ATOM      2  C   UNL     1       7.331   6.730  17.684  0.00  0.00    +0.000 C 
ATOM      3  O   UNL     1       7.472   6.444  16.502  0.00  0.00    +0.000 OA
ATOM      4  N   UNL     1       6.324   6.251  18.482  0.00  0.00    +0.000 N 
ATOM      5  H   UNL     1       6.324   6.479  19.473  0.00  0.00    +0.000 HD
BRANCH   2   6
ATOM      6  C   UNL     1       8.290   7.599  18.478  0.00  0.00    +0.000 C 
BRANCH   6   7
ATOM      7  C   UNL     1       8.339   9.070  18.085  0.00  0.00    +0.000 C 
BRANCH   7   8
ATOM      8  C   UNL     1       9.115   9.831  19.167  0.00  0.00    +0.000 C 
BRANCH   8   9
ATOM      9  C   UNL     1       9.700  11.152  18.677  0.00  0.00    +0.000 C 
BRANCH   9  10
ATOM     10  C   UNL     1      10.562  11.803  19.765  0.00  0.00    +0.000 C 
BRANCH  10  11
ATOM     11  C   UNL     1      10.875  13.254  19.401  0.00  0.00    +0.000 C 
BRANCH  11  12
ATOM     12  C   UNL     1       9.698  13.959  18.722  0.00  0.00    +0.000 C 
BRANCH  12  14
ATOM     13  C   UNL     1      11.420  14.485  16.943  0.00  0.00    +0.000 C 
ATOM     14  C   UNL     1      10.215  14.990  17.716  0.00  0.00    +0.000 C 
ENDBRANCH  12  14
ENDBRANCH  11  12
ENDBRANCH  10  11
ENDBRANCH   9  10
ENDBRANCH   8   9
ENDBRANCH   7   8
ENDBRANCH   6   7
ENDBRANCH   2   6
ENDBRANCH   1   4
BRANCH   1  15
ATOM     15  C   UNL     1       4.748   4.423  19.215  0.00  0.00    +0.000 C 
BRANCH  15  16
ATOM     16  N   UNL     1       4.446   2.982  18.995  0.00  0.00    +0.000 NA
ATOM     17  C   UNL     1       3.405   2.705  17.975  0.00  0.00    +0.000 C 
ATOM     18  C   UNL     1       1.970   3.084  18.385  0.00  0.00    +0.000 C 
ATOM     19  O   UNL     1       1.588   2.400  19.582  0.00  0.00    +0.000 OA
ATOM     20  C   UNL     1       2.501   2.705  20.643  0.00  0.00    +0.000 C 
ATOM     21  C   UNL     1       3.954   2.350  20.258  0.00  0.00    +0.000 C 
ENDBRANCH  15  16
ENDBRANCH   1  15
BRANCH   1  22
ATOM     22  C   UNL     1       4.130   6.030  17.225  0.00  0.00    +0.000 C 
BRANCH  22  23
ATOM     23  C   UNL     1       3.200   7.029  17.936  0.00  0.00    +0.000 A 
ATOM     24  C   UNL     1       2.656   6.668  19.182  0.00  0.00    +0.000 A 
ATOM     25  C   UNL     1       1.901   7.571  19.951  0.00  0.00    +0.000 A 
ATOM     26  C   UNL     1       1.686   8.875  19.508  0.00  0.00    +0.000 A 
ATOM     27  C   UNL     1       2.129   9.213  18.236  0.00  0.00    +0.000 A 
ATOM     28  C   UNL     1       2.868   8.300  17.456  0.00  0.00    +0.000 A 
BRANCH  26  29
ATOM     29  O   UNL     1       0.983   9.680  20.358  0.00  0.00    +0.000 OA
BRANCH  29  30
ATOM     30  C   UNL     1       0.061  10.679  19.869  0.00  0.00    +0.000 C 
ATOM     31  C   UNL     1      -0.900  10.079  18.836  0.00  0.00    +0.000 C 
ATOM     32  C   UNL     1      -0.792  11.083  21.095  0.00  0.00    +0.000 C 
ATOM     33  C   UNL     1       0.742  11.959  19.361  0.00  0.00    +0.000 C 
ENDBRANCH  29  30
ENDBRANCH  26  29
ENDBRANCH  22  23
BRANCH  22  34
ATOM     34  O   UNL     1       4.638   6.709  16.067  0.00  0.00    +0.000 OA
ATOM     35  H   UNL     1       3.902   7.124  15.592  0.00  0.00    +0.000 HD
ENDBRANCH  22  34
ENDBRANCH   1  22
TORSDOF 16
ENDMDL
MODEL 7
REMARK VINA RESULT:      -6.9      3.616      5.357
REMARK  Name = 
REMARK  20 active torsions:
REMARK  status: ('A' for Active; 'I' for Inactive)
REMARK    1  A    between atoms: C_1  and  C_2
REMARK    2  A    between atoms: C_2  and  C_3
REMARK    3  A    between atoms: C_3  and  C_4
REMARK    4  A    between atoms: C_4  and  C_5
REMARK    5  A    between atoms: C_5  and  C_6
REMARK    6  A    between atoms: C_6  and  C_7
REMARK    7  A    between atoms: C_7  and  C_8
REMARK    8  A    between atoms: C_8  and  C_9
REMARK    9  A    between atoms: C_9  and  C_10
REMARK   10  A    between atoms: N_12  and  C_13
REMARK   11  A    between atoms: C_13  and  C_14
REMARK   12  A    between atoms: C_13  and  C_21
REMARK   13  A    between atoms: C_14  and  N_15
REMARK   14  A    between atoms: C_21  and  O_22
REMARK   15  A    between atoms: C_21  and  C_23
REMARK   16  A    between atoms: C_26  and  O_27
REMARK   17  A    between atoms: O_27  and  C_28
REMARK   18  A    between atoms: C_28  and  C_29
REMARK   19  A    between atoms: C_28  and  C_30
REMARK   20  A    between atoms: C_28  and  C_31
REMARK                            x       y       z     vdW  Elec       q    Type
REMARK                         _______ _______ _______ _____ _____    ______ ____
ROOT
ATOM      1  C   UNL     1       2.559   6.390  18.714  0.00  0.00    +0.000 C 
ENDROOT
BRANCH   1   4
ATOM      2  C   UNL     1       4.966   5.713  18.907  0.00  0.00    +0.000 C 
ATOM      3  O   UNL     1       4.833   5.110  19.964  0.00  0.00    +0.000 OA
ATOM      4  N   UNL     1       3.945   6.345  18.243  0.00  0.00    +0.000 N 
ATOM      5  H   UNL     1       4.155   6.888  17.409  0.00  0.00    +0.000 HD
BRANCH   2   6
ATOM      6  C   UNL     1       6.292   5.929  18.200  0.00  0.00    +0.000 C 
BRANCH   6   7
ATOM      7  C   UNL     1       7.087   4.670  17.876  0.00  0.00    +0.000 C 
BRANCH   7   8
ATOM      8  C   UNL     1       7.179   4.538  16.350  0.00  0.00    +0.000 C 
BRANCH   8   9
ATOM      9  C   UNL     1       6.075   5.285  15.610  0.00  0.00    +0.000 C 
BRANCH   9  10
ATOM     10  C   UNL     1       6.213   5.099  14.094  0.00  0.00    +0.000 C 
BRANCH  10  11
ATOM     11  C   UNL     1       5.483   3.835  13.642  0.00  0.00    +0.000 C 
BRANCH  11  12
ATOM     12  C   UNL     1       6.342   2.948  12.738  0.00  0.00    +0.000 C 
BRANCH  12  14
ATOM     13  C   UNL     1       4.205   3.261  11.418  0.00  0.00    +0.000 C 
ATOM     14  C   UNL     1       5.586   2.630  11.446  0.00  0.00    +0.000 C 
ENDBRANCH  12  14
ENDBRANCH  11  12
ENDBRANCH  10  11
ENDBRANCH   9  10
ENDBRANCH   8   9
ENDBRANCH   7   8
ENDBRANCH   6   7
ENDBRANCH   2   6
ENDBRANCH   1   4
BRANCH   1  15
ATOM     15  C   UNL     1       2.065   4.972  19.214  0.00  0.00    +0.000 C 
BRANCH  15  16
ATOM     16  N   UNL     1       1.445   4.009  18.263  0.00  0.00    +0.000 NA
ATOM     17  C   UNL     1       0.979   2.737  18.868  0.00  0.00    +0.000 C 
ATOM     18  C   UNL     1       2.096   1.780  19.323  0.00  0.00    +0.000 C 
ATOM     19  O   UNL     1       2.951   1.443  18.225  0.00  0.00    +0.000 OA
ATOM     20  C   UNL     1       3.518   2.628  17.654  0.00  0.00    +0.000 C 
ATOM     21  C   UNL     1       2.423   3.618  17.201  0.00  0.00    +0.000 C 
ENDBRANCH  15  16
ENDBRANCH   1  15
BRANCH   1  22
ATOM     22  C   UNL     1       2.299   7.535  19.764  0.00  0.00    +0.000 C 
BRANCH  22  23
ATOM     23  C   UNL     1       1.316   8.672  19.431  0.00  0.00    +0.000 A 
ATOM     24  C   UNL     1       1.207   9.094  18.093  0.00  0.00    +0.000 A 
ATOM     25  C   UNL     1       0.246  10.037  17.688  0.00  0.00    +0.000 A 
ATOM     26  C   UNL     1      -0.656  10.570  18.607  0.00  0.00    +0.000 A 
ATOM     27  C   UNL     1      -0.495  10.241  19.948  0.00  0.00    +0.000 A 
ATOM     28  C   UNL     1       0.484   9.313  20.356  0.00  0.00    +0.000 A 
BRANCH  26  29
ATOM     29  O   UNL     1      -1.578  11.437  18.096  0.00  0.00    +0.000 OA
BRANCH  29  30
ATOM     30  C   UNL     1      -2.873  10.988  17.635  0.00  0.00    +0.000 C 
ATOM     31  C   UNL     1      -3.998  11.802  18.285  0.00  0.00    +0.000 C 
ATOM     32  C   UNL     1      -2.902  11.307  16.122  0.00  0.00    +0.000 C 
ATOM     33  C   UNL     1      -3.090   9.473  17.774  0.00  0.00    +0.000 C 
ENDBRANCH  29  30
ENDBRANCH  26  29
ENDBRANCH  22  23
BRANCH  22  34
ATOM     34  O   UNL     1       1.881   7.001  21.029  0.00  0.00    +0.000 OA
ATOM     35  H   UNL     1       2.646   6.954  21.623  0.00  0.00    +0.000 HD
ENDBRANCH  22  34
ENDBRANCH   1  22
TORSDOF 16
ENDMDL
MODEL 8
REMARK VINA RESULT:      -6.9      3.326      5.367
REMARK  Name = 
REMARK  20 active torsions:
REMARK  status: ('A' for Active; 'I' for Inactive)
REMARK    1  A    between atoms: C_1  and  C_2
REMARK    2  A    between atoms: C_2  and  C_3
REMARK    3  A    between atoms: C_3  and  C_4
REMARK    4  A    between atoms: C_4  and  C_5
REMARK    5  A    between atoms: C_5  and  C_6
REMARK    6  A    between atoms: C_6  and  C_7
REMARK    7  A    between atoms: C_7  and  C_8
REMARK    8  A    between atoms: C_8  and  C_9
REMARK    9  A    between atoms: C_9  and  C_10
REMARK   10  A    between atoms: N_12  and  C_13
REMARK   11  A    between atoms: C_13  and  C_14
REMARK   12  A    between atoms: C_13  and  C_21
REMARK   13  A    between atoms: C_14  and  N_15
REMARK   14  A    between atoms: C_21  and  O_22
REMARK   15  A    between atoms: C_21  and  C_23
REMARK   16  A    between atoms: C_26  and  O_27
REMARK   17  A    between atoms: O_27  and  C_28
REMARK   18  A    between atoms: C_28  and  C_29
REMARK   19  A    between atoms: C_28  and  C_30
REMARK   20  A    between atoms: C_28  and  C_31
REMARK                            x       y       z     vdW  Elec       q    Type
REMARK                         _______ _______ _______ _____ _____    ______ ____
ROOT
ATOM      1  C   UNL     1       2.222   6.622  19.223  0.00  0.00    +0.000 C 
ENDROOT
BRANCH   1   4
ATOM      2  C   UNL     1       4.523   6.371  18.260  0.00  0.00    +0.000 C 
ATOM      3  O   UNL     1       5.004   5.829  19.246  0.00  0.00    +0.000 OA
ATOM      4  N   UNL     1       3.216   6.776  18.159  0.00  0.00    +0.000 N 
ATOM      5  H   UNL     1       2.916   7.288  17.333  0.00  0.00    +0.000 HD
BRANCH   2   6
ATOM      6  C   UNL     1       5.310   6.755  17.020  0.00  0.00    +0.000 C 
BRANCH   6   7
ATOM      7  C   UNL     1       6.822   6.595  17.114  0.00  0.00    +0.000 C 
BRANCH   7   8
ATOM      8  C   UNL     1       7.224   5.349  16.313  0.00  0.00    +0.000 C 
BRANCH   8   9
ATOM      9  C   UNL     1       6.363   4.129  16.618  0.00  0.00    +0.000 C 
BRANCH   9  10
ATOM     10  C   UNL     1       5.915   3.440  15.323  0.00  0.00    +0.000 C 
BRANCH  10  11
ATOM     11  C   UNL     1       5.941   4.427  14.158  0.00  0.00    +0.000 C 
BRANCH  11  12
ATOM     12  C   UNL     1       6.492   3.808  12.871  0.00  0.00    +0.000 C 
BRANCH  12  14
ATOM     13  C   UNL     1       5.654   1.919  11.409  0.00  0.00    +0.000 C 
ATOM     14  C   UNL     1       5.342   3.278  12.011  0.00  0.00    +0.000 C 
ENDBRANCH  12  14
ENDBRANCH  11  12
ENDBRANCH  10  11
ENDBRANCH   9  10
ENDBRANCH   8   9
ENDBRANCH   7   8
ENDBRANCH   6   7
ENDBRANCH   2   6
ENDBRANCH   1   4
BRANCH   1  15
ATOM     15  C   UNL     1       2.504   5.339  20.105  0.00  0.00    +0.000 C 
BRANCH  15  16
ATOM     16  N   UNL     1       1.685   4.108  19.935  0.00  0.00    +0.000 NA
ATOM     17  C   UNL     1       2.295   2.865  20.468  0.00  0.00    +0.000 C 
ATOM     18  C   UNL     1       3.503   2.336  19.675  0.00  0.00    +0.000 C 
ATOM     19  O   UNL     1       3.143   2.084  18.312  0.00  0.00    +0.000 OA
ATOM     20  C   UNL     1       2.637   3.278  17.703  0.00  0.00    +0.000 C 
ATOM     21  C   UNL     1       1.431   3.844  18.485  0.00  0.00    +0.000 C 
ENDBRANCH  15  16
ENDBRANCH   1  15
BRANCH   1  22
ATOM     22  C   UNL     1       2.026   7.927  20.083  0.00  0.00    +0.000 C 
BRANCH  22  23
ATOM     23  C   UNL     1       1.012   8.995  19.636  0.00  0.00    +0.000 A 
ATOM     24  C   UNL     1       0.987   9.371  18.280  0.00  0.00    +0.000 A 
ATOM     25  C   UNL     1       0.011  10.245  17.770  0.00  0.00    +0.000 A 
ATOM     26  C   UNL     1      -0.989  10.752  18.598  0.00  0.00    +0.000 A 
ATOM     27  C   UNL     1      -0.917  10.473  19.957  0.00  0.00    +0.000 A 
ATOM     28  C   UNL     1       0.076   9.614  20.471  0.00  0.00    +0.000 A 
BRANCH  26  29
ATOM     29  O   UNL     1      -1.914  11.550  17.987  0.00  0.00    +0.000 OA
BRANCH  29  30
ATOM     30  C   UNL     1      -3.113  11.006  17.391  0.00  0.00    +0.000 C 
ATOM     31  C   UNL     1      -3.254   9.513  17.712  0.00  0.00    +0.000 C 
ATOM     32  C   UNL     1      -4.284  11.730  18.096  0.00  0.00    +0.000 C 
ATOM     33  C   UNL     1      -3.250  11.299  15.889  0.00  0.00    +0.000 C 
ENDBRANCH  29  30
ENDBRANCH  26  29
ENDBRANCH  22  23
BRANCH  22  34
ATOM     34  O   UNL     1       1.704   7.613  21.445  0.00  0.00    +0.000 OA
ATOM     35  H   UNL     1       1.139   8.312  21.809  0.00  0.00    +0.000 HD
ENDBRANCH  22  34
ENDBRANCH   1  22
TORSDOF 16
ENDMDL
MODEL 9
REMARK VINA RESULT:      -6.8      0.578      1.052
REMARK  Name = 
REMARK  20 active torsions:
REMARK  status: ('A' for Active; 'I' for Inactive)
REMARK    1  A    between atoms: C_1  and  C_2
REMARK    2  A    between atoms: C_2  and  C_3
REMARK    3  A    between atoms: C_3  and  C_4
REMARK    4  A    between atoms: C_4  and  C_5
REMARK    5  A    between atoms: C_5  and  C_6
REMARK    6  A    between atoms: C_6  and  C_7
REMARK    7  A    between atoms: C_7  and  C_8
REMARK    8  A    between atoms: C_8  and  C_9
REMARK    9  A    between atoms: C_9  and  C_10
REMARK   10  A    between atoms: N_12  and  C_13
REMARK   11  A    between atoms: C_13  and  C_14
REMARK   12  A    between atoms: C_13  and  C_21
REMARK   13  A    between atoms: C_14  and  N_15
REMARK   14  A    between atoms: C_21  and  O_22
REMARK   15  A    between atoms: C_21  and  C_23
REMARK   16  A    between atoms: C_26  and  O_27
REMARK   17  A    between atoms: O_27  and  C_28
REMARK   18  A    between atoms: C_28  and  C_29
REMARK   19  A    between atoms: C_28  and  C_30
REMARK   20  A    between atoms: C_28  and  C_31
REMARK                            x       y       z     vdW  Elec       q    Type
REMARK                         _______ _______ _______ _____ _____    ______ ____
ROOT
ATOM      1  C   UNL     1       3.968   5.479  18.681  0.00  0.00    +0.000 C 
ENDROOT
BRANCH   1   4
ATOM      2  C   UNL     1       5.740   6.127  17.030  0.00  0.00    +0.000 C 
ATOM      3  O   UNL     1       5.283   5.470  16.103  0.00  0.00    +0.000 OA
ATOM      4  N   UNL     1       5.183   6.194  18.281  0.00  0.00    +0.000 N 
ATOM      5  H   UNL     1       5.668   6.703  19.015  0.00  0.00    +0.000 HD
BRANCH   2   6
ATOM      6  C   UNL     1       7.039   6.911  16.969  0.00  0.00    +0.000 C 
BRANCH   6   7
ATOM      7  C   UNL     1       7.129   8.124  17.887  0.00  0.00    +0.000 C 
BRANCH   7   8
ATOM      8  C   UNL     1       8.425   8.877  17.562  0.00  0.00    +0.000 C 
BRANCH   8   9
ATOM      9  C   UNL     1       8.920   9.754  18.707  0.00  0.00    +0.000 C 
BRANCH   9  10
ATOM     10  C   UNL     1       9.196  11.182  18.221  0.00  0.00    +0.000 C 
BRANCH  10  11
ATOM     11  C   UNL     1      10.696  11.397  18.023  0.00  0.00    +0.000 C 
BRANCH  11  12
ATOM     12  C   UNL     1      11.014  12.707  17.300  0.00  0.00    +0.000 C 
BRANCH  12  14
ATOM     13  C   UNL     1      10.688  14.586  18.965  0.00  0.00    +0.000 C 
ATOM     14  C   UNL     1      10.088  13.819  17.799  0.00  0.00    +0.000 C 
ENDBRANCH  12  14
ENDBRANCH  11  12
ENDBRANCH  10  11
ENDBRANCH   9  10
ENDBRANCH   8   9
ENDBRANCH   7   8
ENDBRANCH   6   7
ENDBRANCH   2   6
ENDBRANCH   1   4
BRANCH   1  15
ATOM     15  C   UNL     1       4.243   3.937  18.904  0.00  0.00    +0.000 C 
BRANCH  15  16
ATOM     16  N   UNL     1       3.688   2.926  17.964  0.00  0.00    +0.000 NA
ATOM     17  C   UNL     1       2.532   3.385  17.155  0.00  0.00    +0.000 C 
ATOM     18  C   UNL     1       1.221   3.580  17.937  0.00  0.00    +0.000 C 
ATOM     19  O   UNL     1       0.832   2.364  18.584  0.00  0.00    +0.000 OA
ATOM     20  C   UNL     1       1.869   1.915  19.464  0.00  0.00    +0.000 C 
ATOM     21  C   UNL     1       3.205   1.724  18.713  0.00  0.00    +0.000 C 
ENDBRANCH  15  16
ENDBRANCH   1  15
BRANCH   1  22
ATOM     22  C   UNL     1       3.225   6.152  19.896  0.00  0.00    +0.000 C 
BRANCH  22  23
ATOM     23  C   UNL     1       2.384   7.422  19.673  0.00  0.00    +0.000 A 
ATOM     24  C   UNL     1       2.366   7.997  18.389  0.00  0.00    +0.000 A 
ATOM     25  C   UNL     1       1.527   9.081  18.073  0.00  0.00    +0.000 A 
ATOM     26  C   UNL     1       0.659   9.608  19.027  0.00  0.00    +0.000 A 
ATOM     27  C   UNL     1       0.739   9.118  20.325  0.00  0.00    +0.000 A 
ATOM     28  C   UNL     1       1.596   8.046  20.646  0.00  0.00    +0.000 A 
BRANCH  26  29
ATOM     29  O   UNL     1      -0.145  10.624  18.597  0.00  0.00    +0.000 OA
BRANCH  29  30
ATOM     30  C   UNL     1       0.076  11.993  19.005  0.00  0.00    +0.000 C 
ATOM     31  C   UNL     1      -0.627  12.968  18.051  0.00  0.00    +0.000 C 
ATOM     32  C   UNL     1      -0.620  12.129  20.379  0.00  0.00    +0.000 C 
ATOM     33  C   UNL     1       1.555  12.347  19.219  0.00  0.00    +0.000 C 
ENDBRANCH  29  30
ENDBRANCH  26  29
ENDBRANCH  22  23
BRANCH  22  34
ATOM     34  O   UNL     1       2.370   5.217  20.569  0.00  0.00    +0.000 OA
ATOM     35  H   UNL     1       2.810   4.905  21.375  0.00  0.00    +0.000 HD
ENDBRANCH  22  34
ENDBRANCH   1  22
TORSDOF 16
ENDMDL
