MODEL 1
REMARK VINA RESULT:      -7.0      0.000      0.000
REMARK  Name = 
REMARK  4 active torsions:
REMARK  status: ('A' for Active; 'I' for Inactive)
REMARK    1  A    between atoms: C_2  and  C_3
REMARK    2  A    between atoms: C_2  and  C_10
REMARK    3  A    between atoms: N_13  and  C_14
REMARK    4  A    between atoms: C_23  and  O_24
REMARK                            x       y       z     vdW  Elec       q    Type
REMARK                         _______ _______ _______ _____ _____    ______ ____
ROOT
ATOM      1  C   UNL     1      -0.457  11.513  19.611  0.00  0.00    +0.000 C 
ATOM      2  C   UNL     1      -1.050  12.913  19.465  0.00  0.00    +0.000 C 
ATOM      3  C   UNL     1      -0.240  13.737  18.460  0.00  0.00    +0.000 C 
ATOM      4  N   UNL     1       1.139  13.957  18.895  0.00  0.00    +0.000 NA
ATOM      5  C   UNL     1       1.820  12.670  19.100  0.00  0.00    +0.000 C 
ATOM      6  C   UNL     1       1.049  11.616  19.916  0.00  0.00    +0.000 C 
ENDROOT
BRANCH   4   7
ATOM      7  C   UNL     1       1.363  14.993  19.944  0.00  0.00    +0.000 C 
ATOM      8  C   UNL     1       0.378  16.203  19.896  0.00  0.00    +0.000 C 
ATOM      9  C   UNL     1       0.550  17.028  18.640  0.00  0.00    +0.000 A 
ATOM     10  C   UNL     1      -0.553  17.702  18.094  0.00  0.00    +0.000 A 
ATOM     11  C   UNL     1      -0.441  18.370  16.875  0.00  0.00    +0.000 A 
ATOM     12  C   UNL     1       0.779  18.399  16.207  0.00  0.00    +0.000 A 
ATOM     13  C   UNL     1       1.897  17.785  16.773  0.00  0.00    +0.000 A 
ATOM     14  C   UNL     1       1.796  17.103  17.995  0.00  0.00    +0.000 A 
ATOM     15  C   UNL     1       3.021  16.400  18.542  0.00  0.00    +0.000 C 
ATOM     16  C   UNL     1       2.789  15.631  19.859  0.00  0.00    +0.000 C 
BRANCH  16  17
ATOM     17  O   UNL     1       3.011  16.509  20.981  0.00  0.00    +0.000 OA
ATOM     18  H   UNL     1       3.045  17.417  20.640  0.00  0.00    +0.000 HD
ENDBRANCH  16  17
ENDBRANCH   4   7
BRANCH   1  20
ATOM     19  O   UNL     1       0.010   9.842  17.919  0.00  0.00    +0.000 OA
ATOM     20  C   UNL     1      -0.789  10.660  18.376  0.00  0.00    +0.000 C 
BRANCH  20  21
ATOM     21  C   UNL     1      -2.095  10.836  17.669  0.00  0.00    +0.000 A 
ATOM     22  C   UNL     1      -3.212  11.250  18.390  0.00  0.00    +0.000 A 
ATOM     23  N   UNL     1      -4.452  11.440  17.863  0.00  0.00    +0.000 NA
ATOM     24  C   UNL     1      -4.586  11.212  16.538  0.00  0.00    +0.000 A 
ATOM     25  C   UNL     1      -3.539  10.800  15.737  0.00  0.00    +0.000 A 
ATOM     26  F   UNL     1      -3.724  10.590  14.426  0.00  0.00    +0.000 F 
ATOM     27  C   UNL     1      -2.278  10.605  16.297  0.00  0.00    +0.000 A 
ENDBRANCH  20  21
ENDBRANCH   1  20
TORSDOF 4
ENDMDL
MODEL 2
REMARK VINA RESULT:      -6.9      5.907      7.928
REMARK  Name = 
REMARK  4 active torsions:
REMARK  status: ('A' for Active; 'I' for Inactive)
REMARK    1  A    between atoms: C_2  and  C_3
REMARK    2  A    between atoms: C_2  and  C_10
REMARK    3  A    between atoms: N_13  and  C_14
REMARK    4  A    between atoms: C_23  and  O_24
REMARK                            x       y       z     vdW  Elec       q    Type
REMARK                         _______ _______ _______ _____ _____    ______ ____
ROOT
ATOM      1  C   UNL     1       2.705   6.000  18.243  0.00  0.00    +0.000 C 
ATOM      2  C   UNL     1       2.671   7.240  17.351  0.00  0.00    +0.000 C 
ATOM      3  C   UNL     1       3.023   8.493  18.159  0.00  0.00    +0.000 C 
ATOM      4  N   UNL     1       2.057   8.768  19.220  0.00  0.00    +0.000 NA
ATOM      5  C   UNL     1       1.973   7.625  20.143  0.00  0.00    +0.000 C 
ATOM      6  C   UNL     1       1.838   6.236  19.493  0.00  0.00    +0.000 C 
ENDROOT
BRANCH   4   7
ATOM      7  C   UNL     1       0.758   9.379  18.815  0.00  0.00    +0.000 C 
ATOM      8  C   UNL     1       0.881  10.666  17.940  0.00  0.00    +0.000 C 
ATOM      9  C   UNL     1       1.512  11.812  18.697  0.00  0.00    +0.000 A 
ATOM     10  C   UNL     1       2.272  12.768  18.006  0.00  0.00    +0.000 A 
ATOM     11  C   UNL     1       2.957  13.764  18.702  0.00  0.00    +0.000 A 
ATOM     12  C   UNL     1       2.863  13.835  20.089  0.00  0.00    +0.000 A 
ATOM     13  C   UNL     1       2.059  12.927  20.779  0.00  0.00    +0.000 A 
ATOM     14  C   UNL     1       1.371  11.915  20.092  0.00  0.00    +0.000 A 
ATOM     15  C   UNL     1       0.559  10.915  20.887  0.00  0.00    +0.000 C 
ATOM     16  C   UNL     1      -0.110   9.810  20.044  0.00  0.00    +0.000 C 
BRANCH  16  17
ATOM     17  O   UNL     1      -1.410  10.250  19.606  0.00  0.00    +0.000 OA
ATOM     18  H   UNL     1      -1.611   9.790  18.775  0.00  0.00    +0.000 HD
ENDBRANCH  16  17
ENDBRANCH   4   7
BRANCH   1  20
ATOM     19  O   UNL     1       4.561   5.479  19.712  0.00  0.00    +0.000 OA
ATOM     20  C   UNL     1       4.158   5.606  18.555  0.00  0.00    +0.000 C 
BRANCH  20  21
ATOM     21  C   UNL     1       5.138   5.402  17.444  0.00  0.00    +0.000 A 
ATOM     22  C   UNL     1       6.255   6.228  17.356  0.00  0.00    +0.000 A 
ATOM     23  N   UNL     1       7.211   6.145  16.393  0.00  0.00    +0.000 NA
ATOM     24  C   UNL     1       7.051   5.175  15.465  0.00  0.00    +0.000 A 
ATOM     25  C   UNL     1       5.978   4.304  15.467  0.00  0.00    +0.000 A 
ATOM     26  F   UNL     1       5.866   3.357  14.525  0.00  0.00    +0.000 F 
ATOM     27  C   UNL     1       5.006   4.411  16.460  0.00  0.00    +0.000 A 
ENDBRANCH  20  21
ENDBRANCH   1  20
TORSDOF 4
ENDMDL
MODEL 3
REMARK VINA RESULT:      -6.8      8.984     11.956
REMARK  Name = 
REMARK  4 active torsions:
REMARK  status: ('A' for Active; 'I' for Inactive)
REMARK    1  A    between atoms: C_2  and  C_3
REMARK    2  A    between atoms: C_2  and  C_10
REMARK    3  A    between atoms: N_13  and  C_14
REMARK    4  A    between atoms: C_23  and  O_24
REMARK                            x       y       z     vdW  Elec       q    Type
REMARK                         _______ _______ _______ _____ _____    ______ ____
ROOT
ATOM      1  C   UNL     1       6.375   6.161  16.276  0.00  0.00    +0.000 C 
ATOM      2  C   UNL     1       6.625   6.302  17.776  0.00  0.00    +0.000 C 
ATOM      3  C   UNL     1       5.945   5.165  18.544  0.00  0.00    +0.000 C 
ATOM      4  N   UNL     1       4.490   5.182  18.403  0.00  0.00    +0.000 NA
ATOM      5  C   UNL     1       4.114   5.079  16.985  0.00  0.00    +0.000 C 
ATOM      6  C   UNL     1       4.865   6.008  16.014  0.00  0.00    +0.000 C 
ENDROOT
BRANCH   4   7
ATOM      7  C   UNL     1       3.742   6.189  19.209  0.00  0.00    +0.000 C 
ATOM      8  C   UNL     1       3.311   5.707  20.630  0.00  0.00    +0.000 C 
ATOM      9  C   UNL     1       2.301   4.584  20.568  0.00  0.00    +0.000 A 
ATOM     10  C   UNL     1       2.268   3.621  21.589  0.00  0.00    +0.000 A 
ATOM     11  C   UNL     1       1.425   2.514  21.491  0.00  0.00    +0.000 A 
ATOM     12  C   UNL     1       0.584   2.377  20.390  0.00  0.00    +0.000 A 
ATOM     13  C   UNL     1       0.564   3.360  19.401  0.00  0.00    +0.000 A 
ATOM     14  C   UNL     1       1.414   4.474  19.484  0.00  0.00    +0.000 A 
ATOM     15  C   UNL     1       1.402   5.487  18.359  0.00  0.00    +0.000 C 
ATOM     16  C   UNL     1       2.413   6.641  18.518  0.00  0.00    +0.000 C 
BRANCH  16  17
ATOM     17  O   UNL     1       1.808   7.721  19.256  0.00  0.00    +0.000 OA
ATOM     18  H   UNL     1       2.424   7.972  19.964  0.00  0.00    +0.000 HD
ENDBRANCH  16  17
ENDBRANCH   4   7
BRANCH   1  20
ATOM     19  O   UNL     1       8.062   4.424  16.380  0.00  0.00    +0.000 OA
ATOM     20  C   UNL     1       7.229   5.022  15.697  0.00  0.00    +0.000 C 
BRANCH  20  21
ATOM     21  C   UNL     1       7.092   4.634  14.259  0.00  0.00    +0.000 A 
ATOM     22  C   UNL     1       7.863   5.284  13.299  0.00  0.00    +0.000 A 
ATOM     23  N   UNL     1       7.824   5.025  11.964  0.00  0.00    +0.000 NA
ATOM     24  C   UNL     1       6.973   4.056  11.561  0.00  0.00    +0.000 A 
ATOM     25  C   UNL     1       6.167   3.353  12.436  0.00  0.00    +0.000 A 
ATOM     26  F   UNL     1       5.341   2.399  11.985  0.00  0.00    +0.000 F 
ATOM     27  C   UNL     1       6.217   3.638  13.799  0.00  0.00    +0.000 A 
ENDBRANCH  20  21
ENDBRANCH   1  20
TORSDOF 4
ENDMDL
MODEL 4
REMARK VINA RESULT:      -6.8      1.134      1.382
REMARK  Name = 
REMARK  4 active torsions:
REMARK  status: ('A' for Active; 'I' for Inactive)
REMARK    1  A    between atoms: C_2  and  C_3
REMARK    2  A    between atoms: C_2  and  C_10
REMARK    3  A    between atoms: N_13  and  C_14
REMARK    4  A    between atoms: C_23  and  O_24
REMARK                            x       y       z     vdW  Elec       q    Type
REMARK                         _______ _______ _______ _____ _____    ______ ____
ROOT
ATOM      1  C   UNL     1      -0.558  11.701  19.700  0.00  0.00    +0.000 C 
ATOM      2  C   UNL     1      -1.051  13.141  19.568  0.00  0.00    +0.000 C 
ATOM      3  C   UNL     1      -0.245  13.889  18.503  0.00  0.00    +0.000 C 
ATOM      4  N   UNL     1       1.170  14.008  18.848  0.00  0.00    +0.000 NA
ATOM      5  C   UNL     1       1.764  12.675  19.032  0.00  0.00    +0.000 C 
ATOM      6  C   UNL     1       0.968  11.692  19.909  0.00  0.00    +0.000 C 
ENDROOT
BRANCH   4   7
ATOM      7  C   UNL     1       1.538  15.035  19.865  0.00  0.00    +0.000 C 
ATOM      8  C   UNL     1       0.592  16.276  19.920  0.00  0.00    +0.000 C 
ATOM      9  C   UNL     1       0.654  17.096  18.651  0.00  0.00    +0.000 A 
ATOM     10  C   UNL     1      -0.479  17.805  18.224  0.00  0.00    +0.000 A 
ATOM     11  C   UNL     1      -0.476  18.471  16.998  0.00  0.00    +0.000 A 
ATOM     12  C   UNL     1       0.667  18.462  16.205  0.00  0.00    +0.000 A 
ATOM     13  C   UNL     1       1.818  17.813  16.649  0.00  0.00    +0.000 A 
ATOM     14  C   UNL     1       1.827  17.132  17.877  0.00  0.00    +0.000 A 
ATOM     15  C   UNL     1       3.080  16.391  18.292  0.00  0.00    +0.000 C 
ATOM     16  C   UNL     1       2.966  15.628  19.628  0.00  0.00    +0.000 C 
BRANCH  16  17
ATOM     17  O   UNL     1       3.333  16.497  20.718  0.00  0.00    +0.000 OA
ATOM     18  H   UNL     1       2.537  16.987  20.982  0.00  0.00    +0.000 HD
ENDBRANCH  16  17
ENDBRANCH   4   7
BRANCH   1  20
ATOM     19  O   UNL     1      -0.306  10.015  17.977  0.00  0.00    +0.000 OA
ATOM     20  C   UNL     1      -1.030  10.863  18.500  0.00  0.00    +0.000 C 
BRANCH  20  21
ATOM     21  C   UNL     1      -2.385  11.088  17.912  0.00  0.00    +0.000 A 
ATOM     22  C   UNL     1      -2.576  10.908  16.544  0.00  0.00    +0.000 A 
ATOM     23  N   UNL     1      -3.756  11.087  15.892  0.00  0.00    +0.000 NA
ATOM     24  C   UNL     1      -4.813  11.459  16.647  0.00  0.00    +0.000 A 
ATOM     25  C   UNL     1      -4.727  11.661  18.011  0.00  0.00    +0.000 A 
ATOM     26  F   UNL     1      -5.806  12.028  18.716  0.00  0.00    +0.000 F 
ATOM     27  C   UNL     1      -3.506  11.479  18.659  0.00  0.00    +0.000 A 
ENDBRANCH  20  21
ENDBRANCH   1  20
TORSDOF 4
ENDMDL
MODEL 5
REMARK VINA RESULT:      -6.7      4.287      7.739
REMARK  Name = 
REMARK  4 active torsions:
REMARK  status: ('A' for Active; 'I' for Inactive)
REMARK    1  A    between atoms: C_2  and  C_3
REMARK    2  A    between atoms: C_2  and  C_10
REMARK    3  A    between atoms: N_13  and  C_14
REMARK    4  A    between atoms: C_23  and  O_24
REMARK                            x       y       z     vdW  Elec       q    Type
REMARK                         _______ _______ _______ _____ _____    ______ ____
ROOT
ATOM      1  C   UNL     1      -0.628  11.757  18.599  0.00  0.00    +0.000 C 
ATOM      2  C   UNL     1      -1.486  12.829  19.268  0.00  0.00    +0.000 C 
ATOM      3  C   UNL     1      -2.622  12.185  20.068  0.00  0.00    +0.000 C 
ATOM      4  N   UNL     1      -3.550  11.435  19.225  0.00  0.00    +0.000 NA
ATOM      5  C   UNL     1      -2.835  10.377  18.495  0.00  0.00    +0.000 C 
ATOM      6  C   UNL     1      -1.527  10.797  17.798  0.00  0.00    +0.000 C 
ENDROOT
BRANCH   4   7
ATOM      7  C   UNL     1      -4.538  12.224  18.434  0.00  0.00    +0.000 C 
ATOM      8  C   UNL     1      -5.454  13.166  19.277  0.00  0.00    +0.000 C 
ATOM      9  C   UNL     1      -6.374  12.395  20.195  0.00  0.00    +0.000 A 
ATOM     10  C   UNL     1      -6.775  12.961  21.415  0.00  0.00    +0.000 A 
ATOM     11  C   UNL     1      -7.527  12.219  22.326  0.00  0.00    +0.000 A 
ATOM     12  C   UNL     1      -7.913  10.919  22.013  0.00  0.00    +0.000 A 
ATOM     13  C   UNL     1      -7.573  10.370  20.776  0.00  0.00    +0.000 A 
ATOM     14  C   UNL     1      -6.810  11.102  19.854  0.00  0.00    +0.000 A 
ATOM     15  C   UNL     1      -6.413  10.445  18.549  0.00  0.00    +0.000 C 
ATOM     16  C   UNL     1      -5.527  11.314  17.632  0.00  0.00    +0.000 C 
BRANCH  16  17
ATOM     17  O   UNL     1      -6.357  12.116  16.770  0.00  0.00    +0.000 OA
ATOM     18  H   UNL     1      -5.795  12.449  16.050  0.00  0.00    +0.000 HD
ENDBRANCH  16  17
ENDBRANCH   4   7
BRANCH   1  20
ATOM     19  O   UNL     1       0.379  11.489  20.787  0.00  0.00    +0.000 OA
ATOM     20  C   UNL     1       0.263  11.059  19.639  0.00  0.00    +0.000 C 
BRANCH  20  21
ATOM     21  C   UNL     1       1.049   9.844  19.262  0.00  0.00    +0.000 A 
ATOM     22  C   UNL     1       1.704   9.807  18.034  0.00  0.00    +0.000 A 
ATOM     23  N   UNL     1       2.443   8.760  17.577  0.00  0.00    +0.000 NA
ATOM     24  C   UNL     1       2.545   7.689  18.395  0.00  0.00    +0.000 A 
ATOM     25  C   UNL     1       1.934   7.630  19.633  0.00  0.00    +0.000 A 
ATOM     26  F   UNL     1       2.067   6.545  20.408  0.00  0.00    +0.000 F 
ATOM     27  C   UNL     1       1.176   8.711  20.080  0.00  0.00    +0.000 A 
ENDBRANCH  20  21
ENDBRANCH   1  20
TORSDOF 4
ENDMDL
MODEL 6
REMARK VINA RESULT:      -6.7      2.745      3.402
REMARK  Name = 
REMARK  4 active torsions:
REMARK  status: ('A' for Active; 'I' for Inactive)
REMARK    1  A    between atoms: C_2  and  C_3
REMARK    2  A    between atoms: C_2  and  C_10
REMARK    3  A    between atoms: N_13  and  C_14
REMARK    4  A    between atoms: C_23  and  O_24
REMARK                            x       y       z     vdW  Elec       q    Type
REMARK                         _______ _______ _______ _____ _____    ______ ____
ROOT
ATOM      1  C   UNL     1      -0.154  11.867  20.687  0.00  0.00    +0.000 C 
ATOM      2  C   UNL     1      -1.013  13.102  20.424  0.00  0.00    +0.000 C 
ATOM      3  C   UNL     1      -0.428  13.929  19.276  0.00  0.00    +0.000 C 
ATOM      4  N   UNL     1       0.900  14.456  19.583  0.00  0.00    +0.000 NA
ATOM      5  C   UNL     1       1.828  13.356  19.886  0.00  0.00    +0.000 C 
ATOM      6  C   UNL     1       1.317  12.287  20.870  0.00  0.00    +0.000 C 
ENDROOT
BRANCH   4   7
ATOM      7  C   UNL     1       0.970  15.640  20.488  0.00  0.00    +0.000 C 
ATOM      8  C   UNL     1      -0.049  16.777  20.163  0.00  0.00    +0.000 C 
ATOM      9  C   UNL     1       0.228  17.425  18.825  0.00  0.00    +0.000 A 
ATOM     10  C   UNL     1      -0.833  17.956  18.076  0.00  0.00    +0.000 A 
ATOM     11  C   UNL     1      -0.614  18.451  16.790  0.00  0.00    +0.000 A 
ATOM     12  C   UNL     1       0.670  18.450  16.255  0.00  0.00    +0.000 A 
ATOM     13  C   UNL     1       1.742  17.982  17.016  0.00  0.00    +0.000 A 
ATOM     14  C   UNL     1       1.534  17.474  18.307  0.00  0.00    +0.000 A 
ATOM     15  C   UNL     1       2.716  16.922  19.074  0.00  0.00    +0.000 C 
ATOM     16  C   UNL     1       2.371  16.334  20.459  0.00  0.00    +0.000 C 
BRANCH  16  17
ATOM     17  O   UNL     1       2.435  17.371  21.457  0.00  0.00    +0.000 OA
ATOM     18  H   UNL     1       2.912  17.011  22.223  0.00  0.00    +0.000 HD
ENDBRANCH  16  17
ENDBRANCH   4   7
BRANCH   1  20
ATOM     19  O   UNL     1      -1.353  10.855  18.840  0.00  0.00    +0.000 OA
ATOM     20  C   UNL     1      -0.372  10.818  19.584  0.00  0.00    +0.000 C 
BRANCH  20  21
ATOM     21  C   UNL     1       0.597   9.693  19.413  0.00  0.00    +0.000 A 
ATOM     22  C   UNL     1       0.839   8.831  20.479  0.00  0.00    +0.000 A 
ATOM     23  N   UNL     1       1.699   7.777  20.449  0.00  0.00    +0.000 NA
ATOM     24  C   UNL     1       2.352   7.564  19.285  0.00  0.00    +0.000 A 
ATOM     25  C   UNL     1       2.179   8.362  18.170  0.00  0.00    +0.000 A 
ATOM     26  F   UNL     1       2.849   8.106  17.038  0.00  0.00    +0.000 F 
ATOM     27  C   UNL     1       1.298   9.440  18.224  0.00  0.00    +0.000 A 
ENDBRANCH  20  21
ENDBRANCH   1  20
TORSDOF 4
ENDMDL
MODEL 7
REMARK VINA RESULT:      -6.7      2.950      3.608
REMARK  Name = 
REMARK  4 active torsions:
REMARK  status: ('A' for Active; 'I' for Inactive)
REMARK    1  A    between atoms: C_2  and  C_3
REMARK    2  A    between atoms: C_2  and  C_10
REMARK    3  A    between atoms: N_13  and  C_14
REMARK    4  A    between atoms: C_23  and  O_24
REMARK                            x       y       z     vdW  Elec       q    Type
REMARK                         _______ _______ _______ _____ _____    ______ ____
ROOT
ATOM      1  C   UNL     1      -0.024  11.734  20.688  0.00  0.00    +0.000 C 
ATOM      2  C   UNL     1      -0.969  12.929  20.588  0.00  0.00    +0.000 C 
ATOM      3  C   UNL     1      -0.589  13.817  19.400  0.00  0.00    +0.000 C 
ATOM      4  N   UNL     1       0.743  14.403  19.539  0.00  0.00    +0.000 NA
ATOM      5  C   UNL     1       1.754  13.344  19.673  0.00  0.00    +0.000 C 
ATOM      6  C   UNL     1       1.436  12.224  20.681  0.00  0.00    +0.000 C 
ENDROOT
BRANCH   4   7
ATOM      7  C   UNL     1       0.882  15.563  20.466  0.00  0.00    +0.000 C 
ATOM      8  C   UNL     1      -0.098  16.747  20.189  0.00  0.00    +0.000 C 
ATOM      9  C   UNL     1       0.173  17.411  18.858  0.00  0.00    +0.000 A 
ATOM     10  C   UNL     1      -0.884  18.000  18.147  0.00  0.00    +0.000 A 
ATOM     11  C   UNL     1      -0.676  18.513  16.867  0.00  0.00    +0.000 A 
ATOM     12  C   UNL     1       0.595  18.473  16.300  0.00  0.00    +0.000 A 
ATOM     13  C   UNL     1       1.664  17.946  17.024  0.00  0.00    +0.000 A 
ATOM     14  C   UNL     1       1.467  17.420  18.310  0.00  0.00    +0.000 A 
ATOM     15  C   UNL     1       2.644  16.804  19.036  0.00  0.00    +0.000 C 
ATOM     16  C   UNL     1       2.309  16.202  20.416  0.00  0.00    +0.000 C 
BRANCH  16  17
ATOM     17  O   UNL     1       2.439  17.214  21.433  0.00  0.00    +0.000 OA
ATOM     18  H   UNL     1       2.908  17.967  21.039  0.00  0.00    +0.000 HD
ENDBRANCH  16  17
ENDBRANCH   4   7
BRANCH   1  20
ATOM     19  O   UNL     1      -1.448  10.663  19.045  0.00  0.00    +0.000 OA
ATOM     20  C   UNL     1      -0.345  10.706  19.590  0.00  0.00    +0.000 C 
BRANCH  20  21
ATOM     21  C   UNL     1       0.680   9.697  19.182  0.00  0.00    +0.000 A 
ATOM     22  C   UNL     1       1.271   9.793  17.924  0.00  0.00    +0.000 A 
ATOM     23  N   UNL     1       2.209   8.937  17.437  0.00  0.00    +0.000 NA
ATOM     24  C   UNL     1       2.589   7.929  18.253  0.00  0.00    +0.000 A 
ATOM     25  C   UNL     1       2.063   7.750  19.519  0.00  0.00    +0.000 A 
ATOM     26  F   UNL     1       2.475   6.734  20.290  0.00  0.00    +0.000 F 
ATOM     27  C   UNL     1       1.099   8.634  19.996  0.00  0.00    +0.000 A 
ENDBRANCH  20  21
ENDBRANCH   1  20
TORSDOF 4
ENDMDL
MODEL 8
REMARK VINA RESULT:      -6.6      4.919      8.464
REMARK  Name = 
REMARK  4 active torsions:
REMARK  status: ('A' for Active; 'I' for Inactive)
REMARK    1  A    between atoms: C_2  and  C_3
REMARK    2  A    between atoms: C_2  and  C_10
REMARK    3  A    between atoms: N_13  and  C_14
REMARK    4  A    between atoms: C_23  and  O_24
REMARK                            x       y       z     vdW  Elec       q    Type
REMARK                         _______ _______ _______ _____ _____    ______ ____
ROOT
ATOM      1  C   UNL     1      -2.928  15.083  23.142  0.00  0.00    +0.000 C 
ATOM      2  C   UNL     1      -4.209  14.602  23.820  0.00  0.00    +0.000 C 
ATOM      3  C   UNL     1      -4.595  13.210  23.313  0.00  0.00    +0.000 C 
ATOM      4  N   UNL     1      -4.900  13.196  21.883  0.00  0.00    +0.000 NA
ATOM      5  C   UNL     1      -3.742  13.670  21.111  0.00  0.00    +0.000 C 
ATOM      6  C   UNL     1      -3.072  14.962  21.614  0.00  0.00    +0.000 C 
ENDROOT
BRANCH   4   7
ATOM      7  C   UNL     1      -6.229  13.729  21.467  0.00  0.00    +0.000 C 
ATOM      8  C   UNL     1      -7.437  12.783  21.753  0.00  0.00    +0.000 C 
ATOM      9  C   UNL     1      -7.371  11.513  20.936  0.00  0.00    +0.000 A 
ATOM     10  C   UNL     1      -7.917  10.326  21.450  0.00  0.00    +0.000 A 
ATOM     11  C   UNL     1      -7.762   9.121  20.764  0.00  0.00    +0.000 A 
ATOM     12  C   UNL     1      -7.092   9.096  19.545  0.00  0.00    +0.000 A 
ATOM     13  C   UNL     1      -6.601  10.281  18.996  0.00  0.00    +0.000 A 
ATOM     14  C   UNL     1      -6.743  11.498  19.679  0.00  0.00    +0.000 A 
ATOM     15  C   UNL     1      -6.142  12.750  19.074  0.00  0.00    +0.000 C 
ATOM     16  C   UNL     1      -6.302  14.022  19.932  0.00  0.00    +0.000 C 
BRANCH  16  17
ATOM     17  O   UNL     1      -7.545  14.676  19.607  0.00  0.00    +0.000 OA
ATOM     18  H   UNL     1      -7.379  15.258  18.846  0.00  0.00    +0.000 HD
ENDBRANCH  16  17
ENDBRANCH   4   7
BRANCH   1  20
ATOM     19  O   UNL     1      -1.253  14.609  24.828  0.00  0.00    +0.000 OA
ATOM     20  C   UNL     1      -1.709  14.342  23.716  0.00  0.00    +0.000 C 
BRANCH  20  21
ATOM     21  C   UNL     1      -1.019  13.291  22.907  0.00  0.00    +0.000 A 
ATOM     22  C   UNL     1      -0.012  13.662  22.019  0.00  0.00    +0.000 A 
ATOM     23  N   UNL     1       0.683  12.802  21.228  0.00  0.00    +0.000 NA
ATOM     24  C   UNL     1       0.365  11.493  21.332  0.00  0.00    +0.000 A 
ATOM     25  C   UNL     1      -0.616  11.025  22.185  0.00  0.00    +0.000 A 
ATOM     26  F   UNL     1      -0.893   9.715  22.253  0.00  0.00    +0.000 F 
ATOM     27  C   UNL     1      -1.322  11.923  22.983  0.00  0.00    +0.000 A 
ENDBRANCH  20  21
ENDBRANCH   1  20
TORSDOF 4
ENDMDL
MODEL 9
REMARK VINA RESULT:      -6.5      7.089     10.340
REMARK  Name = 
REMARK  4 active torsions:
REMARK  status: ('A' for Active; 'I' for Inactive)
REMARK    1  A    between atoms: C_2  and  C_3
REMARK    2  A    between atoms: C_2  and  C_10
REMARK    3  A    between atoms: N_13  and  C_14
REMARK    4  A    between atoms: C_23  and  O_24
REMARK                            x       y       z     vdW  Elec       q    Type
REMARK                         _______ _______ _______ _____ _____    ______ ____
ROOT
ATOM      1  C   UNL     1       2.316   6.951  20.554  0.00  0.00    +0.000 C 
ATOM      2  C   UNL     1       3.551   6.636  19.713  0.00  0.00    +0.000 C 
ATOM      3  C   UNL     1       3.150   5.941  18.409  0.00  0.00    +0.000 C 
ATOM      4  N   UNL     1       2.510   4.646  18.635  0.00  0.00    +0.000 NA
ATOM      5  C   UNL     1       1.308   4.809  19.466  0.00  0.00    +0.000 C 
ATOM      6  C   UNL     1       1.467   5.678  20.728  0.00  0.00    +0.000 C 
ENDROOT
BRANCH   4   7
ATOM      7  C   UNL     1       3.399   3.501  18.986  0.00  0.00    +0.000 C 
ATOM      8  C   UNL     1       4.919   3.848  19.066  0.00  0.00    +0.000 C 
ATOM      9  C   UNL     1       5.484   4.246  17.721  0.00  0.00    +0.000 A 
ATOM     10  C   UNL     1       6.548   5.159  17.655  0.00  0.00    +0.000 A 
ATOM     11  C   UNL     1       7.004   5.626  16.423  0.00  0.00    +0.000 A 
ATOM     12  C   UNL     1       6.425   5.162  15.246  0.00  0.00    +0.000 A 
ATOM     13  C   UNL     1       5.409   4.207  15.298  0.00  0.00    +0.000 A 
ATOM     14  C   UNL     1       4.936   3.735  16.532  0.00  0.00    +0.000 A 
ATOM     15  C   UNL     1       3.791   2.743  16.544  0.00  0.00    +0.000 C 
ATOM     16  C   UNL     1       3.307   2.332  17.950  0.00  0.00    +0.000 C 
BRANCH  16  17
ATOM     17  O   UNL     1       4.063   1.195  18.412  0.00  0.00    +0.000 OA
ATOM     18  H   UNL     1       3.605   0.837  19.190  0.00  0.00    +0.000 HD
ENDBRANCH  16  17
ENDBRANCH   4   7
BRANCH   1  20
ATOM     19  O   UNL     1       1.550   8.365  18.741  0.00  0.00    +0.000 OA
ATOM     20  C   UNL     1       1.547   8.138  19.952  0.00  0.00    +0.000 C 
BRANCH  20  21
ATOM     21  C   UNL     1       0.796   9.077  20.840  0.00  0.00    +0.000 A 
ATOM     22  C   UNL     1       1.034   9.058  22.212  0.00  0.00    +0.000 A 
ATOM     23  N   UNL     1       0.413   9.857  23.121  0.00  0.00    +0.000 NA
ATOM     24  C   UNL     1      -0.493  10.734  22.635  0.00  0.00    +0.000 A 
ATOM     25  C   UNL     1      -0.797  10.831  21.291  0.00  0.00    +0.000 A 
ATOM     26  F   UNL     1      -1.703  11.720  20.859  0.00  0.00    +0.000 F 
ATOM     27  C   UNL     1      -0.155   9.999  20.377  0.00  0.00    +0.000 A 
ENDBRANCH  20  21
ENDBRANCH   1  20
TORSDOF 4
ENDMDL
