MODEL 1
REMARK VINA RESULT:      -6.6      0.000      0.000
REMARK  Name = 
REMARK  11 active torsions:
REMARK  status: ('A' for Active; 'I' for Inactive)
REMARK    1  A    between atoms: C_1  and  O_2
REMARK    2  A    between atoms: O_2  and  C_3
REMARK    3  A    between atoms: C_5  and  C_6
REMARK    4  A    between atoms: C_9  and  C_10
REMARK    5  A    between atoms: C_13  and  O_14
REMARK    6  A    between atoms: C_15  and  O_16
REMARK    7  A    between atoms: O_16  and  C_17
REMARK    8  A    between atoms: C_22  and  O_23
REMARK    9  A    between atoms: O_23  and  C_24
REMARK   10  A    between atoms: C_25  and  O_26
REMARK   11  A    between atoms: O_26  and  C_27
REMARK                            x       y       z     vdW  Elec       q    Type
REMARK                         _______ _______ _______ _____ _____    ______ ____
ROOT
ATOM      1  C   UNL     1       1.441   8.542  20.680  0.00  0.00    +0.000 C 
ATOM      2  O   UNL     1       1.292   8.676  21.912  0.00  0.00    +0.000 OA
ATOM      3  N   UNL     1       1.276   9.715  19.867  0.00  0.00    +0.000 N 
ATOM      4  C   UNL     1       1.058   9.573  18.503  0.00  0.00    +0.000 A 
ATOM      5  C   UNL     1      -0.414   9.414  18.166  0.00  0.00    +0.000 C 
ATOM      6  C   UNL     1       2.066  10.459  18.138  0.00  0.00    +0.000 A 
ATOM      7  C   UNL     1       1.634  11.631  18.785  0.00  0.00    +0.000 A 
ATOM      8  C   UNL     1       1.687  13.008  18.473  0.00  0.00    +0.000 A 
ATOM      9  C   UNL     1       0.848  13.905  19.169  0.00  0.00    +0.000 A 
ATOM     10  C   UNL     1       0.107  13.411  20.261  0.00  0.00    +0.000 A 
ATOM     11  C   UNL     1       0.240  12.045  20.733  0.00  0.00    +0.000 A 
ATOM     12  C   UNL     1       1.007  11.142  19.965  0.00  0.00    +0.000 A 
ENDROOT
BRANCH   1  15
ATOM     13  C   UNL     1       1.545   4.639  20.000  0.00  0.00    +0.000 A 
ATOM     14  C   UNL     1       1.278   5.926  20.580  0.00  0.00    +0.000 A 
ATOM     15  C   UNL     1       1.811   7.123  20.058  0.00  0.00    +0.000 A 
ATOM     16  C   UNL     1       2.686   6.947  18.968  0.00  0.00    +0.000 A 
ATOM     17  C   UNL     1       3.003   5.674  18.400  0.00  0.00    +0.000 A 
ATOM     18  C   UNL     1       2.427   4.495  18.906  0.00  0.00    +0.000 A 
BRANCH  13  20
ATOM     19  C   UNL     1       1.697   2.937  21.652  0.00  0.00    +0.000 C 
ATOM     20  O   UNL     1       1.024   3.478  20.521  0.00  0.00    +0.000 OA
ENDBRANCH  13  20
BRANCH  17  21
ATOM     21  O   UNL     1       3.841   5.776  17.310  0.00  0.00    +0.000 OA
ATOM     22  C   UNL     1       5.240   5.951  17.526  0.00  0.00    +0.000 C 
ENDBRANCH  17  21
BRANCH  18  23
ATOM     23  O   UNL     1       2.827   3.325  18.326  0.00  0.00    +0.000 OA
ATOM     24  C   UNL     1       3.955   2.578  18.761  0.00  0.00    +0.000 C 
ENDBRANCH  18  23
ENDBRANCH   1  15
BRANCH   8  25
ATOM     25  O   UNL     1       2.373  13.478  17.383  0.00  0.00    +0.000 OA
ATOM     26  H   UNL     1       1.934  14.286  17.082  0.00  0.00    +0.000 HD
ENDBRANCH   8  25
BRANCH   9  27
ATOM     27  O   UNL     1       0.883  15.173  18.675  0.00  0.00    +0.000 OA
ATOM     28  C   UNL     1      -0.233  16.041  18.684  0.00  0.00    +0.000 C 
ENDBRANCH   9  27
TORSDOF 6
ENDMDL
MODEL 2
REMARK VINA RESULT:      -6.5      0.103      2.329
REMARK  Name = 
REMARK  11 active torsions:
REMARK  status: ('A' for Active; 'I' for Inactive)
REMARK    1  A    between atoms: C_1  and  O_2
REMARK    2  A    between atoms: O_2  and  C_3
REMARK    3  A    between atoms: C_5  and  C_6
REMARK    4  A    between atoms: C_9  and  C_10
REMARK    5  A    between atoms: C_13  and  O_14
REMARK    6  A    between atoms: C_15  and  O_16
REMARK    7  A    between atoms: O_16  and  C_17
REMARK    8  A    between atoms: C_22  and  O_23
REMARK    9  A    between atoms: O_23  and  C_24
REMARK   10  A    between atoms: C_25  and  O_26
REMARK   11  A    between atoms: O_26  and  C_27
REMARK                            x       y       z     vdW  Elec       q    Type
REMARK                         _______ _______ _______ _____ _____    ______ ____
ROOT
ATOM      1  C   UNL     1       1.429   8.513  20.607  0.00  0.00    +0.000 C 
ATOM      2  O   UNL     1       1.275   8.628  21.840  0.00  0.00    +0.000 OA
ATOM      3  N   UNL     1       1.272   9.699  19.811  0.00  0.00    +0.000 N 
ATOM      4  C   UNL     1       1.058   9.579  18.444  0.00  0.00    +0.000 A 
ATOM      5  C   UNL     1      -0.412   9.432  18.099  0.00  0.00    +0.000 C 
ATOM      6  C   UNL     1       2.071  10.467  18.097  0.00  0.00    +0.000 A 
ATOM      7  C   UNL     1       1.642  11.631  18.761  0.00  0.00    +0.000 A 
ATOM      8  C   UNL     1       1.701  13.012  18.470  0.00  0.00    +0.000 A 
ATOM      9  C   UNL     1       0.862  13.901  19.178  0.00  0.00    +0.000 A 
ATOM     10  C   UNL     1       0.115  13.393  20.258  0.00  0.00    +0.000 A 
ATOM     11  C   UNL     1       0.241  12.019  20.710  0.00  0.00    +0.000 A 
ATOM     12  C   UNL     1       1.008  11.126  19.930  0.00  0.00    +0.000 A 
ENDROOT
BRANCH   1  15
ATOM     13  C   UNL     1       3.061   5.738  18.296  0.00  0.00    +0.000 A 
ATOM     14  C   UNL     1       2.663   7.000  18.856  0.00  0.00    +0.000 A 
ATOM     15  C   UNL     1       1.796   7.103  19.964  0.00  0.00    +0.000 A 
ATOM     16  C   UNL     1       1.294   5.871  20.429  0.00  0.00    +0.000 A 
ATOM     17  C   UNL     1       1.639   4.605  19.861  0.00  0.00    +0.000 A 
ATOM     18  C   UNL     1       2.539   4.519  18.785  0.00  0.00    +0.000 A 
BRANCH  13  20
ATOM     19  C   UNL     1       5.295   5.753  17.483  0.00  0.00    +0.000 C 
ATOM     20  O   UNL     1       3.902   5.650  17.211  0.00  0.00    +0.000 OA
ENDBRANCH  13  20
BRANCH  17  21
ATOM     21  O   UNL     1       1.055   3.550  20.530  0.00  0.00    +0.000 OA
ATOM     22  C   UNL     1       1.717   3.000  21.667  0.00  0.00    +0.000 C 
ENDBRANCH  17  21
BRANCH  18  23
ATOM     23  O   UNL     1       2.770   3.271  18.283  0.00  0.00    +0.000 OA
ATOM     24  C   UNL     1       3.845   2.441  18.706  0.00  0.00    +0.000 C 
ENDBRANCH  18  23
ENDBRANCH   1  15
BRANCH   8  25
ATOM     25  O   UNL     1       2.393  13.496  17.390  0.00  0.00    +0.000 OA
ATOM     26  H   UNL     1       2.118  12.992  16.612  0.00  0.00    +0.000 HD
ENDBRANCH   8  25
BRANCH   9  27
ATOM     27  O   UNL     1       0.905  15.177  18.704  0.00  0.00    +0.000 OA
ATOM     28  C   UNL     1      -0.224  16.027  18.663  0.00  0.00    +0.000 C 
ENDBRANCH   9  27
TORSDOF 6
ENDMDL
MODEL 3
REMARK VINA RESULT:      -6.3      1.706      2.368
REMARK  Name = 
REMARK  11 active torsions:
REMARK  status: ('A' for Active; 'I' for Inactive)
REMARK    1  A    between atoms: C_1  and  O_2
REMARK    2  A    between atoms: O_2  and  C_3
REMARK    3  A    between atoms: C_5  and  C_6
REMARK    4  A    between atoms: C_9  and  C_10
REMARK    5  A    between atoms: C_13  and  O_14
REMARK    6  A    between atoms: C_15  and  O_16
REMARK    7  A    between atoms: O_16  and  C_17
REMARK    8  A    between atoms: C_22  and  O_23
REMARK    9  A    between atoms: O_23  and  C_24
REMARK   10  A    between atoms: C_25  and  O_26
REMARK   11  A    between atoms: O_26  and  C_27
REMARK                            x       y       z     vdW  Elec       q    Type
REMARK                         _______ _______ _______ _____ _____    ______ ____
ROOT
ATOM      1  C   UNL     1       2.016   7.621  19.644  0.00  0.00    +0.000 C 
ATOM      2  O   UNL     1       1.724   7.225  20.791  0.00  0.00    +0.000 OA
ATOM      3  N   UNL     1       1.528   8.915  19.251  0.00  0.00    +0.000 N 
ATOM      4  C   UNL     1       1.490   9.248  17.904  0.00  0.00    +0.000 A 
ATOM      5  C   UNL     1       0.198   8.814  17.236  0.00  0.00    +0.000 C 
ATOM      6  C   UNL     1       2.159  10.456  18.071  0.00  0.00    +0.000 A 
ATOM      7  C   UNL     1       1.297  11.114  18.967  0.00  0.00    +0.000 A 
ATOM      8  C   UNL     1       0.899  12.457  19.149  0.00  0.00    +0.000 A 
ATOM      9  C   UNL     1      -0.254  12.737  19.915  0.00  0.00    +0.000 A 
ATOM     10  C   UNL     1      -0.871  11.672  20.601  0.00  0.00    +0.000 A 
ATOM     11  C   UNL     1      -0.317  10.331  20.609  0.00  0.00    +0.000 A 
ATOM     12  C   UNL     1       0.777  10.053  19.760  0.00  0.00    +0.000 A 
ENDROOT
BRANCH   1  15
ATOM     13  C   UNL     1       3.292   4.577  17.451  0.00  0.00    +0.000 A 
ATOM     14  C   UNL     1       2.544   5.391  18.369  0.00  0.00    +0.000 A 
ATOM     15  C   UNL     1       2.903   6.720  18.676  0.00  0.00    +0.000 A 
ATOM     16  C   UNL     1       4.096   7.158  18.067  0.00  0.00    +0.000 A 
ATOM     17  C   UNL     1       4.882   6.353  17.185  0.00  0.00    +0.000 A 
ATOM     18  C   UNL     1       4.484   5.046  16.856  0.00  0.00    +0.000 A 
BRANCH  13  20
ATOM     19  C   UNL     1       3.276   2.301  18.139  0.00  0.00    +0.000 C 
ATOM     20  O   UNL     1       2.935   3.280  17.163  0.00  0.00    +0.000 OA
ENDBRANCH  13  20
BRANCH  17  21
ATOM     21  O   UNL     1       5.972   7.032  16.681  0.00  0.00    +0.000 OA
ATOM     22  C   UNL     1       7.210   6.972  17.387  0.00  0.00    +0.000 C 
ENDBRANCH  17  21
BRANCH  18  23
ATOM     23  O   UNL     1       5.324   4.341  16.042  0.00  0.00    +0.000 OA
ATOM     24  C   UNL     1       5.377   4.511  14.631  0.00  0.00    +0.000 C 
ENDBRANCH  18  23
ENDBRANCH   1  15
BRANCH   8  25
ATOM     25  O   UNL     1       1.473  13.484  18.445  0.00  0.00    +0.000 OA
ATOM     26  H   UNL     1       2.421  13.302  18.376  0.00  0.00    +0.000 HD
ENDBRANCH   8  25
BRANCH   9  27
ATOM     27  O   UNL     1      -0.614  14.049  19.889  0.00  0.00    +0.000 OA
ATOM     28  C   UNL     1      -1.588  14.603  20.752  0.00  0.00    +0.000 C 
ENDBRANCH   9  27
TORSDOF 6
ENDMDL
MODEL 4
REMARK VINA RESULT:      -6.3      1.707      3.169
REMARK  Name = 
REMARK  11 active torsions:
REMARK  status: ('A' for Active; 'I' for Inactive)
REMARK    1  A    between atoms: C_1  and  O_2
REMARK    2  A    between atoms: O_2  and  C_3
REMARK    3  A    between atoms: C_5  and  C_6
REMARK    4  A    between atoms: C_9  and  C_10
REMARK    5  A    between atoms: C_13  and  O_14
REMARK    6  A    between atoms: C_15  and  O_16
REMARK    7  A    between atoms: O_16  and  C_17
REMARK    8  A    between atoms: C_22  and  O_23
REMARK    9  A    between atoms: O_23  and  C_24
REMARK   10  A    between atoms: C_25  and  O_26
REMARK   11  A    between atoms: O_26  and  C_27
REMARK                            x       y       z     vdW  Elec       q    Type
REMARK                         _______ _______ _______ _____ _____    ______ ____
ROOT
ATOM      1  C   UNL     1       2.006   7.649  19.599  0.00  0.00    +0.000 C 
ATOM      2  O   UNL     1       1.731   7.247  20.748  0.00  0.00    +0.000 OA
ATOM      3  N   UNL     1       1.506   8.942  19.218  0.00  0.00    +0.000 N 
ATOM      4  C   UNL     1       1.449   9.280  17.873  0.00  0.00    +0.000 A 
ATOM      5  C   UNL     1       0.151   8.842  17.220  0.00  0.00    +0.000 C 
ATOM      6  C   UNL     1       2.114  10.491  18.036  0.00  0.00    +0.000 A 
ATOM      7  C   UNL     1       1.260  11.141  18.946  0.00  0.00    +0.000 A 
ATOM      8  C   UNL     1       0.858  12.482  19.138  0.00  0.00    +0.000 A 
ATOM      9  C   UNL     1      -0.287  12.752  19.920  0.00  0.00    +0.000 A 
ATOM     10  C   UNL     1      -0.889  11.682  20.610  0.00  0.00    +0.000 A 
ATOM     11  C   UNL     1      -0.328  10.343  20.605  0.00  0.00    +0.000 A 
ATOM     12  C   UNL     1       0.756  10.074  19.741  0.00  0.00    +0.000 A 
ENDROOT
BRANCH   1  15
ATOM     13  C   UNL     1       4.908   6.452  17.181  0.00  0.00    +0.000 A 
ATOM     14  C   UNL     1       4.062   7.255  18.020  0.00  0.00    +0.000 A 
ATOM     15  C   UNL     1       2.885   6.756  18.617  0.00  0.00    +0.000 A 
ATOM     16  C   UNL     1       2.567   5.430  18.261  0.00  0.00    +0.000 A 
ATOM     17  C   UNL     1       3.367   4.625  17.393  0.00  0.00    +0.000 A 
ATOM     18  C   UNL     1       4.561   5.125  16.843  0.00  0.00    +0.000 A 
BRANCH  13  20
ATOM     19  C   UNL     1       7.245   6.845  17.366  0.00  0.00    +0.000 C 
ATOM     20  O   UNL     1       6.050   6.951  16.600  0.00  0.00    +0.000 OA
ENDBRANCH  13  20
BRANCH  17  21
ATOM     21  O   UNL     1       2.867   3.348  17.246  0.00  0.00    +0.000 OA
ATOM     22  C   UNL     1       3.273   2.336  18.165  0.00  0.00    +0.000 C 
ENDBRANCH  17  21
BRANCH  18  23
ATOM     23  O   UNL     1       5.232   4.296  15.991  0.00  0.00    +0.000 OA
ATOM     24  C   UNL     1       5.360   4.540  14.596  0.00  0.00    +0.000 C 
ENDBRANCH  18  23
ENDBRANCH   1  15
BRANCH   8  25
ATOM     25  O   UNL     1       1.418  13.514  18.430  0.00  0.00    +0.000 OA
ATOM     26  H   UNL     1       2.141  13.151  17.901  0.00  0.00    +0.000 HD
ENDBRANCH   8  25
BRANCH   9  27
ATOM     27  O   UNL     1      -0.654  14.063  19.904  0.00  0.00    +0.000 OA
ATOM     28  C   UNL     1      -1.557  14.627  20.835  0.00  0.00    +0.000 C 
ENDBRANCH   9  27
TORSDOF 6
ENDMDL
MODEL 5
REMARK VINA RESULT:      -5.8      2.983      8.776
REMARK  Name = 
REMARK  11 active torsions:
REMARK  status: ('A' for Active; 'I' for Inactive)
REMARK    1  A    between atoms: C_1  and  O_2
REMARK    2  A    between atoms: O_2  and  C_3
REMARK    3  A    between atoms: C_5  and  C_6
REMARK    4  A    between atoms: C_9  and  C_10
REMARK    5  A    between atoms: C_13  and  O_14
REMARK    6  A    between atoms: C_15  and  O_16
REMARK    7  A    between atoms: O_16  and  C_17
REMARK    8  A    between atoms: C_22  and  O_23
REMARK    9  A    between atoms: O_23  and  C_24
REMARK   10  A    between atoms: C_25  and  O_26
REMARK   11  A    between atoms: O_26  and  C_27
REMARK                            x       y       z     vdW  Elec       q    Type
REMARK                         _______ _______ _______ _____ _____    ______ ____
ROOT
ATOM      1  C   UNL     1       0.604  12.366  19.777  0.00  0.00    +0.000 C 
ATOM      2  O   UNL     1       1.387  13.009  19.048  0.00  0.00    +0.000 OA
ATOM      3  N   UNL     1       0.694  10.932  19.735  0.00  0.00    +0.000 N 
ATOM      4  C   UNL     1      -0.363  10.169  20.211  0.00  0.00    +0.000 A 
ATOM      5  C   UNL     1      -1.412   9.903  19.147  0.00  0.00    +0.000 C 
ATOM      6  C   UNL     1       0.434   9.378  21.033  0.00  0.00    +0.000 A 
ATOM      7  C   UNL     1       1.315   8.820  20.088  0.00  0.00    +0.000 A 
ATOM      8  C   UNL     1       1.952   7.566  19.952  0.00  0.00    +0.000 A 
ATOM      9  C   UNL     1       2.496   7.203  18.701  0.00  0.00    +0.000 A 
ATOM     10  C   UNL     1       2.524   8.173  17.680  0.00  0.00    +0.000 A 
ATOM     11  C   UNL     1       2.088   9.540  17.899  0.00  0.00    +0.000 A 
ATOM     12  C   UNL     1       1.458   9.855  19.122  0.00  0.00    +0.000 A 
ENDROOT
BRANCH   1  15
ATOM     13  C   UNL     1      -0.941  14.458  22.767  0.00  0.00    +0.000 A 
ATOM     14  C   UNL     1      -0.038  13.715  21.932  0.00  0.00    +0.000 A 
ATOM     15  C   UNL     1      -0.436  13.123  20.715  0.00  0.00    +0.000 A 
ATOM     16  C   UNL     1      -1.809  13.256  20.423  0.00  0.00    +0.000 A 
ATOM     17  C   UNL     1      -2.737  13.951  21.258  0.00  0.00    +0.000 A 
ATOM     18  C   UNL     1      -2.313  14.572  22.446  0.00  0.00    +0.000 A 
BRANCH  13  20
ATOM     19  C   UNL     1      -0.042  16.355  23.881  0.00  0.00    +0.000 C 
ATOM     20  O   UNL     1      -0.543  15.026  23.955  0.00  0.00    +0.000 OA
ENDBRANCH  13  20
BRANCH  17  21
ATOM     21  O   UNL     1      -4.008  13.982  20.724  0.00  0.00    +0.000 OA
ATOM     22  C   UNL     1      -4.472  12.859  19.977  0.00  0.00    +0.000 C 
ENDBRANCH  17  21
BRANCH  18  23
ATOM     23  O   UNL     1      -3.281  15.173  23.198  0.00  0.00    +0.000 OA
ATOM     24  C   UNL     1      -4.001  14.508  24.228  0.00  0.00    +0.000 C 
ENDBRANCH  18  23
ENDBRANCH   1  15
BRANCH   8  25
ATOM     25  O   UNL     1       1.883   6.610  20.932  0.00  0.00    +0.000 OA
ATOM     26  H   UNL     1       1.842   7.062  21.786  0.00  0.00    +0.000 HD
ENDBRANCH   8  25
BRANCH   9  27
ATOM     27  O   UNL     1       2.946   5.918  18.661  0.00  0.00    +0.000 OA
ATOM     28  C   UNL     1       3.844   5.441  17.678  0.00  0.00    +0.000 C 
ENDBRANCH   9  27
TORSDOF 6
ENDMDL
MODEL 6
REMARK VINA RESULT:      -5.8      3.018      8.724
REMARK  Name = 
REMARK  11 active torsions:
REMARK  status: ('A' for Active; 'I' for Inactive)
REMARK    1  A    between atoms: C_1  and  O_2
REMARK    2  A    between atoms: O_2  and  C_3
REMARK    3  A    between atoms: C_5  and  C_6
REMARK    4  A    between atoms: C_9  and  C_10
REMARK    5  A    between atoms: C_13  and  O_14
REMARK    6  A    between atoms: C_15  and  O_16
REMARK    7  A    between atoms: O_16  and  C_17
REMARK    8  A    between atoms: C_22  and  O_23
REMARK    9  A    between atoms: O_23  and  C_24
REMARK   10  A    between atoms: C_25  and  O_26
REMARK   11  A    between atoms: O_26  and  C_27
REMARK                            x       y       z     vdW  Elec       q    Type
REMARK                         _______ _______ _______ _____ _____    ______ ____
ROOT
ATOM      1  C   UNL     1       0.541  12.323  19.707  0.00  0.00    +0.000 C 
ATOM      2  O   UNL     1       1.328  12.966  18.982  0.00  0.00    +0.000 OA
ATOM      3  N   UNL     1       0.656  10.890  19.691  0.00  0.00    +0.000 N 
ATOM      4  C   UNL     1      -0.398  10.117  20.161  0.00  0.00    +0.000 A 
ATOM      5  C   UNL     1      -1.422   9.816  19.081  0.00  0.00    +0.000 C 
ATOM      6  C   UNL     1       0.397   9.354  21.011  0.00  0.00    +0.000 A 
ATOM      7  C   UNL     1       1.304   8.795  20.092  0.00  0.00    +0.000 A 
ATOM      8  C   UNL     1       1.964   7.550  19.990  0.00  0.00    +0.000 A 
ATOM      9  C   UNL     1       2.538   7.174  18.756  0.00  0.00    +0.000 A 
ATOM     10  C   UNL     1       2.569   8.127  17.719  0.00  0.00    +0.000 A 
ATOM     11  C   UNL     1       2.107   9.490  17.906  0.00  0.00    +0.000 A 
ATOM     12  C   UNL     1       1.449   9.815  19.112  0.00  0.00    +0.000 A 
ENDROOT
BRANCH   1  15
ATOM     13  C   UNL     1      -2.865  13.868  21.014  0.00  0.00    +0.000 A 
ATOM     14  C   UNL     1      -1.864  13.247  20.191  0.00  0.00    +0.000 A 
ATOM     15  C   UNL     1      -0.529  13.078  20.612  0.00  0.00    +0.000 A 
ATOM     16  C   UNL     1      -0.239  13.634  21.874  0.00  0.00    +0.000 A 
ATOM     17  C   UNL     1      -1.205  14.297  22.693  0.00  0.00    +0.000 A 
ATOM     18  C   UNL     1      -2.542  14.417  22.276  0.00  0.00    +0.000 A 
BRANCH  13  20
ATOM     19  C   UNL     1      -4.880  12.846  20.275  0.00  0.00    +0.000 C 
ATOM     20  O   UNL     1      -4.163  14.034  20.591  0.00  0.00    +0.000 OA
ENDBRANCH  13  20
BRANCH  17  21
ATOM     21  O   UNL     1      -0.682  14.705  23.902  0.00  0.00    +0.000 OA
ATOM     22  C   UNL     1      -0.384  16.085  24.096  0.00  0.00    +0.000 C 
ENDBRANCH  17  21
BRANCH  18  23
ATOM     23  O   UNL     1      -3.379  15.105  23.106  0.00  0.00    +0.000 OA
ATOM     24  C   UNL     1      -4.209  14.482  24.078  0.00  0.00    +0.000 C 
ENDBRANCH  18  23
ENDBRANCH   1  15
BRANCH   8  25
ATOM     25  O   UNL     1       1.893   6.608  20.985  0.00  0.00    +0.000 OA
ATOM     26  H   UNL     1       2.269   6.996  21.787  0.00  0.00    +0.000 HD
ENDBRANCH   8  25
BRANCH   9  27
ATOM     27  O   UNL     1       3.009   5.897  18.746  0.00  0.00    +0.000 OA
ATOM     28  C   UNL     1       3.764   5.356  17.679  0.00  0.00    +0.000 C 
ENDBRANCH   9  27
TORSDOF 6
ENDMDL
MODEL 7
REMARK VINA RESULT:      -5.8      1.037      1.116
REMARK  Name = 
REMARK  11 active torsions:
REMARK  status: ('A' for Active; 'I' for Inactive)
REMARK    1  A    between atoms: C_1  and  O_2
REMARK    2  A    between atoms: O_2  and  C_3
REMARK    3  A    between atoms: C_5  and  C_6
REMARK    4  A    between atoms: C_9  and  C_10
REMARK    5  A    between atoms: C_13  and  O_14
REMARK    6  A    between atoms: C_15  and  O_16
REMARK    7  A    between atoms: O_16  and  C_17
REMARK    8  A    between atoms: C_22  and  O_23
REMARK    9  A    between atoms: O_23  and  C_24
REMARK   10  A    between atoms: C_25  and  O_26
REMARK   11  A    between atoms: O_26  and  C_27
REMARK                            x       y       z     vdW  Elec       q    Type
REMARK                         _______ _______ _______ _____ _____    ______ ____
ROOT
ATOM      1  C   UNL     1       1.585   8.417  20.264  0.00  0.00    +0.000 C 
ATOM      2  O   UNL     1       1.383   8.263  21.485  0.00  0.00    +0.000 OA
ATOM      3  N   UNL     1       1.297   9.712  19.708  0.00  0.00    +0.000 N 
ATOM      4  C   UNL     1       1.139   9.843  18.335  0.00  0.00    +0.000 A 
ATOM      5  C   UNL     1      -0.290   9.590  17.890  0.00  0.00    +0.000 C 
ATOM      6  C   UNL     1       2.037  10.900  18.223  0.00  0.00    +0.000 A 
ATOM      7  C   UNL     1       1.441  11.845  19.078  0.00  0.00    +0.000 A 
ATOM      8  C   UNL     1       1.328  13.253  19.068  0.00  0.00    +0.000 A 
ATOM      9  C   UNL     1       0.362  13.873  19.890  0.00  0.00    +0.000 A 
ATOM     10  C   UNL     1      -0.343  13.070  20.809  0.00  0.00    +0.000 A 
ATOM     11  C   UNL     1      -0.052  11.660  20.988  0.00  0.00    +0.000 A 
ATOM     12  C   UNL     1       0.846  11.042  20.091  0.00  0.00    +0.000 A 
ENDROOT
BRANCH   1  15
ATOM     13  C   UNL     1       2.121   4.816  18.701  0.00  0.00    +0.000 A 
ATOM     14  C   UNL     1       1.675   5.901  19.529  0.00  0.00    +0.000 A 
ATOM     15  C   UNL     1       2.150   7.221  19.378  0.00  0.00    +0.000 A 
ATOM     16  C   UNL     1       3.152   7.372  18.399  0.00  0.00    +0.000 A 
ATOM     17  C   UNL     1       3.646   6.300  17.592  0.00  0.00    +0.000 A 
ATOM     18  C   UNL     1       3.128   5.000  17.727  0.00  0.00    +0.000 A 
BRANCH  13  20
ATOM     19  C   UNL     1       2.180   2.804  19.967  0.00  0.00    +0.000 C 
ATOM     20  O   UNL     1       1.656   3.531  18.862  0.00  0.00    +0.000 OA
ENDBRANCH  13  20
BRANCH  17  21
ATOM     21  O   UNL     1       4.585   6.719  16.674  0.00  0.00    +0.000 OA
ATOM     22  C   UNL     1       5.935   6.898  17.099  0.00  0.00    +0.000 C 
ENDBRANCH  17  21
BRANCH  18  23
ATOM     23  O   UNL     1       3.695   4.035  16.945  0.00  0.00    +0.000 OA
ATOM     24  C   UNL     1       4.842   3.287  17.326  0.00  0.00    +0.000 C 
ENDBRANCH  18  23
ENDBRANCH   1  15
BRANCH   8  25
ATOM     25  O   UNL     1       1.982  14.025  18.142  0.00  0.00    +0.000 OA
ATOM     26  H   UNL     1       1.328  14.336  17.501  0.00  0.00    +0.000 HD
ENDBRANCH   8  25
BRANCH   9  27
ATOM     27  O   UNL     1       0.251  15.213  19.678  0.00  0.00    +0.000 OA
ATOM     28  C   UNL     1      -0.544  16.063  20.481  0.00  0.00    +0.000 C 
ENDBRANCH   9  27
TORSDOF 6
ENDMDL
MODEL 8
REMARK VINA RESULT:      -5.8      1.019      2.596
REMARK  Name = 
REMARK  11 active torsions:
REMARK  status: ('A' for Active; 'I' for Inactive)
REMARK    1  A    between atoms: C_1  and  O_2
REMARK    2  A    between atoms: O_2  and  C_3
REMARK    3  A    between atoms: C_5  and  C_6
REMARK    4  A    between atoms: C_9  and  C_10
REMARK    5  A    between atoms: C_13  and  O_14
REMARK    6  A    between atoms: C_15  and  O_16
REMARK    7  A    between atoms: O_16  and  C_17
REMARK    8  A    between atoms: C_22  and  O_23
REMARK    9  A    between atoms: O_23  and  C_24
REMARK   10  A    between atoms: C_25  and  O_26
REMARK   11  A    between atoms: O_26  and  C_27
REMARK                            x       y       z     vdW  Elec       q    Type
REMARK                         _______ _______ _______ _____ _____    ______ ____
ROOT
ATOM      1  C   UNL     1       1.459   8.499  20.334  0.00  0.00    +0.000 C 
ATOM      2  O   UNL     1       1.266   8.343  21.557  0.00  0.00    +0.000 OA
ATOM      3  N   UNL     1       1.142   9.787  19.778  0.00  0.00    +0.000 N 
ATOM      4  C   UNL     1       0.974   9.913  18.405  0.00  0.00    +0.000 A 
ATOM      5  C   UNL     1      -0.452   9.631  17.968  0.00  0.00    +0.000 C 
ATOM      6  C   UNL     1       1.851  10.987  18.286  0.00  0.00    +0.000 A 
ATOM      7  C   UNL     1       1.241  11.921  19.143  0.00  0.00    +0.000 A 
ATOM      8  C   UNL     1       1.100  13.327  19.131  0.00  0.00    +0.000 A 
ATOM      9  C   UNL     1       0.126  13.929  19.957  0.00  0.00    +0.000 A 
ATOM     10  C   UNL     1      -0.558  13.115  20.881  0.00  0.00    +0.000 A 
ATOM     11  C   UNL     1      -0.238  11.711  21.061  0.00  0.00    +0.000 A 
ATOM     12  C   UNL     1       0.667  11.109  20.160  0.00  0.00    +0.000 A 
ENDROOT
BRANCH   1  15
ATOM     13  C   UNL     1       3.585   6.490  17.661  0.00  0.00    +0.000 A 
ATOM     14  C   UNL     1       2.994   7.548  18.433  0.00  0.00    +0.000 A 
ATOM     15  C   UNL     1       2.042   7.313  19.447  0.00  0.00    +0.000 A 
ATOM     16  C   UNL     1       1.662   5.963  19.589  0.00  0.00    +0.000 A 
ATOM     17  C   UNL     1       2.201   4.898  18.804  0.00  0.00    +0.000 A 
ATOM     18  C   UNL     1       3.182   5.146  17.828  0.00  0.00    +0.000 A 
BRANCH  13  20
ATOM     19  C   UNL     1       5.872   6.764  17.074  0.00  0.00    +0.000 C 
ATOM     20  O   UNL     1       4.508   6.732  16.671  0.00  0.00    +0.000 OA
ENDBRANCH  13  20
BRANCH  17  21
ATOM     21  O   UNL     1       1.703   3.666  19.173  0.00  0.00    +0.000 OA
ATOM     22  C   UNL     1       1.083   3.524  20.449  0.00  0.00    +0.000 C 
ENDBRANCH  17  21
BRANCH  18  23
ATOM     23  O   UNL     1       3.601   4.071  17.099  0.00  0.00    +0.000 OA
ATOM     24  C   UNL     1       4.682   3.232  17.486  0.00  0.00    +0.000 C 
ENDBRANCH  18  23
ENDBRANCH   1  15
BRANCH   8  25
ATOM     25  O   UNL     1       1.733  14.110  18.200  0.00  0.00    +0.000 OA
ATOM     26  H   UNL     1       1.210  14.915  18.084  0.00  0.00    +0.000 HD
ENDBRANCH   8  25
BRANCH   9  27
ATOM     27  O   UNL     1      -0.012  15.266  19.743  0.00  0.00    +0.000 OA
ATOM     28  C   UNL     1      -0.720  16.123  20.618  0.00  0.00    +0.000 C 
ENDBRANCH   9  27
TORSDOF 6
ENDMDL
MODEL 9
REMARK VINA RESULT:      -5.7      5.549      7.340
REMARK  Name = 
REMARK  11 active torsions:
REMARK  status: ('A' for Active; 'I' for Inactive)
REMARK    1  A    between atoms: C_1  and  O_2
REMARK    2  A    between atoms: O_2  and  C_3
REMARK    3  A    between atoms: C_5  and  C_6
REMARK    4  A    between atoms: C_9  and  C_10
REMARK    5  A    between atoms: C_13  and  O_14
REMARK    6  A    between atoms: C_15  and  O_16
REMARK    7  A    between atoms: O_16  and  C_17
REMARK    8  A    between atoms: C_22  and  O_23
REMARK    9  A    between atoms: O_23  and  C_24
REMARK   10  A    between atoms: C_25  and  O_26
REMARK   11  A    between atoms: O_26  and  C_27
REMARK                            x       y       z     vdW  Elec       q    Type
REMARK                         _______ _______ _______ _____ _____    ______ ____
ROOT
ATOM      1  C   UNL     1       0.134  12.365  20.574  0.00  0.00    +0.000 C 
ATOM      2  O   UNL     1       0.452  11.776  21.627  0.00  0.00    +0.000 OA
ATOM      3  N   UNL     1       1.094  13.279  20.017  0.00  0.00    +0.000 N 
ATOM      4  C   UNL     1       0.676  14.224  19.089  0.00  0.00    +0.000 A 
ATOM      5  C   UNL     1       0.184  15.501  19.745  0.00  0.00    +0.000 C 
ATOM      6  C   UNL     1       1.660  13.906  18.159  0.00  0.00    +0.000 A 
ATOM      7  C   UNL     1       2.824  14.148  18.911  0.00  0.00    +0.000 A 
ATOM      8  C   UNL     1       4.109  14.650  18.608  0.00  0.00    +0.000 A 
ATOM      9  C   UNL     1       4.938  15.101  19.658  0.00  0.00    +0.000 A 
ATOM     10  C   UNL     1       4.511  14.884  20.983  0.00  0.00    +0.000 A 
ATOM     11  C   UNL     1       3.300  14.148  21.295  0.00  0.00    +0.000 A 
ATOM     12  C   UNL     1       2.439  13.793  20.234  0.00  0.00    +0.000 A 
ENDROOT
BRANCH   1  15
ATOM     13  C   UNL     1      -2.675  10.870  18.212  0.00  0.00    +0.000 A 
ATOM     14  C   UNL     1      -1.407  11.184  18.811  0.00  0.00    +0.000 A 
ATOM     15  C   UNL     1      -1.274  12.090  19.884  0.00  0.00    +0.000 A 
ATOM     16  C   UNL     1      -2.475  12.719  20.270  0.00  0.00    +0.000 A 
ATOM     17  C   UNL     1      -3.742  12.457  19.661  0.00  0.00    +0.000 A 
ATOM     18  C   UNL     1      -3.862  11.518  18.622  0.00  0.00    +0.000 A 
BRANCH  13  20
ATOM     19  C   UNL     1      -2.594  10.530  15.861  0.00  0.00    +0.000 C 
ATOM     20  O   UNL     1      -2.792   9.990  17.162  0.00  0.00    +0.000 OA
ENDBRANCH  13  20
BRANCH  17  21
ATOM     21  O   UNL     1      -4.768  13.161  20.255  0.00  0.00    +0.000 OA
ATOM     22  C   UNL     1      -5.555  12.522  21.259  0.00  0.00    +0.000 C 
ENDBRANCH  17  21
BRANCH  18  23
ATOM     23  O   UNL     1      -5.104  11.371  18.075  0.00  0.00    +0.000 OA
ATOM     24  C   UNL     1      -5.669  12.292  17.151  0.00  0.00    +0.000 C 
ENDBRANCH  18  23
ENDBRANCH   1  15
BRANCH   8  25
ATOM     25  O   UNL     1       4.502  14.902  17.318  0.00  0.00    +0.000 OA
ATOM     26  H   UNL     1       5.425  15.191  17.341  0.00  0.00    +0.000 HD
ENDBRANCH   8  25
BRANCH   9  27
ATOM     27  O   UNL     1       6.083  15.697  19.225  0.00  0.00    +0.000 OA
ATOM     28  C   UNL     1       6.346  17.078  19.381  0.00  0.00    +0.000 C 
ENDBRANCH   9  27
TORSDOF 6
ENDMDL
