MODEL 1
REMARK VINA RESULT:      -7.5      0.000      0.000
REMARK  Name = 
REMARK  3 active torsions:
REMARK  status: ('A' for Active; 'I' for Inactive)
REMARK    1  A    between atoms: S_2  and  C_4
REMARK    2  A    between atoms: S_2  and  C_11
REMARK    3  A    between atoms: C_19  and  C_20
REMARK                            x       y       z     vdW  Elec       q    Type
REMARK                         _______ _______ _______ _____ _____    ______ ____
ROOT
ATOM      1  C   UNL     1       5.501   4.369  16.801  0.00  0.00    +0.000 A 
ATOM      2  S   UNL     1       4.965   3.257  15.616  0.00  0.00    +0.000 S 
ATOM      3  C   UNL     1       5.985   3.895  14.430  0.00  0.00    +0.000 A 
ATOM      4  N   UNL     1       5.943   3.404  13.173  0.00  0.00    +0.000 NA
ATOM      5  C   UNL     1       6.799   3.992  12.318  0.00  0.00    +0.000 A 
ATOM      6  C   UNL     1       7.685   4.999  12.648  0.00  0.00    +0.000 A 
ATOM      7  C   UNL     1       7.706   5.461  13.962  0.00  0.00    +0.000 A 
ATOM      8  C   UNL     1       6.801   4.913  14.907  0.00  0.00    +0.000 A 
ATOM      9  C   UNL     1       6.517   5.200  16.312  0.00  0.00    +0.000 A 
ENDROOT
BRANCH   9  10
ATOM     10  C   UNL     1       7.144   6.271  17.116  0.00  0.00    +0.000 A 
ATOM     11  C   UNL     1       7.060   7.614  16.710  0.00  0.00    +0.000 A 
ATOM     12  C   UNL     1       7.688   8.635  17.437  0.00  0.00    +0.000 A 
ATOM     13  C   UNL     1       8.354   8.333  18.619  0.00  0.00    +0.000 A 
ATOM     14 CL   UNL     1       9.095   9.585  19.536  0.00  0.00    +0.000 Cl
ATOM     15  C   UNL     1       8.434   7.017  19.053  0.00  0.00    +0.000 A 
ATOM     16  C   UNL     1       7.869   5.994  18.282  0.00  0.00    +0.000 A 
ENDBRANCH   9  10
BRANCH   1  18
ATOM     17  O   UNL     1       5.660   4.343  19.354  0.00  0.00    +0.000 OA
ATOM     18  S   UNL     1       4.611   4.286  18.356  0.00  0.00    +0.000 S 
ATOM     19  O   UNL     1       3.753   3.120  18.265  0.00  0.00    +0.000 OA
BRANCH  18  20
ATOM     20  C   UNL     1       3.595   5.728  18.592  0.00  0.00    +0.000 A 
ATOM     21  C   UNL     1       3.701   6.748  17.631  0.00  0.00    +0.000 A 
ATOM     22  C   UNL     1       2.978   7.932  17.772  0.00  0.00    +0.000 A 
ATOM     23  C   UNL     1       2.168   8.118  18.887  0.00  0.00    +0.000 A 
ATOM     24  C   UNL     1       2.071   7.114  19.852  0.00  0.00    +0.000 A 
ATOM     25  C   UNL     1       2.777   5.912  19.713  0.00  0.00    +0.000 A 
ATOM     26 CL   UNL     1       2.507   4.738  20.947  0.00  0.00    +0.000 Cl
ENDBRANCH  18  20
ENDBRANCH   1  18
TORSDOF 3
ENDMDL
MODEL 2
REMARK VINA RESULT:      -7.3     10.567     13.445
REMARK  Name = 
REMARK  3 active torsions:
REMARK  status: ('A' for Active; 'I' for Inactive)
REMARK    1  A    between atoms: S_2  and  C_4
REMARK    2  A    between atoms: S_2  and  C_11
REMARK    3  A    between atoms: C_19  and  C_20
REMARK                            x       y       z     vdW  Elec       q    Type
REMARK                         _______ _______ _______ _____ _____    ______ ____
ROOT
ATOM      1  C   UNL     1      -5.329  12.738  19.286  0.00  0.00    +0.000 A 
ATOM      2  S   UNL     1      -5.425  11.909  17.792  0.00  0.00    +0.000 S 
ATOM      3  C   UNL     1      -3.816  11.401  17.871  0.00  0.00    +0.000 A 
ATOM      4  N   UNL     1      -3.282  10.701  16.847  0.00  0.00    +0.000 NA
ATOM      5  C   UNL     1      -1.993  10.354  17.024  0.00  0.00    +0.000 A 
ATOM      6  C   UNL     1      -1.240  10.642  18.146  0.00  0.00    +0.000 A 
ATOM      7  C   UNL     1      -1.839  11.351  19.184  0.00  0.00    +0.000 A 
ATOM      8  C   UNL     1      -3.184  11.783  19.048  0.00  0.00    +0.000 A 
ATOM      9  C   UNL     1      -4.075  12.577  19.890  0.00  0.00    +0.000 A 
ENDROOT
BRANCH   9  10
ATOM     10  C   UNL     1      -3.709  13.210  21.176  0.00  0.00    +0.000 A 
ATOM     11  C   UNL     1      -3.824  12.497  22.382  0.00  0.00    +0.000 A 
ATOM     12  C   UNL     1      -3.525  13.098  23.613  0.00  0.00    +0.000 A 
ATOM     13  C   UNL     1      -3.044  14.401  23.648  0.00  0.00    +0.000 A 
ATOM     14 CL   UNL     1      -2.640  15.131  25.151  0.00  0.00    +0.000 Cl
ATOM     15  C   UNL     1      -2.903  15.120  22.469  0.00  0.00    +0.000 A 
ATOM     16  C   UNL     1      -3.275  14.539  21.251  0.00  0.00    +0.000 A 
ENDBRANCH   9  10
BRANCH   1  18
ATOM     17  O   UNL     1      -7.857  12.995  19.000  0.00  0.00    +0.000 OA
ATOM     18  S   UNL     1      -6.796  13.680  19.710  0.00  0.00    +0.000 S 
ATOM     19  O   UNL     1      -6.486  15.063  19.404  0.00  0.00    +0.000 OA
BRANCH  18  20
ATOM     20  C   UNL     1      -7.166  13.546  21.445  0.00  0.00    +0.000 A 
ATOM     21  C   UNL     1      -6.973  14.696  22.230  0.00  0.00    +0.000 A 
ATOM     22  C   UNL     1      -7.190  14.659  23.607  0.00  0.00    +0.000 A 
ATOM     23  C   UNL     1      -7.573  13.468  24.214  0.00  0.00    +0.000 A 
ATOM     24  C   UNL     1      -7.752  12.320  23.441  0.00  0.00    +0.000 A 
ATOM     25  C   UNL     1      -7.555  12.347  22.054  0.00  0.00    +0.000 A 
ATOM     26 CL   UNL     1      -7.879  10.872  21.221  0.00  0.00    +0.000 Cl
ENDBRANCH  18  20
ENDBRANCH   1  18
TORSDOF 3
ENDMDL
MODEL 3
REMARK VINA RESULT:      -7.2      2.803      4.767
REMARK  Name = 
REMARK  3 active torsions:
REMARK  status: ('A' for Active; 'I' for Inactive)
REMARK    1  A    between atoms: S_2  and  C_4
REMARK    2  A    between atoms: S_2  and  C_11
REMARK    3  A    between atoms: C_19  and  C_20
REMARK                            x       y       z     vdW  Elec       q    Type
REMARK                         _______ _______ _______ _____ _____    ______ ____
ROOT
ATOM      1  C   UNL     1       3.776   4.543  17.479  0.00  0.00    +0.000 A 
ATOM      2  S   UNL     1       5.068   3.785  16.651  0.00  0.00    +0.000 S 
ATOM      3  C   UNL     1       6.010   5.187  16.657  0.00  0.00    +0.000 A 
ATOM      4  N   UNL     1       7.210   5.192  16.039  0.00  0.00    +0.000 NA
ATOM      5  C   UNL     1       7.867   6.364  16.110  0.00  0.00    +0.000 A 
ATOM      6  C   UNL     1       7.412   7.490  16.767  0.00  0.00    +0.000 A 
ATOM      7  C   UNL     1       6.176   7.433  17.407  0.00  0.00    +0.000 A 
ATOM      8  C   UNL     1       5.411   6.240  17.337  0.00  0.00    +0.000 A 
ATOM      9  C   UNL     1       4.086   5.864  17.825  0.00  0.00    +0.000 A 
ENDROOT
BRANCH   9  10
ATOM     10  C   UNL     1       3.139   6.761  18.524  0.00  0.00    +0.000 A 
ATOM     11  C   UNL     1       2.662   7.926  17.899  0.00  0.00    +0.000 A 
ATOM     12  C   UNL     1       1.801   8.809  18.566  0.00  0.00    +0.000 A 
ATOM     13  C   UNL     1       1.352   8.504  19.845  0.00  0.00    +0.000 A 
ATOM     14 CL   UNL     1       0.266   9.563  20.654  0.00  0.00    +0.000 Cl
ATOM     15  C   UNL     1       1.792   7.348  20.477  0.00  0.00    +0.000 A 
ATOM     16  C   UNL     1       2.711   6.510  19.834  0.00  0.00    +0.000 A 
ENDBRANCH   9  10
BRANCH   1  18
ATOM     17  O   UNL     1       2.641   2.317  16.932  0.00  0.00    +0.000 OA
ATOM     18  S   UNL     1       2.306   3.530  17.652  0.00  0.00    +0.000 S 
ATOM     19  O   UNL     1       1.197   4.355  17.216  0.00  0.00    +0.000 OA
BRANCH  18  20
ATOM     20  C   UNL     1       2.043   3.065  19.350  0.00  0.00    +0.000 A 
ATOM     21  C   UNL     1       0.771   3.321  19.892  0.00  0.00    +0.000 A 
ATOM     22  C   UNL     1       0.500   3.035  21.229  0.00  0.00    +0.000 A 
ATOM     23  C   UNL     1       1.504   2.518  22.042  0.00  0.00    +0.000 A 
ATOM     24  C   UNL     1       2.772   2.276  21.512  0.00  0.00    +0.000 A 
ATOM     25  C   UNL     1       3.053   2.541  20.165  0.00  0.00    +0.000 A 
ATOM     26 CL   UNL     1       4.641   2.128  19.635  0.00  0.00    +0.000 Cl
ENDBRANCH  18  20
ENDBRANCH   1  18
TORSDOF 3
ENDMDL
MODEL 4
REMARK VINA RESULT:      -7.1      1.866      2.541
REMARK  Name = 
REMARK  3 active torsions:
REMARK  status: ('A' for Active; 'I' for Inactive)
REMARK    1  A    between atoms: S_2  and  C_4
REMARK    2  A    between atoms: S_2  and  C_11
REMARK    3  A    between atoms: C_19  and  C_20
REMARK                            x       y       z     vdW  Elec       q    Type
REMARK                         _______ _______ _______ _____ _____    ______ ____
ROOT
ATOM      1  C   UNL     1       5.322   4.948  17.191  0.00  0.00    +0.000 A 
ATOM      2  S   UNL     1       4.695   3.758  16.133  0.00  0.00    +0.000 S 
ATOM      3  C   UNL     1       5.792   4.145  14.908  0.00  0.00    +0.000 A 
ATOM      4  N   UNL     1       5.719   3.512  13.718  0.00  0.00    +0.000 NA
ATOM      5  C   UNL     1       6.644   3.905  12.822  0.00  0.00    +0.000 A 
ATOM      6  C   UNL     1       7.621   4.854  13.054  0.00  0.00    +0.000 A 
ATOM      7  C   UNL     1       7.667   5.468  14.303  0.00  0.00    +0.000 A 
ATOM      8  C   UNL     1       6.698   5.129  15.282  0.00  0.00    +0.000 A 
ATOM      9  C   UNL     1       6.423   5.610  16.634  0.00  0.00    +0.000 A 
ENDROOT
BRANCH   9  10
ATOM     10  C   UNL     1       7.141   6.705  17.322  0.00  0.00    +0.000 A 
ATOM     11  C   UNL     1       7.948   6.438  18.442  0.00  0.00    +0.000 A 
ATOM     12  C   UNL     1       8.598   7.471  19.132  0.00  0.00    +0.000 A 
ATOM     13  C   UNL     1       8.503   8.778  18.672  0.00  0.00    +0.000 A 
ATOM     14 CL   UNL     1       9.328  10.044  19.491  0.00  0.00    +0.000 Cl
ATOM     15  C   UNL     1       7.728   9.065  17.556  0.00  0.00    +0.000 A 
ATOM     16  C   UNL     1       7.021   8.040  16.917  0.00  0.00    +0.000 A 
ENDBRANCH   9  10
BRANCH   1  18
ATOM     17  O   UNL     1       3.802   6.454  18.593  0.00  0.00    +0.000 OA
ATOM     18  S   UNL     1       4.404   5.141  18.720  0.00  0.00    +0.000 S 
ATOM     19  O   UNL     1       5.345   4.870  19.790  0.00  0.00    +0.000 OA
BRANCH  18  20
ATOM     20  C   UNL     1       3.068   3.970  18.821  0.00  0.00    +0.000 A 
ATOM     21  C   UNL     1       1.835   4.358  18.269  0.00  0.00    +0.000 A 
ATOM     22  C   UNL     1       0.725   3.519  18.354  0.00  0.00    +0.000 A 
ATOM     23  C   UNL     1       0.831   2.299  19.014  0.00  0.00    +0.000 A 
ATOM     24  C   UNL     1       2.049   1.915  19.576  0.00  0.00    +0.000 A 
ATOM     25  C   UNL     1       3.177   2.740  19.482  0.00  0.00    +0.000 A 
ATOM     26 CL   UNL     1       4.629   2.106  20.163  0.00  0.00    +0.000 Cl
ENDBRANCH  18  20
ENDBRANCH   1  18
TORSDOF 3
ENDMDL
MODEL 5
REMARK VINA RESULT:      -7.1      8.449     12.101
REMARK  Name = 
REMARK  3 active torsions:
REMARK  status: ('A' for Active; 'I' for Inactive)
REMARK    1  A    between atoms: S_2  and  C_4
REMARK    2  A    between atoms: S_2  and  C_11
REMARK    3  A    between atoms: C_19  and  C_20
REMARK                            x       y       z     vdW  Elec       q    Type
REMARK                         _______ _______ _______ _____ _____    ______ ____
ROOT
ATOM      1  C   UNL     1      -2.840  12.436  20.017  0.00  0.00    +0.000 A 
ATOM      2  S   UNL     1      -3.462  13.027  21.498  0.00  0.00    +0.000 S 
ATOM      3  C   UNL     1      -5.051  12.624  21.091  0.00  0.00    +0.000 A 
ATOM      4  N   UNL     1      -6.059  12.938  21.933  0.00  0.00    +0.000 NA
ATOM      5  C   UNL     1      -7.279  12.568  21.501  0.00  0.00    +0.000 A 
ATOM      6  C   UNL     1      -7.533  11.900  20.318  0.00  0.00    +0.000 A 
ATOM      7  C   UNL     1      -6.460  11.581  19.491  0.00  0.00    +0.000 A 
ATOM      8  C   UNL     1      -5.150  11.977  19.866  0.00  0.00    +0.000 A 
ATOM      9  C   UNL     1      -3.842  11.865  19.224  0.00  0.00    +0.000 A 
ENDROOT
BRANCH   9  10
ATOM     10  C   UNL     1      -3.587  11.300  17.880  0.00  0.00    +0.000 A 
ATOM     11  C   UNL     1      -2.634  10.283  17.700  0.00  0.00    +0.000 A 
ATOM     12  C   UNL     1      -2.348   9.771  16.427  0.00  0.00    +0.000 A 
ATOM     13  C   UNL     1      -3.061  10.224  15.323  0.00  0.00    +0.000 A 
ATOM     14 CL   UNL     1      -2.743   9.573  13.764  0.00  0.00    +0.000 Cl
ATOM     15  C   UNL     1      -4.023  11.213  15.477  0.00  0.00    +0.000 A 
ATOM     16  C   UNL     1      -4.249  11.774  16.740  0.00  0.00    +0.000 A 
ENDBRANCH   9  10
BRANCH   1  18
ATOM     17  O   UNL     1      -0.728  13.583  20.895  0.00  0.00    +0.000 OA
ATOM     18  S   UNL     1      -1.089  12.741  19.771  0.00  0.00    +0.000 S 
ATOM     19  O   UNL     1      -0.956  13.238  18.415  0.00  0.00    +0.000 OA
BRANCH  18  20
ATOM     20  C   UNL     1      -0.147  11.240  19.928  0.00  0.00    +0.000 A 
ATOM     21  C   UNL     1       0.522  10.783  18.779  0.00  0.00    +0.000 A 
ATOM     22  C   UNL     1       1.238   9.587  18.804  0.00  0.00    +0.000 A 
ATOM     23  C   UNL     1       1.268   8.825  19.968  0.00  0.00    +0.000 A 
ATOM     24  C   UNL     1       0.594   9.267  21.106  0.00  0.00    +0.000 A 
ATOM     25  C   UNL     1      -0.114  10.476  21.101  0.00  0.00    +0.000 A 
ATOM     26 CL   UNL     1      -0.841  10.927  22.598  0.00  0.00    +0.000 Cl
ENDBRANCH  18  20
ENDBRANCH   1  18
TORSDOF 3
ENDMDL
MODEL 6
REMARK VINA RESULT:      -7.0      8.663     12.252
REMARK  Name = 
REMARK  3 active torsions:
REMARK  status: ('A' for Active; 'I' for Inactive)
REMARK    1  A    between atoms: S_2  and  C_4
REMARK    2  A    between atoms: S_2  and  C_11
REMARK    3  A    between atoms: C_19  and  C_20
REMARK                            x       y       z     vdW  Elec       q    Type
REMARK                         _______ _______ _______ _____ _____    ______ ____
ROOT
ATOM      1  C   UNL     1      -2.920  12.546  20.470  0.00  0.00    +0.000 A 
ATOM      2  S   UNL     1      -3.561  13.117  21.950  0.00  0.00    +0.000 S 
ATOM      3  C   UNL     1      -5.145  12.724  21.515  0.00  0.00    +0.000 A 
ATOM      4  N   UNL     1      -6.164  13.029  22.347  0.00  0.00    +0.000 NA
ATOM      5  C   UNL     1      -7.379  12.669  21.892  0.00  0.00    +0.000 A 
ATOM      6  C   UNL     1      -7.619  12.020  20.697  0.00  0.00    +0.000 A 
ATOM      7  C   UNL     1      -6.534  11.709  19.880  0.00  0.00    +0.000 A 
ATOM      8  C   UNL     1      -5.229  12.096  20.279  0.00  0.00    +0.000 A 
ATOM      9  C   UNL     1      -3.912  11.989  19.654  0.00  0.00    +0.000 A 
ENDROOT
BRANCH   9  10
ATOM     10  C   UNL     1      -3.640  11.444  18.306  0.00  0.00    +0.000 A 
ATOM     11  C   UNL     1      -4.377  11.885  17.193  0.00  0.00    +0.000 A 
ATOM     12  C   UNL     1      -4.163  11.345  15.917  0.00  0.00    +0.000 A 
ATOM     13  C   UNL     1      -3.161  10.402  15.725  0.00  0.00    +0.000 A 
ATOM     14 CL   UNL     1      -2.866   9.763  14.157  0.00  0.00    +0.000 Cl
ATOM     15  C   UNL     1      -2.404   9.964  16.805  0.00  0.00    +0.000 A 
ATOM     16  C   UNL     1      -2.676  10.453  18.088  0.00  0.00    +0.000 A 
ENDBRANCH   9  10
BRANCH   1  18
ATOM     17  O   UNL     1      -0.801  13.607  21.434  0.00  0.00    +0.000 OA
ATOM     18  S   UNL     1      -1.165  12.849  20.253  0.00  0.00    +0.000 S 
ATOM     19  O   UNL     1      -1.020  13.437  18.935  0.00  0.00    +0.000 OA
BRANCH  18  20
ATOM     20  C   UNL     1      -0.239  11.331  20.308  0.00  0.00    +0.000 A 
ATOM     21  C   UNL     1       0.475  10.975  19.150  0.00  0.00    +0.000 A 
ATOM     22  C   UNL     1       1.183   9.775  19.094  0.00  0.00    +0.000 A 
ATOM     23  C   UNL     1       1.160   8.910  20.183  0.00  0.00    +0.000 A 
ATOM     24  C   UNL     1       0.441   9.251  21.329  0.00  0.00    +0.000 A 
ATOM     25  C   UNL     1      -0.259  10.462  21.406  0.00  0.00    +0.000 A 
ATOM     26 CL   UNL     1      -1.044  10.781  22.908  0.00  0.00    +0.000 Cl
ENDBRANCH  18  20
ENDBRANCH   1  18
TORSDOF 3
ENDMDL
MODEL 7
REMARK VINA RESULT:      -7.0      1.807      2.379
REMARK  Name = 
REMARK  3 active torsions:
REMARK  status: ('A' for Active; 'I' for Inactive)
REMARK    1  A    between atoms: S_2  and  C_4
REMARK    2  A    between atoms: S_2  and  C_11
REMARK    3  A    between atoms: C_19  and  C_20
REMARK                            x       y       z     vdW  Elec       q    Type
REMARK                         _______ _______ _______ _____ _____    ______ ____
ROOT
ATOM      1  C   UNL     1       5.601   4.532  17.306  0.00  0.00    +0.000 A 
ATOM      2  S   UNL     1       5.000   3.344  16.232  0.00  0.00    +0.000 S 
ATOM      3  C   UNL     1       5.907   3.933  14.934  0.00  0.00    +0.000 A 
ATOM      4  N   UNL     1       5.778   3.370  13.714  0.00  0.00    +0.000 NA
ATOM      5  C   UNL     1       6.549   3.926  12.761  0.00  0.00    +0.000 A 
ATOM      6  C   UNL     1       7.433   4.968  12.963  0.00  0.00    +0.000 A 
ATOM      7  C   UNL     1       7.546   5.505  14.243  0.00  0.00    +0.000 A 
ATOM      8  C   UNL     1       6.733   4.993  15.287  0.00  0.00    +0.000 A 
ATOM      9  C   UNL     1       6.554   5.354  16.692  0.00  0.00    +0.000 A 
ENDROOT
BRANCH   9  10
ATOM     10  C   UNL     1       7.216   6.482  17.383  0.00  0.00    +0.000 A 
ATOM     11  C   UNL     1       7.113   7.790  16.878  0.00  0.00    +0.000 A 
ATOM     12  C   UNL     1       7.773   8.862  17.496  0.00  0.00    +0.000 A 
ATOM     13  C   UNL     1       8.491   8.650  18.666  0.00  0.00    +0.000 A 
ATOM     14 CL   UNL     1       9.271   9.967  19.451  0.00  0.00    +0.000 Cl
ATOM     15  C   UNL     1       8.591   7.371  19.197  0.00  0.00    +0.000 A 
ATOM     16  C   UNL     1       7.992   6.294  18.533  0.00  0.00    +0.000 A 
ENDBRANCH   9  10
BRANCH   1  18
ATOM     17  O   UNL     1       4.646   5.926  19.227  0.00  0.00    +0.000 OA
ATOM     18  S   UNL     1       4.839   4.521  18.930  0.00  0.00    +0.000 S 
ATOM     19  O   UNL     1       5.697   3.708  19.770  0.00  0.00    +0.000 OA
BRANCH  18  20
ATOM     20  C   UNL     1       3.222   3.779  18.876  0.00  0.00    +0.000 A 
ATOM     21  C   UNL     1       3.107   2.463  19.355  0.00  0.00    +0.000 A 
ATOM     22  C   UNL     1       1.886   1.792  19.299  0.00  0.00    +0.000 A 
ATOM     23  C   UNL     1       0.779   2.420  18.737  0.00  0.00    +0.000 A 
ATOM     24  C   UNL     1       0.892   3.721  18.246  0.00  0.00    +0.000 A 
ATOM     25  C   UNL     1       2.108   4.414  18.314  0.00  0.00    +0.000 A 
ATOM     26 CL   UNL     1       2.080   6.036  17.731  0.00  0.00    +0.000 Cl
ENDBRANCH  18  20
ENDBRANCH   1  18
TORSDOF 3
ENDMDL
MODEL 8
REMARK VINA RESULT:      -7.0      6.949      9.621
REMARK  Name = 
REMARK  3 active torsions:
REMARK  status: ('A' for Active; 'I' for Inactive)
REMARK    1  A    between atoms: S_2  and  C_4
REMARK    2  A    between atoms: S_2  and  C_11
REMARK    3  A    between atoms: C_19  and  C_20
REMARK                            x       y       z     vdW  Elec       q    Type
REMARK                         _______ _______ _______ _____ _____    ______ ____
ROOT
ATOM      1  C   UNL     1      -0.770  11.334  20.078  0.00  0.00    +0.000 A 
ATOM      2  S   UNL     1      -2.177  12.286  19.865  0.00  0.00    +0.000 S 
ATOM      3  C   UNL     1      -2.598  11.498  18.431  0.00  0.00    +0.000 A 
ATOM      4  N   UNL     1      -3.681  11.905  17.735  0.00  0.00    +0.000 NA
ATOM      5  C   UNL     1      -3.915  11.202  16.611  0.00  0.00    +0.000 A 
ATOM      6  C   UNL     1      -3.160  10.132  16.172  0.00  0.00    +0.000 A 
ATOM      7  C   UNL     1      -2.062   9.737  16.933  0.00  0.00    +0.000 A 
ATOM      8  C   UNL     1      -1.734  10.459  18.109  0.00  0.00    +0.000 A 
ATOM      9  C   UNL     1      -0.647  10.359  19.081  0.00  0.00    +0.000 A 
ENDROOT
BRANCH   9  10
ATOM     10  C   UNL     1       0.491   9.416  19.007  0.00  0.00    +0.000 A 
ATOM     11  C   UNL     1       1.287   9.344  17.851  0.00  0.00    +0.000 A 
ATOM     12  C   UNL     1       2.339   8.424  17.748  0.00  0.00    +0.000 A 
ATOM     13  C   UNL     1       2.652   7.607  18.828  0.00  0.00    +0.000 A 
ATOM     14 CL   UNL     1       3.966   6.503  18.723  0.00  0.00    +0.000 Cl
ATOM     15  C   UNL     1       1.894   7.674  19.990  0.00  0.00    +0.000 A 
ATOM     16  C   UNL     1       0.798   8.542  20.056  0.00  0.00    +0.000 A 
ENDBRANCH   9  10
BRANCH   1  18
ATOM     17  O   UNL     1       1.495  12.262  20.822  0.00  0.00    +0.000 OA
ATOM     18  S   UNL     1       0.264  11.833  21.456  0.00  0.00    +0.000 S 
ATOM     19  O   UNL     1       0.270  10.714  22.378  0.00  0.00    +0.000 OA
BRANCH  18  20
ATOM     20  C   UNL     1      -0.412  13.255  22.285  0.00  0.00    +0.000 A 
ATOM     21  C   UNL     1       0.247  14.482  22.089  0.00  0.00    +0.000 A 
ATOM     22  C   UNL     1      -0.189  15.633  22.745  0.00  0.00    +0.000 A 
ATOM     23  C   UNL     1      -1.267  15.562  23.621  0.00  0.00    +0.000 A 
ATOM     24  C   UNL     1      -1.914  14.344  23.830  0.00  0.00    +0.000 A 
ATOM     25  C   UNL     1      -1.499  13.184  23.164  0.00  0.00    +0.000 A 
ATOM     26 CL   UNL     1      -2.436  11.768  23.468  0.00  0.00    +0.000 Cl
ENDBRANCH  18  20
ENDBRANCH   1  18
TORSDOF 3
ENDMDL
MODEL 9
REMARK VINA RESULT:      -6.8      2.622      6.921
REMARK  Name = 
REMARK  3 active torsions:
REMARK  status: ('A' for Active; 'I' for Inactive)
REMARK    1  A    between atoms: S_2  and  C_4
REMARK    2  A    between atoms: S_2  and  C_11
REMARK    3  A    between atoms: C_19  and  C_20
REMARK                            x       y       z     vdW  Elec       q    Type
REMARK                         _______ _______ _______ _____ _____    ______ ____
ROOT
ATOM      1  C   UNL     1       3.793   5.671  17.940  0.00  0.00    +0.000 A 
ATOM      2  S   UNL     1       4.156   7.062  17.011  0.00  0.00    +0.000 S 
ATOM      3  C   UNL     1       2.988   7.997  17.795  0.00  0.00    +0.000 A 
ATOM      4  N   UNL     1       2.773   9.271  17.400  0.00  0.00    +0.000 NA
ATOM      5  C   UNL     1       1.818   9.914  18.098  0.00  0.00    +0.000 A 
ATOM      6  C   UNL     1       1.105   9.375  19.151  0.00  0.00    +0.000 A 
ATOM      7  C   UNL     1       1.375   8.063  19.534  0.00  0.00    +0.000 A 
ATOM      8  C   UNL     1       2.341   7.313  18.816  0.00  0.00    +0.000 A 
ATOM      9  C   UNL     1       2.813   5.933  18.905  0.00  0.00    +0.000 A 
ENDROOT
BRANCH   9  10
ATOM     10  C   UNL     1       2.290   4.901  19.827  0.00  0.00    +0.000 A 
ATOM     11  C   UNL     1       2.866   4.716  21.095  0.00  0.00    +0.000 A 
ATOM     12  C   UNL     1       2.412   3.712  21.962  0.00  0.00    +0.000 A 
ATOM     13  C   UNL     1       1.329   2.921  21.597  0.00  0.00    +0.000 A 
ATOM     14 CL   UNL     1       0.741   1.714  22.670  0.00  0.00    +0.000 Cl
ATOM     15  C   UNL     1       0.728   3.098  20.358  0.00  0.00    +0.000 A 
ATOM     16  C   UNL     1       1.236   4.052  19.467  0.00  0.00    +0.000 A 
ENDBRANCH   9  10
BRANCH   1  18
ATOM     17  O   UNL     1       3.610   3.295  17.011  0.00  0.00    +0.000 OA
ATOM     18  S   UNL     1       4.669   4.189  17.434  0.00  0.00    +0.000 S 
ATOM     19  O   UNL     1       5.526   3.831  18.548  0.00  0.00    +0.000 OA
BRANCH  18  20
ATOM     20  C   UNL     1       5.684   4.499  16.006  0.00  0.00    +0.000 A 
ATOM     21  C   UNL     1       5.261   3.938  14.788  0.00  0.00    +0.000 A 
ATOM     22  C   UNL     1       6.028   4.090  13.634  0.00  0.00    +0.000 A 
ATOM     23  C   UNL     1       7.236   4.777  13.693  0.00  0.00    +0.000 A 
ATOM     24  C   UNL     1       7.667   5.323  14.903  0.00  0.00    +0.000 A 
ATOM     25  C   UNL     1       6.898   5.194  16.066  0.00  0.00    +0.000 A 
ATOM     26 CL   UNL     1       7.523   5.977  17.470  0.00  0.00    +0.000 Cl
ENDBRANCH  18  20
ENDBRANCH   1  18
TORSDOF 3
ENDMDL
