MODEL 1
REMARK VINA RESULT:      -7.8      0.000      0.000
REMARK  Name = 
REMARK  5 active torsions:
REMARK  status: ('A' for Active; 'I' for Inactive)
REMARK    1  A    between atoms: C_1  and  C_2
REMARK    2  A    between atoms: C_2  and  O_3
REMARK    3  A    between atoms: O_3  and  C_4
REMARK    4  A    between atoms: C_4  and  C_6
REMARK    5  A    between atoms: C_9  and  C_11
REMARK                            x       y       z     vdW  Elec       q    Type
REMARK                         _______ _______ _______ _____ _____    ______ ____
ROOT
ATOM      1  C   UNL     1       4.161   3.804  18.304  0.00  0.00    +0.000 A 
ATOM      2  N   UNL     1       4.884   3.803  17.166  0.00  0.00    +0.000 NA
ATOM      3  N   UNL     1       4.840   5.089  16.716  0.00  0.00    +0.000 N 
ATOM      4  C   UNL     1       5.588   5.484  15.587  0.00  0.00    +0.000 C 
ATOM      5  O   UNL     1       5.817   6.677  15.405  0.00  0.00    +0.000 OA
ATOM      6  C   UNL     1       4.020   5.889  17.500  0.00  0.00    +0.000 A 
ATOM      7  C   UNL     1       3.643   7.237  17.391  0.00  0.00    +0.000 A 
ATOM      8  C   UNL     1       2.755   7.750  18.341  0.00  0.00    +0.000 A 
ATOM      9  C   UNL     1       2.270   6.950  19.370  0.00  0.00    +0.000 A 
ATOM     10  C   UNL     1       2.664   5.611  19.478  0.00  0.00    +0.000 A 
ATOM     11  C   UNL     1       3.543   5.069  18.520  0.00  0.00    +0.000 A 
ENDROOT
BRANCH   4  12
ATOM     12  C   UNL     1       6.015   4.365  14.656  0.00  0.00    +0.000 C 
ATOM     13  C   UNL     1       4.926   4.038  13.633  0.00  0.00    +0.000 C 
ATOM     14  C   UNL     1       5.665   3.365  12.486  0.00  0.00    +0.000 C 
ATOM     15  C   UNL     1       7.069   3.956  12.488  0.00  0.00    +0.000 C 
ATOM     16  C   UNL     1       7.182   4.795  13.756  0.00  0.00    +0.000 C 
ENDBRANCH   4  12
BRANCH   1  17
ATOM     17  C   UNL     1       4.095   2.649  19.212  0.00  0.00    +0.000 C 
ATOM     18  O   UNL     1       4.953   2.402  20.057  0.00  0.00    +0.000 OA
BRANCH  17  19
ATOM     19  O   UNL     1       3.043   1.821  18.932  0.00  0.00    +0.000 OA
BRANCH  19  21
ATOM     20  C   UNL     1       0.733   2.423  18.779  0.00  0.00    +0.000 C 
ATOM     21  C   UNL     1       1.864   2.037  19.717  0.00  0.00    +0.000 C 
ENDBRANCH  19  21
ENDBRANCH  17  19
ENDBRANCH   1  17
TORSDOF 4
ENDMDL
MODEL 2
REMARK VINA RESULT:      -7.4      0.964      1.399
REMARK  Name = 
REMARK  5 active torsions:
REMARK  status: ('A' for Active; 'I' for Inactive)
REMARK    1  A    between atoms: C_1  and  C_2
REMARK    2  A    between atoms: C_2  and  O_3
REMARK    3  A    between atoms: O_3  and  C_4
REMARK    4  A    between atoms: C_4  and  C_6
REMARK    5  A    between atoms: C_9  and  C_11
REMARK                            x       y       z     vdW  Elec       q    Type
REMARK                         _______ _______ _______ _____ _____    ______ ____
ROOT
ATOM      1  C   UNL     1       3.506   3.614  17.399  0.00  0.00    +0.000 A 
ATOM      2  N   UNL     1       4.484   3.576  16.471  0.00  0.00    +0.000 NA
ATOM      3  N   UNL     1       4.902   4.867  16.343  0.00  0.00    +0.000 N 
ATOM      4  C   UNL     1       6.003   5.190  15.523  0.00  0.00    +0.000 C 
ATOM      5  O   UNL     1       6.577   6.264  15.683  0.00  0.00    +0.000 OA
ATOM      6  C   UNL     1       4.140   5.741  17.106  0.00  0.00    +0.000 A 
ATOM      7  C   UNL     1       4.173   7.137  17.246  0.00  0.00    +0.000 A 
ATOM      8  C   UNL     1       3.229   7.737  18.085  0.00  0.00    +0.000 A 
ATOM      9  C   UNL     1       2.292   6.969  18.767  0.00  0.00    +0.000 A 
ATOM     10  C   UNL     1       2.277   5.576  18.632  0.00  0.00    +0.000 A 
ATOM     11  C   UNL     1       3.208   4.954  17.778  0.00  0.00    +0.000 A 
ENDROOT
BRANCH   4  12
ATOM     12  C   UNL     1       6.357   4.165  14.462  0.00  0.00    +0.000 C 
ATOM     13  C   UNL     1       5.171   3.880  13.538  0.00  0.00    +0.000 C 
ATOM     14  C   UNL     1       5.799   3.329  12.266  0.00  0.00    +0.000 C 
ATOM     15  C   UNL     1       7.177   3.970  12.167  0.00  0.00    +0.000 C 
ATOM     16  C   UNL     1       7.405   4.709  13.481  0.00  0.00    +0.000 C 
ENDBRANCH   4  12
BRANCH   1  17
ATOM     17  C   UNL     1       2.897   2.403  17.971  0.00  0.00    +0.000 C 
ATOM     18  O   UNL     1       1.720   2.094  17.803  0.00  0.00    +0.000 OA
BRANCH  17  19
ATOM     19  O   UNL     1       3.750   1.730  18.802  0.00  0.00    +0.000 OA
BRANCH  19  21
ATOM     20  C   UNL     1       3.008   2.609  20.899  0.00  0.00    +0.000 C 
ATOM     21  C   UNL     1       4.189   2.459  19.955  0.00  0.00    +0.000 C 
ENDBRANCH  19  21
ENDBRANCH  17  19
ENDBRANCH   1  17
TORSDOF 4
ENDMDL
MODEL 3
REMARK VINA RESULT:      -7.4      2.504      6.285
REMARK  Name = 
REMARK  5 active torsions:
REMARK  status: ('A' for Active; 'I' for Inactive)
REMARK    1  A    between atoms: C_1  and  C_2
REMARK    2  A    between atoms: C_2  and  O_3
REMARK    3  A    between atoms: O_3  and  C_4
REMARK    4  A    between atoms: C_4  and  C_6
REMARK    5  A    between atoms: C_9  and  C_11
REMARK                            x       y       z     vdW  Elec       q    Type
REMARK                         _______ _______ _______ _____ _____    ______ ____
ROOT
ATOM      1  C   UNL     1       6.569   5.137  18.319  0.00  0.00    +0.000 A 
ATOM      2  N   UNL     1       5.448   4.665  18.900  0.00  0.00    +0.000 NA
ATOM      3  N   UNL     1       4.782   4.010  17.906  0.00  0.00    +0.000 N 
ATOM      4  C   UNL     1       3.601   3.291  18.183  0.00  0.00    +0.000 C 
ATOM      5  O   UNL     1       3.215   2.440  17.386  0.00  0.00    +0.000 OA
ATOM      6  C   UNL     1       5.417   4.140  16.679  0.00  0.00    +0.000 A 
ATOM      7  C   UNL     1       5.077   3.686  15.395  0.00  0.00    +0.000 A 
ATOM      8  C   UNL     1       5.925   4.018  14.334  0.00  0.00    +0.000 A 
ATOM      9  C   UNL     1       7.078   4.766  14.550  0.00  0.00    +0.000 A 
ATOM     10  C   UNL     1       7.415   5.200  15.837  0.00  0.00    +0.000 A 
ATOM     11  C   UNL     1       6.564   4.893  16.916  0.00  0.00    +0.000 A 
ENDROOT
BRANCH   4  12
ATOM     12  C   UNL     1       2.877   3.679  19.458  0.00  0.00    +0.000 C 
ATOM     13  C   UNL     1       1.358   3.617  19.285  0.00  0.00    +0.000 C 
ATOM     14  C   UNL     1       0.816   3.465  20.698  0.00  0.00    +0.000 C 
ATOM     15  C   UNL     1       1.891   2.726  21.483  0.00  0.00    +0.000 C 
ATOM     16  C   UNL     1       3.114   2.653  20.575  0.00  0.00    +0.000 C 
ENDBRANCH   4  12
BRANCH   1  17
ATOM     17  C   UNL     1       7.664   5.760  19.079  0.00  0.00    +0.000 C 
ATOM     18  O   UNL     1       7.935   5.464  20.241  0.00  0.00    +0.000 OA
BRANCH  17  19
ATOM     19  O   UNL     1       8.264   6.781  18.394  0.00  0.00    +0.000 OA
BRANCH  19  21
ATOM     20  C   UNL     1       8.219   9.132  17.961  0.00  0.00    +0.000 C 
ATOM     21  C   UNL     1       7.397   7.855  18.010  0.00  0.00    +0.000 C 
ENDBRANCH  19  21
ENDBRANCH  17  19
ENDBRANCH   1  17
TORSDOF 4
ENDMDL
MODEL 4
REMARK VINA RESULT:      -6.9      2.068      6.002
REMARK  Name = 
REMARK  5 active torsions:
REMARK  status: ('A' for Active; 'I' for Inactive)
REMARK    1  A    between atoms: C_1  and  C_2
REMARK    2  A    between atoms: C_2  and  O_3
REMARK    3  A    between atoms: O_3  and  C_4
REMARK    4  A    between atoms: C_4  and  C_6
REMARK    5  A    between atoms: C_9  and  C_11
REMARK                            x       y       z     vdW  Elec       q    Type
REMARK                         _______ _______ _______ _____ _____    ______ ____
ROOT
ATOM      1  C   UNL     1       4.764   4.932  18.136  0.00  0.00    +0.000 A 
ATOM      2  N   UNL     1       4.137   6.042  18.576  0.00  0.00    +0.000 NA
ATOM      3  N   UNL     1       2.993   5.592  19.166  0.00  0.00    +0.000 N 
ATOM      4  C   UNL     1       2.132   6.484  19.839  0.00  0.00    +0.000 C 
ATOM      5  O   UNL     1       1.317   6.040  20.643  0.00  0.00    +0.000 OA
ATOM      6  C   UNL     1       2.836   4.221  19.023  0.00  0.00    +0.000 A 
ATOM      7  C   UNL     1       1.808   3.349  19.417  0.00  0.00    +0.000 A 
ATOM      8  C   UNL     1       1.933   1.996  19.089  0.00  0.00    +0.000 A 
ATOM      9  C   UNL     1       3.048   1.528  18.402  0.00  0.00    +0.000 A 
ATOM     10  C   UNL     1       4.074   2.403  18.027  0.00  0.00    +0.000 A 
ATOM     11  C   UNL     1       3.959   3.774  18.332  0.00  0.00    +0.000 A 
ENDROOT
BRANCH   4  12
ATOM     12  C   UNL     1       2.272   7.946  19.462  0.00  0.00    +0.000 C 
ATOM     13  C   UNL     1       1.905   8.187  17.996  0.00  0.00    +0.000 C 
ATOM     14  C   UNL     1       1.546   9.664  17.927  0.00  0.00    +0.000 C 
ATOM     15  C   UNL     1       0.998  10.027  19.300  0.00  0.00    +0.000 C 
ATOM     16  C   UNL     1       1.244   8.818  20.197  0.00  0.00    +0.000 C 
ENDBRANCH   4  12
BRANCH   1  17
ATOM     17  C   UNL     1       6.130   4.947  17.590  0.00  0.00    +0.000 C 
ATOM     18  O   UNL     1       7.091   4.431  18.156  0.00  0.00    +0.000 OA
BRANCH  17  19
ATOM     19  O   UNL     1       6.232   5.697  16.451  0.00  0.00    +0.000 OA
BRANCH  19  21
ATOM     20  C   UNL     1       6.491   4.293  14.533  0.00  0.00    +0.000 C 
ATOM     21  C   UNL     1       5.535   5.181  15.310  0.00  0.00    +0.000 C 
ENDBRANCH  19  21
ENDBRANCH  17  19
ENDBRANCH   1  17
TORSDOF 4
ENDMDL
MODEL 5
REMARK VINA RESULT:      -6.9      2.815      6.468
REMARK  Name = 
REMARK  5 active torsions:
REMARK  status: ('A' for Active; 'I' for Inactive)
REMARK    1  A    between atoms: C_1  and  C_2
REMARK    2  A    between atoms: C_2  and  O_3
REMARK    3  A    between atoms: O_3  and  C_4
REMARK    4  A    between atoms: C_4  and  C_6
REMARK    5  A    between atoms: C_9  and  C_11
REMARK                            x       y       z     vdW  Elec       q    Type
REMARK                         _______ _______ _______ _____ _____    ______ ____
ROOT
ATOM      1  C   UNL     1       4.160   5.976  17.305  0.00  0.00    +0.000 A 
ATOM      2  N   UNL     1       3.604   6.964  18.036  0.00  0.00    +0.000 NA
ATOM      3  N   UNL     1       2.705   6.340  18.850  0.00  0.00    +0.000 N 
ATOM      4  C   UNL     1       2.006   7.064  19.839  0.00  0.00    +0.000 C 
ATOM      5  O   UNL     1       1.482   6.457  20.769  0.00  0.00    +0.000 OA
ATOM      6  C   UNL     1       2.611   4.982  18.580  0.00  0.00    +0.000 A 
ATOM      7  C   UNL     1       1.799   3.973  19.121  0.00  0.00    +0.000 A 
ATOM      8  C   UNL     1       1.922   2.681  18.602  0.00  0.00    +0.000 A 
ATOM      9  C   UNL     1       2.830   2.404  17.586  0.00  0.00    +0.000 A 
ATOM     10  C   UNL     1       3.646   3.415  17.064  0.00  0.00    +0.000 A 
ATOM     11  C   UNL     1       3.525   4.727  17.561  0.00  0.00    +0.000 A 
ENDROOT
BRANCH   4  12
ATOM     12  C   UNL     1       1.932   8.564  19.628  0.00  0.00    +0.000 C 
ATOM     13  C   UNL     1       1.263   8.913  18.297  0.00  0.00    +0.000 C 
ATOM     14  C   UNL     1       0.761  10.337  18.480  0.00  0.00    +0.000 C 
ATOM     15  C   UNL     1       0.462  10.489  19.966  0.00  0.00    +0.000 C 
ATOM     16  C   UNL     1       0.992   9.229  20.643  0.00  0.00    +0.000 C 
ENDBRANCH   4  12
BRANCH   1  17
ATOM     17  C   UNL     1       5.314   6.188  16.419  0.00  0.00    +0.000 C 
ATOM     18  O   UNL     1       5.226   6.685  15.299  0.00  0.00    +0.000 OA
BRANCH  17  19
ATOM     19  O   UNL     1       6.470   5.663  16.929  0.00  0.00    +0.000 OA
BRANCH  19  21
ATOM     20  C   UNL     1       7.713   6.015  18.941  0.00  0.00    +0.000 C 
ATOM     21  C   UNL     1       7.330   6.598  17.592  0.00  0.00    +0.000 C 
ENDBRANCH  19  21
ENDBRANCH  17  19
ENDBRANCH   1  17
TORSDOF 4
ENDMDL
MODEL 6
REMARK VINA RESULT:      -6.8      2.385      4.366
REMARK  Name = 
REMARK  5 active torsions:
REMARK  status: ('A' for Active; 'I' for Inactive)
REMARK    1  A    between atoms: C_1  and  C_2
REMARK    2  A    between atoms: C_2  and  O_3
REMARK    3  A    between atoms: O_3  and  C_4
REMARK    4  A    between atoms: C_4  and  C_6
REMARK    5  A    between atoms: C_9  and  C_11
REMARK                            x       y       z     vdW  Elec       q    Type
REMARK                         _______ _______ _______ _____ _____    ______ ____
ROOT
ATOM      1  C   UNL     1       2.792   6.237  19.039  0.00  0.00    +0.000 A 
ATOM      2  N   UNL     1       3.548   5.915  17.969  0.00  0.00    +0.000 NA
ATOM      3  N   UNL     1       3.758   4.573  18.074  0.00  0.00    +0.000 N 
ATOM      4  C   UNL     1       4.430   3.867  17.054  0.00  0.00    +0.000 C 
ATOM      5  O   UNL     1       4.308   2.647  16.987  0.00  0.00    +0.000 OA
ATOM      6  C   UNL     1       3.227   4.051  19.245  0.00  0.00    +0.000 A 
ATOM      7  C   UNL     1       3.246   2.756  19.788  0.00  0.00    +0.000 A 
ATOM      8  C   UNL     1       2.638   2.555  21.030  0.00  0.00    +0.000 A 
ATOM      9  C   UNL     1       2.024   3.606  21.702  0.00  0.00    +0.000 A 
ATOM     10  C   UNL     1       1.998   4.890  21.146  0.00  0.00    +0.000 A 
ATOM     11  C   UNL     1       2.621   5.118  19.903  0.00  0.00    +0.000 A 
ENDROOT
BRANCH   4  12
ATOM     12  C   UNL     1       5.298   4.705  16.136  0.00  0.00    +0.000 C 
ATOM     13  C   UNL     1       6.777   4.611  16.518  0.00  0.00    +0.000 C 
ATOM     14  C   UNL     1       7.527   4.993  15.250  0.00  0.00    +0.000 C 
ATOM     15  C   UNL     1       6.633   4.573  14.091  0.00  0.00    +0.000 C 
ATOM     16  C   UNL     1       5.301   4.153  14.703  0.00  0.00    +0.000 C 
ENDBRANCH   4  12
BRANCH   1  17
ATOM     17  C   UNL     1       2.186   7.565  19.222  0.00  0.00    +0.000 C 
ATOM     18  O   UNL     1       1.824   8.000  20.312  0.00  0.00    +0.000 OA
BRANCH  17  19
ATOM     19  O   UNL     1       1.960   8.206  18.034  0.00  0.00    +0.000 OA
BRANCH  19  21
ATOM     20  C   UNL     1       0.219   9.844  18.087  0.00  0.00    +0.000 C 
ATOM     21  C   UNL     1       1.720   9.615  18.132  0.00  0.00    +0.000 C 
ENDBRANCH  19  21
ENDBRANCH  17  19
ENDBRANCH   1  17
TORSDOF 4
ENDMDL
MODEL 7
REMARK VINA RESULT:      -6.8      2.460      4.300
REMARK  Name = 
REMARK  5 active torsions:
REMARK  status: ('A' for Active; 'I' for Inactive)
REMARK    1  A    between atoms: C_1  and  C_2
REMARK    2  A    between atoms: C_2  and  O_3
REMARK    3  A    between atoms: O_3  and  C_4
REMARK    4  A    between atoms: C_4  and  C_6
REMARK    5  A    between atoms: C_9  and  C_11
REMARK                            x       y       z     vdW  Elec       q    Type
REMARK                         _______ _______ _______ _____ _____    ______ ____
ROOT
ATOM      1  C   UNL     1       2.601   6.354  18.902  0.00  0.00    +0.000 A 
ATOM      2  N   UNL     1       3.443   6.056  17.892  0.00  0.00    +0.000 NA
ATOM      3  N   UNL     1       3.524   4.695  17.887  0.00  0.00    +0.000 N 
ATOM      4  C   UNL     1       4.245   4.019  16.880  0.00  0.00    +0.000 C 
ATOM      5  O   UNL     1       4.028   2.827  16.683  0.00  0.00    +0.000 OA
ATOM      6  C   UNL     1       2.821   4.126  18.940  0.00  0.00    +0.000 A 
ATOM      7  C   UNL     1       2.667   2.793  19.353  0.00  0.00    +0.000 A 
ATOM      8  C   UNL     1       1.906   2.544  20.499  0.00  0.00    +0.000 A 
ATOM      9  C   UNL     1       1.312   3.587  21.202  0.00  0.00    +0.000 A 
ATOM     10  C   UNL     1       1.460   4.911  20.773  0.00  0.00    +0.000 A 
ATOM     11  C   UNL     1       2.238   5.185  19.631  0.00  0.00    +0.000 A 
ENDROOT
BRANCH   4  12
ATOM     12  C   UNL     1       5.282   4.848  16.145  0.00  0.00    +0.000 C 
ATOM     13  C   UNL     1       6.696   4.562  16.654  0.00  0.00    +0.000 C 
ATOM     14  C   UNL     1       7.608   4.985  15.512  0.00  0.00    +0.000 C 
ATOM     15  C   UNL     1       6.807   4.776  14.235  0.00  0.00    +0.000 C 
ATOM     16  C   UNL     1       5.384   4.440  14.668  0.00  0.00    +0.000 C 
ENDBRANCH   4  12
BRANCH   1  17
ATOM     17  C   UNL     1       2.094   7.712  19.148  0.00  0.00    +0.000 C 
ATOM     18  O   UNL     1       1.998   8.568  18.271  0.00  0.00    +0.000 OA
BRANCH  17  19
ATOM     19  O   UNL     1       1.857   7.952  20.474  0.00  0.00    +0.000 OA
BRANCH  19  21
ATOM     20  C   UNL     1      -0.185   8.526  21.578  0.00  0.00    +0.000 C 
ATOM     21  C   UNL     1       0.979   9.049  20.754  0.00  0.00    +0.000 C 
ENDBRANCH  19  21
ENDBRANCH  17  19
ENDBRANCH   1  17
TORSDOF 4
ENDMDL
MODEL 8
REMARK VINA RESULT:      -6.8      2.676      4.731
REMARK  Name = 
REMARK  5 active torsions:
REMARK  status: ('A' for Active; 'I' for Inactive)
REMARK    1  A    between atoms: C_1  and  C_2
REMARK    2  A    between atoms: C_2  and  O_3
REMARK    3  A    between atoms: O_3  and  C_4
REMARK    4  A    between atoms: C_4  and  C_6
REMARK    5  A    between atoms: C_9  and  C_11
REMARK                            x       y       z     vdW  Elec       q    Type
REMARK                         _______ _______ _______ _____ _____    ______ ____
ROOT
ATOM      1  C   UNL     1       3.191   6.119  18.376  0.00  0.00    +0.000 A 
ATOM      2  N   UNL     1       4.444   6.155  17.880  0.00  0.00    +0.000 NA
ATOM      3  N   UNL     1       4.681   4.893  17.421  0.00  0.00    +0.000 N 
ATOM      4  C   UNL     1       5.873   4.589  16.731  0.00  0.00    +0.000 C 
ATOM      5  O   UNL     1       5.923   3.579  16.034  0.00  0.00    +0.000 OA
ATOM      6  C   UNL     1       3.632   4.030  17.704  0.00  0.00    +0.000 A 
ATOM      7  C   UNL     1       3.459   2.656  17.471  0.00  0.00    +0.000 A 
ATOM      8  C   UNL     1       2.277   2.057  17.916  0.00  0.00    +0.000 A 
ATOM      9  C   UNL     1       1.297   2.805  18.560  0.00  0.00    +0.000 A 
ATOM     10  C   UNL     1       1.473   4.177  18.774  0.00  0.00    +0.000 A 
ATOM     11  C   UNL     1       2.665   4.796  18.350  0.00  0.00    +0.000 A 
ENDROOT
BRANCH   4  12
ATOM     12  C   UNL     1       7.027   5.547  16.957  0.00  0.00    +0.000 C 
ATOM     13  C   UNL     1       6.584   7.005  16.814  0.00  0.00    +0.000 C 
ATOM     14  C   UNL     1       7.622   7.800  17.591  0.00  0.00    +0.000 C 
ATOM     15  C   UNL     1       8.118   6.876  18.695  0.00  0.00    +0.000 C 
ATOM     16  C   UNL     1       7.519   5.503  18.410  0.00  0.00    +0.000 C 
ENDBRANCH   4  12
BRANCH   1  17
ATOM     17  C   UNL     1       2.468   7.323  18.815  0.00  0.00    +0.000 C 
ATOM     18  O   UNL     1       2.212   7.566  19.992  0.00  0.00    +0.000 OA
BRANCH  17  19
ATOM     19  O   UNL     1       2.013   8.073  17.766  0.00  0.00    +0.000 OA
BRANCH  19  21
ATOM     20  C   UNL     1       0.437   9.841  18.096  0.00  0.00    +0.000 C 
ATOM     21  C   UNL     1       1.910   9.481  18.015  0.00  0.00    +0.000 C 
ENDBRANCH  19  21
ENDBRANCH  17  19
ENDBRANCH   1  17
TORSDOF 4
ENDMDL
MODEL 9
REMARK VINA RESULT:      -6.7      5.001      7.468
REMARK  Name = 
REMARK  5 active torsions:
REMARK  status: ('A' for Active; 'I' for Inactive)
REMARK    1  A    between atoms: C_1  and  C_2
REMARK    2  A    between atoms: C_2  and  O_3
REMARK    3  A    between atoms: O_3  and  C_4
REMARK    4  A    between atoms: C_4  and  C_6
REMARK    5  A    between atoms: C_9  and  C_11
REMARK                            x       y       z     vdW  Elec       q    Type
REMARK                         _______ _______ _______ _____ _____    ______ ____
ROOT
ATOM      1  C   UNL     1       0.659   8.978  21.590  0.00  0.00    +0.000 A 
ATOM      2  N   UNL     1       0.937   7.661  21.502  0.00  0.00    +0.000 NA
ATOM      3  N   UNL     1       1.564   7.509  20.301  0.00  0.00    +0.000 N 
ATOM      4  C   UNL     1       2.098   6.261  19.920  0.00  0.00    +0.000 C 
ATOM      5  O   UNL     1       2.942   6.215  19.029  0.00  0.00    +0.000 OA
ATOM      6  C   UNL     1       1.604   8.694  19.580  0.00  0.00    +0.000 A 
ATOM      7  C   UNL     1       2.096   8.997  18.300  0.00  0.00    +0.000 A 
ATOM      8  C   UNL     1       1.955  10.307  17.835  0.00  0.00    +0.000 A 
ATOM      9  C   UNL     1       1.354  11.283  18.622  0.00  0.00    +0.000 A 
ATOM     10  C   UNL     1       0.881  10.975  19.903  0.00  0.00    +0.000 A 
ATOM     11  C   UNL     1       0.997   9.656  20.384  0.00  0.00    +0.000 A 
ENDROOT
BRANCH   4  12
ATOM     12  C   UNL     1       1.530   5.054  20.641  0.00  0.00    +0.000 C 
ATOM     13  C   UNL     1       1.083   3.969  19.659  0.00  0.00    +0.000 C 
ATOM     14  C   UNL     1       1.089   2.685  20.475  0.00  0.00    +0.000 C 
ATOM     15  C   UNL     1       2.162   2.869  21.539  0.00  0.00    +0.000 C 
ATOM     16  C   UNL     1       2.608   4.325  21.455  0.00  0.00    +0.000 C 
ENDBRANCH   4  12
BRANCH   1  17
ATOM     17  C   UNL     1       0.138   9.607  22.813  0.00  0.00    +0.000 C 
ATOM     18  O   UNL     1       0.681   9.507  23.910  0.00  0.00    +0.000 OA
BRANCH  17  19
ATOM     19  O   UNL     1      -1.073  10.211  22.616  0.00  0.00    +0.000 OA
BRANCH  19  21
ATOM     20  C   UNL     1      -2.577  11.986  23.169  0.00  0.00    +0.000 C 
ATOM     21  C   UNL     1      -1.125  11.607  22.938  0.00  0.00    +0.000 C 
ENDBRANCH  19  21
ENDBRANCH  17  19
ENDBRANCH   1  17
TORSDOF 4
ENDMDL
