MODEL 1
REMARK VINA RESULT:      -7.9      0.000      0.000
REMARK  Name = 
REMARK  0 active torsions:
REMARK  status: ('A' for Active; 'I' for Inactive)
REMARK                            x       y       z     vdW  Elec       q    Type
REMARK                         _______ _______ _______ _____ _____    ______ ____
ROOT
ATOM      1  C   UNL     1       1.345   3.269  21.279  0.00  0.00    +0.000 C 
ATOM      2  C   UNL     1       0.737   2.739  19.995  0.00  0.00    +0.000 C 
ATOM      3  C   UNL     1       1.837   2.099  19.149  0.00  0.00    +0.000 C 
ATOM      4  N   UNL     1       2.900   3.041  18.763  0.00  0.00    +0.000 NA
ATOM      5  C   UNL     1       2.529   3.758  17.535  0.00  0.00    +0.000 C 
ATOM      6  C   UNL     1       3.483   4.891  17.150  0.00  0.00    +0.000 C 
ATOM      7  C   UNL     1       3.542   5.847  18.344  0.00  0.00    +0.000 C 
ATOM      8  C   UNL     1       4.272   5.100  19.460  0.00  0.00    +0.000 C 
ATOM      9  C   UNL     1       5.712   4.759  19.001  0.00  0.00    +0.000 C 
ATOM     10  N   UNL     1       5.930   5.010  17.564  0.00  0.00    +0.000 NA
ATOM     11  C   UNL     1       7.295   4.645  17.174  0.00  0.00    +0.000 C 
ATOM     12  C   UNL     1       7.532   4.961  15.701  0.00  0.00    +0.000 C 
ATOM     13  C   UNL     1       6.545   4.199  14.828  0.00  0.00    +0.000 C 
ATOM     14  C   UNL     1       5.116   4.512  15.254  0.00  0.00    +0.000 C 
ATOM     15  C   UNL     1       4.893   4.333  16.771  0.00  0.00    +0.000 C 
ATOM     16  C   UNL     1       3.433   3.849  19.885  0.00  0.00    +0.000 C 
ATOM     17  C   UNL     1       2.394   4.313  20.939  0.00  0.00    +0.000 C 
ENDROOT
TORSDOF 0
ENDMDL
MODEL 2
REMARK VINA RESULT:      -7.7      1.646      2.724
REMARK  Name = 
REMARK  0 active torsions:
REMARK  status: ('A' for Active; 'I' for Inactive)
REMARK                            x       y       z     vdW  Elec       q    Type
REMARK                         _______ _______ _______ _____ _____    ______ ____
ROOT
ATOM      1  C   UNL     1       0.559   3.072  19.667  0.00  0.00    +0.000 C 
ATOM      2  C   UNL     1       1.541   2.621  20.731  0.00  0.00    +0.000 C 
ATOM      3  C   UNL     1       2.443   3.795  21.106  0.00  0.00    +0.000 C 
ATOM      4  N   UNL     1       3.239   4.305  19.978  0.00  0.00    +0.000 NA
ATOM      5  C   UNL     1       4.485   3.538  19.841  0.00  0.00    +0.000 C 
ATOM      6  C   UNL     1       5.297   3.868  18.586  0.00  0.00    +0.000 C 
ATOM      7  C   UNL     1       4.377   3.633  17.386  0.00  0.00    +0.000 C 
ATOM      8  C   UNL     1       3.308   4.724  17.442  0.00  0.00    +0.000 C 
ATOM      9  C   UNL     1       3.977   6.115  17.314  0.00  0.00    +0.000 C 
ATOM     10  N   UNL     1       5.447   6.055  17.416  0.00  0.00    +0.000 NA
ATOM     11  C   UNL     1       6.030   7.397  17.319  0.00  0.00    +0.000 C 
ATOM     12  C   UNL     1       7.553   7.322  17.368  0.00  0.00    +0.000 C 
ATOM     13  C   UNL     1       8.012   6.673  18.666  0.00  0.00    +0.000 C 
ATOM     14  C   UNL     1       7.370   5.300  18.824  0.00  0.00    +0.000 C 
ATOM     15  C   UNL     1       5.839   5.334  18.637  0.00  0.00    +0.000 C 
ATOM     16  C   UNL     1       2.455   4.552  18.745  0.00  0.00    +0.000 C 
ATOM     17  C   UNL     1       1.330   3.529  18.441  0.00  0.00    +0.000 C 
ENDROOT
TORSDOF 0
ENDMDL
MODEL 3
REMARK VINA RESULT:      -7.4      0.747      5.597
REMARK  Name = 
REMARK  0 active torsions:
REMARK  status: ('A' for Active; 'I' for Inactive)
REMARK                            x       y       z     vdW  Elec       q    Type
REMARK                         _______ _______ _______ _____ _____    ______ ____
ROOT
ATOM      1  C   UNL     1       6.960   5.029  15.386  0.00  0.00    +0.000 C 
ATOM      2  C   UNL     1       7.470   5.669  16.663  0.00  0.00    +0.000 C 
ATOM      3  C   UNL     1       7.204   4.726  17.835  0.00  0.00    +0.000 C 
ATOM      4  N   UNL     1       5.776   4.437  18.042  0.00  0.00    +0.000 NA
ATOM      5  C   UNL     1       5.160   5.473  18.883  0.00  0.00    +0.000 C 
ATOM      6  C   UNL     1       3.638   5.365  19.006  0.00  0.00    +0.000 C 
ATOM      7  C   UNL     1       3.072   5.408  17.585  0.00  0.00    +0.000 C 
ATOM      8  C   UNL     1       3.490   4.101  16.914  0.00  0.00    +0.000 C 
ATOM      9  C   UNL     1       2.873   2.903  17.678  0.00  0.00    +0.000 C 
ATOM     10  N   UNL     1       2.262   3.297  18.962  0.00  0.00    +0.000 NA
ATOM     11  C   UNL     1       1.719   2.127  19.660  0.00  0.00    +0.000 C 
ATOM     12  C   UNL     1       1.038   2.549  20.959  0.00  0.00    +0.000 C 
ATOM     13  C   UNL     1       2.028   3.257  21.872  0.00  0.00    +0.000 C 
ATOM     14  C   UNL     1       2.657   4.442  21.149  0.00  0.00    +0.000 C 
ATOM     15  C   UNL     1       3.227   4.062  19.766  0.00  0.00    +0.000 C 
ATOM     16  C   UNL     1       5.052   4.044  16.810  0.00  0.00    +0.000 C 
ATOM     17  C   UNL     1       5.466   4.787  15.513  0.00  0.00    +0.000 C 
ENDROOT
TORSDOF 0
ENDMDL
MODEL 4
REMARK VINA RESULT:      -7.1      1.354      1.797
REMARK  Name = 
REMARK  0 active torsions:
REMARK  status: ('A' for Active; 'I' for Inactive)
REMARK                            x       y       z     vdW  Elec       q    Type
REMARK                         _______ _______ _______ _____ _____    ______ ____
ROOT
ATOM      1  C   UNL     1       1.399   3.292  21.716  0.00  0.00    +0.000 C 
ATOM      2  C   UNL     1       2.182   2.035  21.391  0.00  0.00    +0.000 C 
ATOM      3  C   UNL     1       3.600   2.423  20.975  0.00  0.00    +0.000 C 
ATOM      4  N   UNL     1       3.645   3.276  19.777  0.00  0.00    +0.000 NA
ATOM      5  C   UNL     1       3.635   2.452  18.560  0.00  0.00    +0.000 C 
ATOM      6  C   UNL     1       3.493   3.246  17.259  0.00  0.00    +0.000 C 
ATOM      7  C   UNL     1       2.205   4.064  17.375  0.00  0.00    +0.000 C 
ATOM      8  C   UNL     1       2.464   5.128  18.441  0.00  0.00    +0.000 C 
ATOM      9  C   UNL     1       3.621   6.051  17.984  0.00  0.00    +0.000 C 
ATOM     10  N   UNL     1       4.325   5.541  16.792  0.00  0.00    +0.000 NA
ATOM     11  C   UNL     1       5.428   6.431  16.418  0.00  0.00    +0.000 C 
ATOM     12  C   UNL     1       6.114   5.928  15.152  0.00  0.00    +0.000 C 
ATOM     13  C   UNL     1       6.660   4.524  15.366  0.00  0.00    +0.000 C 
ATOM     14  C   UNL     1       5.545   3.589  15.817  0.00  0.00    +0.000 C 
ATOM     15  C   UNL     1       4.747   4.149  17.013  0.00  0.00    +0.000 C 
ATOM     16  C   UNL     1       2.719   4.433  19.820  0.00  0.00    +0.000 C 
ATOM     17  C   UNL     1       1.340   4.173  20.481  0.00  0.00    +0.000 C 
ENDROOT
TORSDOF 0
ENDMDL
MODEL 5
REMARK VINA RESULT:      -7.0      1.185      5.524
REMARK  Name = 
REMARK  0 active torsions:
REMARK  status: ('A' for Active; 'I' for Inactive)
REMARK                            x       y       z     vdW  Elec       q    Type
REMARK                         _______ _______ _______ _____ _____    ______ ____
ROOT
ATOM      1  C   UNL     1       7.469   6.255  16.661  0.00  0.00    +0.000 C 
ATOM      2  C   UNL     1       7.563   6.624  18.128  0.00  0.00    +0.000 C 
ATOM      3  C   UNL     1       7.106   5.436  18.972  0.00  0.00    +0.000 C 
ATOM      4  N   UNL     1       5.712   5.040  18.720  0.00  0.00    +0.000 NA
ATOM      5  C   UNL     1       4.794   5.836  19.548  0.00  0.00    +0.000 C 
ATOM      6  C   UNL     1       3.312   5.631  19.226  0.00  0.00    +0.000 C 
ATOM      7  C   UNL     1       3.129   5.956  17.742  0.00  0.00    +0.000 C 
ATOM      8  C   UNL     1       3.841   4.849  16.966  0.00  0.00    +0.000 C 
ATOM      9  C   UNL     1       3.177   3.485  17.280  0.00  0.00    +0.000 C 
ATOM     10  N   UNL     1       2.219   3.558  18.400  0.00  0.00    +0.000 NA
ATOM     11  C   UNL     1       1.641   2.239  18.677  0.00  0.00    +0.000 C 
ATOM     12  C   UNL     1       0.609   2.333  19.796  0.00  0.00    +0.000 C 
ATOM     13  C   UNL     1       1.251   2.872  21.067  0.00  0.00    +0.000 C 
ATOM     14  C   UNL     1       1.916   4.215  20.793  0.00  0.00    +0.000 C 
ATOM     15  C   UNL     1       2.859   4.174  19.572  0.00  0.00    +0.000 C 
ATOM     16  C   UNL     1       5.374   4.892  17.284  0.00  0.00    +0.000 C 
ATOM     17  C   UNL     1       6.026   5.920  16.324  0.00  0.00    +0.000 C 
ENDROOT
TORSDOF 0
ENDMDL
MODEL 6
REMARK VINA RESULT:      -6.9      1.293      5.303
REMARK  Name = 
REMARK  0 active torsions:
REMARK  status: ('A' for Active; 'I' for Inactive)
REMARK                            x       y       z     vdW  Elec       q    Type
REMARK                         _______ _______ _______ _____ _____    ______ ____
ROOT
ATOM      1  C   UNL     1       7.334   6.687  16.624  0.00  0.00    +0.000 C 
ATOM      2  C   UNL     1       6.936   5.668  15.574  0.00  0.00    +0.000 C 
ATOM      3  C   UNL     1       5.412   5.590  15.508  0.00  0.00    +0.000 C 
ATOM      4  N   UNL     1       4.792   5.164  16.773  0.00  0.00    +0.000 NA
ATOM      5  C   UNL     1       4.751   3.697  16.857  0.00  0.00    +0.000 C 
ATOM      6  C   UNL     1       4.294   3.153  18.212  0.00  0.00    +0.000 C 
ATOM      7  C   UNL     1       5.239   3.733  19.267  0.00  0.00    +0.000 C 
ATOM      8  C   UNL     1       4.938   5.230  19.339  0.00  0.00    +0.000 C 
ATOM      9  C   UNL     1       3.471   5.444  19.789  0.00  0.00    +0.000 C 
ATOM     10  N   UNL     1       2.686   4.195  19.794  0.00  0.00    +0.000 NA
ATOM     11  C   UNL     1       1.300   4.455  20.196  0.00  0.00    +0.000 C 
ATOM     12  C   UNL     1       0.509   3.152  20.255  0.00  0.00    +0.000 C 
ATOM     13  C   UNL     1       0.512   2.466  18.896  0.00  0.00    +0.000 C 
ATOM     14  C   UNL     1       1.942   2.241  18.423  0.00  0.00    +0.000 C 
ATOM     15  C   UNL     1       2.800   3.522  18.490  0.00  0.00    +0.000 C 
ATOM     16  C   UNL     1       5.280   5.898  17.965  0.00  0.00    +0.000 C 
ATOM     17  C   UNL     1       6.791   6.249  17.973  0.00  0.00    +0.000 C 
ENDROOT
TORSDOF 0
ENDMDL
MODEL 7
REMARK VINA RESULT:      -6.5      1.414      5.470
REMARK  Name = 
REMARK  0 active torsions:
REMARK  status: ('A' for Active; 'I' for Inactive)
REMARK                            x       y       z     vdW  Elec       q    Type
REMARK                         _______ _______ _______ _____ _____    ______ ____
ROOT
ATOM      1  C   UNL     1       6.177   5.273  14.871  0.00  0.00    +0.000 C 
ATOM      2  C   UNL     1       5.486   6.545  15.325  0.00  0.00    +0.000 C 
ATOM      3  C   UNL     1       5.481   6.591  16.852  0.00  0.00    +0.000 C 
ATOM      4  N   UNL     1       4.757   5.468  17.469  0.00  0.00    +0.000 NA
ATOM      5  C   UNL     1       3.323   5.773  17.567  0.00  0.00    +0.000 C 
ATOM      6  C   UNL     1       2.455   4.597  18.025  0.00  0.00    +0.000 C 
ATOM      7  C   UNL     1       2.704   3.451  17.041  0.00  0.00    +0.000 C 
ATOM      8  C   UNL     1       4.137   2.979  17.281  0.00  0.00    +0.000 C 
ATOM      9  C   UNL     1       4.275   2.453  18.732  0.00  0.00    +0.000 C 
ATOM     10  N   UNL     1       3.097   2.757  19.566  0.00  0.00    +0.000 NA
ATOM     11  C   UNL     1       3.288   2.266  20.934  0.00  0.00    +0.000 C 
ATOM     12  C   UNL     1       2.044   2.533  21.776  0.00  0.00    +0.000 C 
ATOM     13  C   UNL     1       1.743   4.024  21.821  0.00  0.00    +0.000 C 
ATOM     14  C   UNL     1       1.602   4.575  20.408  0.00  0.00    +0.000 C 
ATOM     15  C   UNL     1       2.790   4.194  19.499  0.00  0.00    +0.000 C 
ATOM     16  C   UNL     1       5.133   4.137  16.934  0.00  0.00    +0.000 C 
ATOM     17  C   UNL     1       5.416   4.075  15.411  0.00  0.00    +0.000 C 
ENDROOT
TORSDOF 0
ENDMDL
MODEL 8
REMARK VINA RESULT:      -6.2      1.291      5.464
REMARK  Name = 
REMARK  0 active torsions:
REMARK  status: ('A' for Active; 'I' for Inactive)
REMARK                            x       y       z     vdW  Elec       q    Type
REMARK                         _______ _______ _______ _____ _____    ______ ____
ROOT
ATOM      1  C   UNL     1       6.120   5.911  14.865  0.00  0.00    +0.000 C 
ATOM      2  C   UNL     1       6.919   4.739  15.402  0.00  0.00    +0.000 C 
ATOM      3  C   UNL     1       5.958   3.627  15.815  0.00  0.00    +0.000 C 
ATOM      4  N   UNL     1       5.021   4.027  16.877  0.00  0.00    +0.000 NA
ATOM      5  C   UNL     1       5.632   3.836  18.199  0.00  0.00    +0.000 C 
ATOM      6  C   UNL     1       4.810   4.395  19.364  0.00  0.00    +0.000 C 
ATOM      7  C   UNL     1       4.585   5.881  19.076  0.00  0.00    +0.000 C 
ATOM      8  C   UNL     1       3.639   5.950  17.878  0.00  0.00    +0.000 C 
ATOM      9  C   UNL     1       2.288   5.286  18.242  0.00  0.00    +0.000 C 
ATOM     10  N   UNL     1       2.336   4.557  19.524  0.00  0.00    +0.000 NA
ATOM     11  C   UNL     1       1.045   3.922  19.809  0.00  0.00    +0.000 C 
ATOM     12  C   UNL     1       1.084   3.219  21.162  0.00  0.00    +0.000 C 
ATOM     13  C   UNL     1       2.175   2.158  21.179  0.00  0.00    +0.000 C 
ATOM     14  C   UNL     1       3.519   2.779  20.823  0.00  0.00    +0.000 C 
ATOM     15  C   UNL     1       3.465   3.614  19.526  0.00  0.00    +0.000 C 
ATOM     16  C   UNL     1       4.336   5.317  16.626  0.00  0.00    +0.000 C 
ATOM     17  C   UNL     1       5.194   6.421  15.954  0.00  0.00    +0.000 C 
ENDROOT
TORSDOF 0
ENDMDL
MODEL 9
REMARK VINA RESULT:      -6.2      2.860      5.151
REMARK  Name = 
REMARK  0 active torsions:
REMARK  status: ('A' for Active; 'I' for Inactive)
REMARK                            x       y       z     vdW  Elec       q    Type
REMARK                         _______ _______ _______ _____ _____    ______ ____
ROOT
ATOM      1  C   UNL     1       2.876   2.069  17.635  0.00  0.00    +0.000 C 
ATOM      2  C   UNL     1       2.127   1.881  18.940  0.00  0.00    +0.000 C 
ATOM      3  C   UNL     1       1.003   2.912  19.024  0.00  0.00    +0.000 C 
ATOM      4  N   UNL     1       1.482   4.303  19.002  0.00  0.00    +0.000 NA
ATOM      5  C   UNL     1       1.835   4.746  20.358  0.00  0.00    +0.000 C 
ATOM      6  C   UNL     1       2.518   6.115  20.421  0.00  0.00    +0.000 C 
ATOM      7  C   UNL     1       3.761   6.033  19.532  0.00  0.00    +0.000 C 
ATOM      8  C   UNL     1       3.257   5.926  18.093  0.00  0.00    +0.000 C 
ATOM      9  C   UNL     1       2.447   7.196  17.731  0.00  0.00    +0.000 C 
ATOM     10  N   UNL     1       2.164   8.048  18.901  0.00  0.00    +0.000 NA
ATOM     11  C   UNL     1       1.371   9.219  18.512  0.00  0.00    +0.000 C 
ATOM     12  C   UNL     1       1.131  10.125  19.716  0.00  0.00    +0.000 C 
ATOM     13  C   UNL     1       0.394   9.368  20.812  0.00  0.00    +0.000 C 
ATOM     14  C   UNL     1       1.165   8.110  21.192  0.00  0.00    +0.000 C 
ATOM     15  C   UNL     1       1.541   7.249  19.968  0.00  0.00    +0.000 C 
ATOM     16  C   UNL     1       2.452   4.595  17.920  0.00  0.00    +0.000 C 
ATOM     17  C   UNL     1       3.468   3.467  17.598  0.00  0.00    +0.000 C 
ENDROOT
TORSDOF 0
ENDMDL
