MODEL 1
REMARK VINA RESULT:      -6.9      0.000      0.000
REMARK  Name = 
REMARK  9 active torsions:
REMARK  status: ('A' for Active; 'I' for Inactive)
REMARK    1  A    between atoms: C_1  and  C_2
REMARK    2  A    between atoms: C_2  and  C_4
REMARK    3  A    between atoms: C_5  and  C_6
REMARK    4  A    between atoms: N_7  and  C_8
REMARK    5  A    between atoms: C_12  and  C_13
REMARK    6  A    between atoms: N_20  and  C_21
REMARK    7  A    between atoms: C_22  and  C_23
REMARK    8  A    between atoms: C_26  and  C_27
REMARK    9  A    between atoms: C_30  and  C_31
REMARK                            x       y       z     vdW  Elec       q    Type
REMARK                         _______ _______ _______ _____ _____    ______ ____
ROOT
ATOM      1  C   UNL     1      -0.619  11.244  21.061  0.00  0.00    +0.000 C 
ATOM      2  C   UNL     1       0.252  10.221  20.854  0.00  0.00    +0.000 C 
ATOM      3  C   UNL     1       1.239   9.698  21.892  0.00  0.00    +0.000 C 
ATOM      4  N   UNL     1       0.406   9.691  19.552  0.00  0.00    +0.000 N 
ATOM      5  C   UNL     1      -0.351  10.116  18.450  0.00  0.00    +0.000 C 
ATOM      6  O   UNL     1      -0.227   9.614  17.330  0.00  0.00    +0.000 OA
ATOM      7  N   UNL     1      -1.294  11.099  18.686  0.00  0.00    +0.000 N 
ATOM      8  C   UNL     1      -2.181  11.430  17.574  0.00  0.00    +0.000 C 
ATOM      9  C   UNL     1      -1.332  11.938  19.892  0.00  0.00    +0.000 C 
ENDROOT
BRANCH   4  10
ATOM     10  C   UNL     1       1.369   8.656  19.262  0.00  0.00    +0.000 A 
ATOM     11  C   UNL     1       2.339   8.830  18.267  0.00  0.00    +0.000 A 
ATOM     12  C   UNL     1       3.173   7.771  17.904  0.00  0.00    +0.000 A 
ATOM     13  C   UNL     1       3.072   6.547  18.561  0.00  0.00    +0.000 A 
ATOM     14  C   UNL     1       2.150   6.369  19.604  0.00  0.00    +0.000 A 
ATOM     15  C   UNL     1       1.302   7.434  19.950  0.00  0.00    +0.000 A 
BRANCH  14  16
ATOM     16  C   UNL     1       2.059   5.048  20.326  0.00  0.00    +0.000 C 
ATOM     17  F   UNL     1       2.404   5.131  21.643  0.00  0.00    +0.000 F 
ATOM     18  F   UNL     1       0.808   4.515  20.305  0.00  0.00    +0.000 F 
ATOM     19  F   UNL     1       2.881   4.102  19.792  0.00  0.00    +0.000 F 
ENDBRANCH  14  16
ENDBRANCH   4  10
BRANCH   9  20
ATOM     20  C   UNL     1      -0.751  13.349  19.634  0.00  0.00    +0.000 A 
ATOM     21  C   UNL     1       0.489  13.451  18.955  0.00  0.00    +0.000 A 
ATOM     22  C   UNL     1       1.148  14.673  18.790  0.00  0.00    +0.000 A 
ATOM     23  C   UNL     1       0.523  15.849  19.180  0.00  0.00    +0.000 A 
ATOM     24  C   UNL     1      -0.720  15.797  19.781  0.00  0.00    +0.000 A 
ATOM     25  C   UNL     1      -1.328  14.562  20.091  0.00  0.00    +0.000 A 
BRANCH  25  26
ATOM     26  C   UNL     1      -2.578  14.667  20.897  0.00  0.00    +0.000 C 
ATOM     27  N   UNL     1      -3.756  14.434  20.226  0.00  0.00    +0.000 N 
ATOM     28  O   UNL     1      -2.595  14.934  22.078  0.00  0.00    +0.000 OA
ATOM     29  H   UNL     1      -3.897  14.904  19.338  0.00  0.00    +0.000 HD
ATOM     30  H   UNL     1      -4.580  14.413  20.814  0.00  0.00    +0.000 HD
ENDBRANCH  25  26
BRANCH  23  31
ATOM     31  C   UNL     1       1.193  17.090  18.993  0.00  0.00    +0.000 C 
ATOM     32  N   UNL     1       1.713  18.127  18.897  0.00  0.00    +0.000 NA
ENDBRANCH  23  31
ENDBRANCH   9  20
BRANCH   1  34
ATOM     33  C   UNL     1      -1.918  11.534  23.320  0.00  0.00    +0.000 C 
ATOM     34  C   UNL     1      -0.769  11.904  22.423  0.00  0.00    +0.000 C 
ATOM     35  O   UNL     1       0.015  12.754  22.837  0.00  0.00    +0.000 OA
ENDBRANCH   1  34
TORSDOF 6
ENDMDL
MODEL 2
REMARK VINA RESULT:      -6.5      7.671      9.683
REMARK  Name = 
REMARK  9 active torsions:
REMARK  status: ('A' for Active; 'I' for Inactive)
REMARK    1  A    between atoms: C_1  and  C_2
REMARK    2  A    between atoms: C_2  and  C_4
REMARK    3  A    between atoms: C_5  and  C_6
REMARK    4  A    between atoms: N_7  and  C_8
REMARK    5  A    between atoms: C_12  and  C_13
REMARK    6  A    between atoms: N_20  and  C_21
REMARK    7  A    between atoms: C_22  and  C_23
REMARK    8  A    between atoms: C_26  and  C_27
REMARK    9  A    between atoms: C_30  and  C_31
REMARK                            x       y       z     vdW  Elec       q    Type
REMARK                         _______ _______ _______ _____ _____    ______ ____
ROOT
ATOM      1  C   UNL     1       5.985  15.371  22.694  0.00  0.00    +0.000 C 
ATOM      2  C   UNL     1       6.581  15.081  21.507  0.00  0.00    +0.000 C 
ATOM      3  C   UNL     1       5.838  14.860  20.193  0.00  0.00    +0.000 C 
ATOM      4  N   UNL     1       7.963  14.787  21.476  0.00  0.00    +0.000 N 
ATOM      5  C   UNL     1       8.792  14.847  22.607  0.00  0.00    +0.000 C 
ATOM      6  O   UNL     1      10.004  14.623  22.551  0.00  0.00    +0.000 OA
ATOM      7  N   UNL     1       8.193  15.224  23.795  0.00  0.00    +0.000 N 
ATOM      8  C   UNL     1       9.084  15.431  24.934  0.00  0.00    +0.000 C 
ATOM      9  C   UNL     1       6.742  15.245  24.022  0.00  0.00    +0.000 C 
ENDROOT
BRANCH   4  10
ATOM     10  C   UNL     1       8.631  14.400  20.256  0.00  0.00    +0.000 A 
ATOM     11  C   UNL     1       9.062  15.361  19.332  0.00  0.00    +0.000 A 
ATOM     12  C   UNL     1       9.580  14.968  18.097  0.00  0.00    +0.000 A 
ATOM     13  C   UNL     1       9.710  13.614  17.796  0.00  0.00    +0.000 A 
ATOM     14  C   UNL     1       9.343  12.634  18.730  0.00  0.00    +0.000 A 
ATOM     15  C   UNL     1       8.805  13.039  19.963  0.00  0.00    +0.000 A 
BRANCH  14  16
ATOM     16  C   UNL     1       9.506  11.170  18.406  0.00  0.00    +0.000 C 
ATOM     17  F   UNL     1       8.362  10.593  17.937  0.00  0.00    +0.000 F 
ATOM     18  F   UNL     1      10.452  10.937  17.457  0.00  0.00    +0.000 F 
ATOM     19  F   UNL     1       9.870  10.431  19.491  0.00  0.00    +0.000 F 
ENDBRANCH  14  16
ENDBRANCH   4  10
BRANCH   9  20
ATOM     20  C   UNL     1       6.266  14.013  24.828  0.00  0.00    +0.000 A 
ATOM     21  C   UNL     1       6.507  12.724  24.291  0.00  0.00    +0.000 A 
ATOM     22  C   UNL     1       6.001  11.564  24.887  0.00  0.00    +0.000 A 
ATOM     23  C   UNL     1       5.355  11.646  26.112  0.00  0.00    +0.000 A 
ATOM     24  C   UNL     1       5.164  12.879  26.704  0.00  0.00    +0.000 A 
ATOM     25  C   UNL     1       5.532  14.070  26.042  0.00  0.00    +0.000 A 
BRANCH  25  26
ATOM     26  C   UNL     1       5.100  15.322  26.726  0.00  0.00    +0.000 C 
ATOM     27  N   UNL     1       5.944  15.808  27.697  0.00  0.00    +0.000 N 
ATOM     28  O   UNL     1       4.075  15.911  26.463  0.00  0.00    +0.000 OA
ATOM     29  H   UNL     1       6.291  15.156  28.393  0.00  0.00    +0.000 HD
ATOM     30  H   UNL     1       5.680  16.709  28.075  0.00  0.00    +0.000 HD
ENDBRANCH  25  26
BRANCH  23  31
ATOM     31  C   UNL     1       4.859  10.458  26.720  0.00  0.00    +0.000 C 
ATOM     32  N   UNL     1       4.393   9.499  27.187  0.00  0.00    +0.000 NA
ENDBRANCH  23  31
ENDBRANCH   9  20
BRANCH   1  34
ATOM     33  C   UNL     1       3.958  17.024  22.892  0.00  0.00    +0.000 C 
ATOM     34  C   UNL     1       4.488  15.619  22.797  0.00  0.00    +0.000 C 
ATOM     35  O   UNL     1       3.664  14.707  22.818  0.00  0.00    +0.000 OA
ENDBRANCH   1  34
TORSDOF 6
ENDMDL
MODEL 3
REMARK VINA RESULT:      -6.5      4.629      7.972
REMARK  Name = 
REMARK  9 active torsions:
REMARK  status: ('A' for Active; 'I' for Inactive)
REMARK    1  A    between atoms: C_1  and  C_2
REMARK    2  A    between atoms: C_2  and  C_4
REMARK    3  A    between atoms: C_5  and  C_6
REMARK    4  A    between atoms: N_7  and  C_8
REMARK    5  A    between atoms: C_12  and  C_13
REMARK    6  A    between atoms: N_20  and  C_21
REMARK    7  A    between atoms: C_22  and  C_23
REMARK    8  A    between atoms: C_26  and  C_27
REMARK    9  A    between atoms: C_30  and  C_31
REMARK                            x       y       z     vdW  Elec       q    Type
REMARK                         _______ _______ _______ _____ _____    ______ ____
ROOT
ATOM      1  C   UNL     1      -0.234  11.275  21.630  0.00  0.00    +0.000 C 
ATOM      2  C   UNL     1      -0.953  11.996  22.530  0.00  0.00    +0.000 C 
ATOM      3  C   UNL     1      -1.766  11.395  23.672  0.00  0.00    +0.000 C 
ATOM      4  N   UNL     1      -1.127  13.385  22.330  0.00  0.00    +0.000 N 
ATOM      5  C   UNL     1      -0.531  14.094  21.277  0.00  0.00    +0.000 C 
ATOM      6  O   UNL     1      -0.665  15.313  21.142  0.00  0.00    +0.000 OA
ATOM      7  N   UNL     1       0.268  13.368  20.413  0.00  0.00    +0.000 N 
ATOM      8  C   UNL     1       1.005  14.134  19.411  0.00  0.00    +0.000 C 
ATOM      9  C   UNL     1       0.273  11.901  20.324  0.00  0.00    +0.000 C 
ENDROOT
BRANCH   4  10
ATOM     10  C   UNL     1      -1.943  14.184  23.214  0.00  0.00    +0.000 A 
ATOM     11  C   UNL     1      -1.390  14.814  24.336  0.00  0.00    +0.000 A 
ATOM     12  C   UNL     1      -2.213  15.467  25.254  0.00  0.00    +0.000 A 
ATOM     13  C   UNL     1      -3.588  15.530  25.035  0.00  0.00    +0.000 A 
ATOM     14  C   UNL     1      -4.157  14.959  23.886  0.00  0.00    +0.000 A 
ATOM     15  C   UNL     1      -3.322  14.288  22.977  0.00  0.00    +0.000 A 
BRANCH  14  16
ATOM     16  C   UNL     1      -5.643  15.050  23.644  0.00  0.00    +0.000 C 
ATOM     17  F   UNL     1      -6.226  16.109  24.274  0.00  0.00    +0.000 F 
ATOM     18  F   UNL     1      -5.960  15.182  22.328  0.00  0.00    +0.000 F 
ATOM     19  F   UNL     1      -6.312  13.948  24.085  0.00  0.00    +0.000 F 
ENDBRANCH  14  16
ENDBRANCH   4  10
BRANCH   9  20
ATOM     20  C   UNL     1      -0.533  11.394  19.104  0.00  0.00    +0.000 A 
ATOM     21  C   UNL     1      -1.844  11.896  18.909  0.00  0.00    +0.000 A 
ATOM     22  C   UNL     1      -2.688  11.401  17.910  0.00  0.00    +0.000 A 
ATOM     23  C   UNL     1      -2.200  10.485  16.989  0.00  0.00    +0.000 A 
ATOM     24  C   UNL     1      -0.902  10.024  17.103  0.00  0.00    +0.000 A 
ATOM     25  C   UNL     1      -0.090  10.399  18.195  0.00  0.00    +0.000 A 
BRANCH  25  26
ATOM     26  C   UNL     1       1.215   9.683  18.275  0.00  0.00    +0.000 C 
ATOM     27  N   UNL     1       2.287  10.304  17.679  0.00  0.00    +0.000 N 
ATOM     28  O   UNL     1       1.363   8.617  18.830  0.00  0.00    +0.000 OA
ATOM     29  H   UNL     1       2.166  10.661  16.737  0.00  0.00    +0.000 HD
ATOM     30  H   UNL     1       3.179   9.849  17.833  0.00  0.00    +0.000 HD
ENDBRANCH  25  26
BRANCH  23  31
ATOM     31  C   UNL     1      -3.061   9.999  15.966  0.00  0.00    +0.000 C 
ATOM     32  N   UNL     1      -3.801   9.660  15.133  0.00  0.00    +0.000 NA
ENDBRANCH  23  31
ENDBRANCH   9  20
BRANCH   1  34
ATOM     33  C   UNL     1       1.144   9.182  22.403  0.00  0.00    +0.000 C 
ATOM     34  C   UNL     1      -0.080   9.767  21.752  0.00  0.00    +0.000 C 
ATOM     35  O   UNL     1      -0.920   8.978  21.328  0.00  0.00    +0.000 OA
ENDBRANCH   1  34
TORSDOF 6
ENDMDL
MODEL 4
REMARK VINA RESULT:      -6.5      4.823      6.664
REMARK  Name = 
REMARK  9 active torsions:
REMARK  status: ('A' for Active; 'I' for Inactive)
REMARK    1  A    between atoms: C_1  and  C_2
REMARK    2  A    between atoms: C_2  and  C_4
REMARK    3  A    between atoms: C_5  and  C_6
REMARK    4  A    between atoms: N_7  and  C_8
REMARK    5  A    between atoms: C_12  and  C_13
REMARK    6  A    between atoms: N_20  and  C_21
REMARK    7  A    between atoms: C_22  and  C_23
REMARK    8  A    between atoms: C_26  and  C_27
REMARK    9  A    between atoms: C_30  and  C_31
REMARK                            x       y       z     vdW  Elec       q    Type
REMARK                         _______ _______ _______ _____ _____    ______ ____
ROOT
ATOM      1  C   UNL     1      -1.283  14.492  22.752  0.00  0.00    +0.000 C 
ATOM      2  C   UNL     1      -0.206  14.841  21.998  0.00  0.00    +0.000 C 
ATOM      3  C   UNL     1       0.129  16.267  21.573  0.00  0.00    +0.000 C 
ATOM      4  N   UNL     1       0.585  13.831  21.405  0.00  0.00    +0.000 N 
ATOM      5  C   UNL     1       0.367  12.460  21.607  0.00  0.00    +0.000 C 
ATOM      6  O   UNL     1       1.093  11.595  21.110  0.00  0.00    +0.000 OA
ATOM      7  N   UNL     1      -0.679  12.114  22.443  0.00  0.00    +0.000 N 
ATOM      8  C   UNL     1      -0.807  10.697  22.771  0.00  0.00    +0.000 C 
ATOM      9  C   UNL     1      -1.748  13.034  22.856  0.00  0.00    +0.000 C 
ENDROOT
BRANCH   4  10
ATOM     10  C   UNL     1       1.693  14.147  20.535  0.00  0.00    +0.000 A 
ATOM     11  C   UNL     1       1.557  14.091  19.142  0.00  0.00    +0.000 A 
ATOM     12  C   UNL     1       2.670  14.263  18.318  0.00  0.00    +0.000 A 
ATOM     13  C   UNL     1       3.917  14.533  18.879  0.00  0.00    +0.000 A 
ATOM     14  C   UNL     1       4.065  14.655  20.269  0.00  0.00    +0.000 A 
ATOM     15  C   UNL     1       2.943  14.462  21.091  0.00  0.00    +0.000 A 
BRANCH  14  16
ATOM     16  C   UNL     1       5.413  14.968  20.869  0.00  0.00    +0.000 C 
ATOM     17  F   UNL     1       6.455  14.628  20.056  0.00  0.00    +0.000 F 
ATOM     18  F   UNL     1       5.577  16.290  21.146  0.00  0.00    +0.000 F 
ATOM     19  F   UNL     1       5.631  14.307  22.040  0.00  0.00    +0.000 F 
ENDBRANCH  14  16
ENDBRANCH   4  10
BRANCH   9  20
ATOM     20  C   UNL     1      -3.052  12.799  22.058  0.00  0.00    +0.000 A 
ATOM     21  C   UNL     1      -2.970  12.717  20.645  0.00  0.00    +0.000 A 
ATOM     22  C   UNL     1      -4.109  12.633  19.839  0.00  0.00    +0.000 A 
ATOM     23  C   UNL     1      -5.359  12.492  20.425  0.00  0.00    +0.000 A 
ATOM     24  C   UNL     1      -5.473  12.495  21.802  0.00  0.00    +0.000 A 
ATOM     25  C   UNL     1      -4.352  12.732  22.625  0.00  0.00    +0.000 A 
BRANCH  25  26
ATOM     26  C   UNL     1      -4.664  12.884  24.075  0.00  0.00    +0.000 C 
ATOM     27  N   UNL     1      -5.119  14.119  24.473  0.00  0.00    +0.000 N 
ATOM     28  O   UNL     1      -4.542  11.992  24.885  0.00  0.00    +0.000 OA
ATOM     29  H   UNL     1      -4.608  14.938  24.160  0.00  0.00    +0.000 HD
ATOM     30  H   UNL     1      -5.418  14.168  25.439  0.00  0.00    +0.000 HD
ENDBRANCH  25  26
BRANCH  23  31
ATOM     31  C   UNL     1      -6.511  12.390  19.596  0.00  0.00    +0.000 C 
ATOM     32  N   UNL     1      -7.490  12.330  18.970  0.00  0.00    +0.000 NA
ENDBRANCH  23  31
ENDBRANCH   9  20
BRANCH   1  34
ATOM     33  C   UNL     1      -2.021  15.996  24.769  0.00  0.00    +0.000 C 
ATOM     34  C   UNL     1      -2.213  15.536  23.350  0.00  0.00    +0.000 C 
ATOM     35  O   UNL     1      -3.145  16.031  22.722  0.00  0.00    +0.000 OA
ENDBRANCH   1  34
TORSDOF 6
ENDMDL
MODEL 5
REMARK VINA RESULT:      -6.3      1.795      2.030
REMARK  Name = 
REMARK  9 active torsions:
REMARK  status: ('A' for Active; 'I' for Inactive)
REMARK    1  A    between atoms: C_1  and  C_2
REMARK    2  A    between atoms: C_2  and  C_4
REMARK    3  A    between atoms: C_5  and  C_6
REMARK    4  A    between atoms: N_7  and  C_8
REMARK    5  A    between atoms: C_12  and  C_13
REMARK    6  A    between atoms: N_20  and  C_21
REMARK    7  A    between atoms: C_22  and  C_23
REMARK    8  A    between atoms: C_26  and  C_27
REMARK    9  A    between atoms: C_30  and  C_31
REMARK                            x       y       z     vdW  Elec       q    Type
REMARK                         _______ _______ _______ _____ _____    ______ ____
ROOT
ATOM      1  C   UNL     1       0.246   9.693  21.150  0.00  0.00    +0.000 C 
ATOM      2  C   UNL     1       1.072   8.734  20.654  0.00  0.00    +0.000 C 
ATOM      3  C   UNL     1       1.999   7.865  21.498  0.00  0.00    +0.000 C 
ATOM      4  N   UNL     1       1.242   8.618  19.255  0.00  0.00    +0.000 N 
ATOM      5  C   UNL     1       0.542   9.399  18.324  0.00  0.00    +0.000 C 
ATOM      6  O   UNL     1       0.677   9.256  17.106  0.00  0.00    +0.000 OA
ATOM      7  N   UNL     1      -0.359  10.315  18.835  0.00  0.00    +0.000 N 
ATOM      8  C   UNL     1      -1.193  11.018  17.864  0.00  0.00    +0.000 C 
ATOM      9  C   UNL     1      -0.395  10.748  20.239  0.00  0.00    +0.000 C 
ENDROOT
BRANCH   4  10
ATOM     10  C   UNL     1       2.163   7.668  18.678  0.00  0.00    +0.000 A 
ATOM     11  C   UNL     1       3.362   8.090  18.090  0.00  0.00    +0.000 A 
ATOM     12  C   UNL     1       4.175   7.178  17.415  0.00  0.00    +0.000 A 
ATOM     13  C   UNL     1       3.816   5.833  17.360  0.00  0.00    +0.000 A 
ATOM     14  C   UNL     1       2.651   5.376  17.995  0.00  0.00    +0.000 A 
ATOM     15  C   UNL     1       1.830   6.305  18.656  0.00  0.00    +0.000 A 
BRANCH  14  16
ATOM     16  C   UNL     1       2.279   3.915  17.950  0.00  0.00    +0.000 C 
ATOM     17  F   UNL     1       2.860   3.182  18.942  0.00  0.00    +0.000 F 
ATOM     18  F   UNL     1       0.941   3.704  18.071  0.00  0.00    +0.000 F 
ATOM     19  F   UNL     1       2.652   3.316  16.785  0.00  0.00    +0.000 F 
ENDBRANCH  14  16
ENDBRANCH   4  10
BRANCH   9  20
ATOM     20  C   UNL     1       0.261  12.135  20.433  0.00  0.00    +0.000 A 
ATOM     21  C   UNL     1       1.673  12.228  20.353  0.00  0.00    +0.000 A 
ATOM     22  C   UNL     1       2.357  13.413  20.639  0.00  0.00    +0.000 A 
ATOM     23  C   UNL     1       1.644  14.578  20.883  0.00  0.00    +0.000 A 
ATOM     24  C   UNL     1       0.263  14.544  20.898  0.00  0.00    +0.000 A 
ATOM     25  C   UNL     1      -0.437  13.326  20.762  0.00  0.00    +0.000 A 
BRANCH  25  26
ATOM     26  C   UNL     1      -1.909  13.425  20.980  0.00  0.00    +0.000 C 
ATOM     27  N   UNL     1      -2.689  13.478  19.848  0.00  0.00    +0.000 N 
ATOM     28  O   UNL     1      -2.426  13.454  22.074  0.00  0.00    +0.000 OA
ATOM     29  H   UNL     1      -2.420  14.128  19.116  0.00  0.00    +0.000 HD
ATOM     30  H   UNL     1      -3.686  13.444  20.020  0.00  0.00    +0.000 HD
ENDBRANCH  25  26
BRANCH  23  31
ATOM     31  C   UNL     1       2.349  15.783  21.156  0.00  0.00    +0.000 C 
ATOM     32  N   UNL     1       2.967  16.734  21.421  0.00  0.00    +0.000 NA
ENDBRANCH  23  31
ENDBRANCH   9  20
BRANCH   1  34
ATOM     33  C   UNL     1      -1.205  10.460  23.196  0.00  0.00    +0.000 C 
ATOM     34  C   UNL     1       0.085   9.914  22.646  0.00  0.00    +0.000 C 
ATOM     35  O   UNL     1       0.980   9.672  23.452  0.00  0.00    +0.000 OA
ENDBRANCH   1  34
TORSDOF 6
ENDMDL
MODEL 6
REMARK VINA RESULT:      -6.2      4.767      6.565
REMARK  Name = 
REMARK  9 active torsions:
REMARK  status: ('A' for Active; 'I' for Inactive)
REMARK    1  A    between atoms: C_1  and  C_2
REMARK    2  A    between atoms: C_2  and  C_4
REMARK    3  A    between atoms: C_5  and  C_6
REMARK    4  A    between atoms: N_7  and  C_8
REMARK    5  A    between atoms: C_12  and  C_13
REMARK    6  A    between atoms: N_20  and  C_21
REMARK    7  A    between atoms: C_22  and  C_23
REMARK    8  A    between atoms: C_26  and  C_27
REMARK    9  A    between atoms: C_30  and  C_31
REMARK                            x       y       z     vdW  Elec       q    Type
REMARK                         _______ _______ _______ _____ _____    ______ ____
ROOT
ATOM      1  C   UNL     1      -3.452  12.565  22.215  0.00  0.00    +0.000 C 
ATOM      2  C   UNL     1      -2.195  12.665  21.708  0.00  0.00    +0.000 C 
ATOM      3  C   UNL     1      -0.970  13.104  22.505  0.00  0.00    +0.000 C 
ATOM      4  N   UNL     1      -1.992  12.527  20.316  0.00  0.00    +0.000 N 
ATOM      5  C   UNL     1      -3.020  12.217  19.412  0.00  0.00    +0.000 C 
ATOM      6  O   UNL     1      -2.815  12.064  18.205  0.00  0.00    +0.000 OA
ATOM      7  N   UNL     1      -4.282  12.034  19.947  0.00  0.00    +0.000 N 
ATOM      8  C   UNL     1      -5.315  11.564  19.028  0.00  0.00    +0.000 C 
ATOM      9  C   UNL     1      -4.678  12.453  21.299  0.00  0.00    +0.000 C 
ENDROOT
BRANCH   4  10
ATOM     10  C   UNL     1      -0.690  12.698  19.716  0.00  0.00    +0.000 A 
ATOM     11  C   UNL     1       0.148  11.600  19.485  0.00  0.00    +0.000 A 
ATOM     12  C   UNL     1       1.455  11.794  19.033  0.00  0.00    +0.000 A 
ATOM     13  C   UNL     1       1.917  13.082  18.771  0.00  0.00    +0.000 A 
ATOM     14  C   UNL     1       1.074  14.193  18.936  0.00  0.00    +0.000 A 
ATOM     15  C   UNL     1      -0.233  13.989  19.408  0.00  0.00    +0.000 A 
BRANCH  14  16
ATOM     16  C   UNL     1       1.573  15.583  18.630  0.00  0.00    +0.000 C 
ATOM     17  F   UNL     1       0.593  16.419  18.184  0.00  0.00    +0.000 F 
ATOM     18  F   UNL     1       2.122  16.200  19.711  0.00  0.00    +0.000 F 
ATOM     19  F   UNL     1       2.532  15.593  17.662  0.00  0.00    +0.000 F 
ENDBRANCH  14  16
ENDBRANCH   4  10
BRANCH   9  20
ATOM     20  C   UNL     1      -5.492  13.769  21.281  0.00  0.00    +0.000 A 
ATOM     21  C   UNL     1      -5.005  14.850  20.506  0.00  0.00    +0.000 A 
ATOM     22  C   UNL     1      -5.605  16.112  20.532  0.00  0.00    +0.000 A 
ATOM     23  C   UNL     1      -6.792  16.296  21.228  0.00  0.00    +0.000 A 
ATOM     24  C   UNL     1      -7.338  15.244  21.939  0.00  0.00    +0.000 A 
ATOM     25  C   UNL     1      -6.663  14.010  22.046  0.00  0.00    +0.000 A 
BRANCH  25  26
ATOM     26  C   UNL     1      -7.287  13.039  22.990  0.00  0.00    +0.000 C 
ATOM     27  N   UNL     1      -7.277  13.390  24.319  0.00  0.00    +0.000 N 
ATOM     28  O   UNL     1      -7.790  11.993  22.642  0.00  0.00    +0.000 OA
ATOM     29  H   UNL     1      -6.403  13.719  24.717  0.00  0.00    +0.000 HD
ATOM     30  H   UNL     1      -7.793  12.765  24.926  0.00  0.00    +0.000 HD
ENDBRANCH  25  26
BRANCH  23  31
ATOM     31  C   UNL     1      -7.405  17.580  21.235  0.00  0.00    +0.000 C 
ATOM     32  N   UNL     1      -7.901  18.630  21.308  0.00  0.00    +0.000 NA
ENDBRANCH  23  31
ENDBRANCH   9  20
BRANCH   1  34
ATOM     33  C   UNL     1      -3.631  14.157  24.291  0.00  0.00    +0.000 C 
ATOM     34  C   UNL     1      -3.738  12.781  23.693  0.00  0.00    +0.000 C 
ATOM     35  O   UNL     1      -4.052  11.864  24.448  0.00  0.00    +0.000 OA
ENDBRANCH   1  34
TORSDOF 6
ENDMDL
MODEL 7
REMARK VINA RESULT:      -6.2      4.435      6.221
REMARK  Name = 
REMARK  9 active torsions:
REMARK  status: ('A' for Active; 'I' for Inactive)
REMARK    1  A    between atoms: C_1  and  C_2
REMARK    2  A    between atoms: C_2  and  C_4
REMARK    3  A    between atoms: C_5  and  C_6
REMARK    4  A    between atoms: N_7  and  C_8
REMARK    5  A    between atoms: C_12  and  C_13
REMARK    6  A    between atoms: N_20  and  C_21
REMARK    7  A    between atoms: C_22  and  C_23
REMARK    8  A    between atoms: C_26  and  C_27
REMARK    9  A    between atoms: C_30  and  C_31
REMARK                            x       y       z     vdW  Elec       q    Type
REMARK                         _______ _______ _______ _____ _____    ______ ____
ROOT
ATOM      1  C   UNL     1       2.121  15.513  20.822  0.00  0.00    +0.000 C 
ATOM      2  C   UNL     1       1.297  14.436  20.720  0.00  0.00    +0.000 C 
ATOM      3  C   UNL     1       0.181  14.102  21.705  0.00  0.00    +0.000 C 
ATOM      4  N   UNL     1       1.567  13.443  19.752  0.00  0.00    +0.000 N 
ATOM      5  C   UNL     1       2.612  13.534  18.820  0.00  0.00    +0.000 C 
ATOM      6  O   UNL     1       2.807  12.674  17.958  0.00  0.00    +0.000 OA
ATOM      7  N   UNL     1       3.395  14.673  18.876  0.00  0.00    +0.000 N 
ATOM      8  C   UNL     1       4.382  14.835  17.813  0.00  0.00    +0.000 C 
ATOM      9  C   UNL     1       3.420  15.607  20.011  0.00  0.00    +0.000 C 
ENDROOT
BRANCH   4  10
ATOM     10  C   UNL     1       0.769  12.244  19.650  0.00  0.00    +0.000 A 
ATOM     11  C   UNL     1      -0.310  12.167  18.761  0.00  0.00    +0.000 A 
ATOM     12  C   UNL     1      -1.155  11.056  18.772  0.00  0.00    +0.000 A 
ATOM     13  C   UNL     1      -0.901   9.997  19.642  0.00  0.00    +0.000 A 
ATOM     14  C   UNL     1       0.210  10.025  20.499  0.00  0.00    +0.000 A 
ATOM     15  C   UNL     1       1.044  11.156  20.493  0.00  0.00    +0.000 A 
BRANCH  14  16
ATOM     16  C   UNL     1       0.491   8.867  21.423  0.00  0.00    +0.000 C 
ATOM     17  F   UNL     1      -0.612   8.107  21.683  0.00  0.00    +0.000 F 
ATOM     18  F   UNL     1       1.423   8.007  20.931  0.00  0.00    +0.000 F 
ATOM     19  F   UNL     1       0.953   9.269  22.640  0.00  0.00    +0.000 F 
ENDBRANCH  14  16
ENDBRANCH   4  10
BRANCH   9  20
ATOM     20  C   UNL     1       4.663  15.392  20.908  0.00  0.00    +0.000 A 
ATOM     21  C   UNL     1       4.635  14.337  21.853  0.00  0.00    +0.000 A 
ATOM     22  C   UNL     1       5.658  14.149  22.787  0.00  0.00    +0.000 A 
ATOM     23  C   UNL     1       6.805  14.928  22.717  0.00  0.00    +0.000 A 
ATOM     24  C   UNL     1       6.901  15.921  21.762  0.00  0.00    +0.000 A 
ATOM     25  C   UNL     1       5.814  16.222  20.913  0.00  0.00    +0.000 A 
BRANCH  25  26
ATOM     26  C   UNL     1       6.004  17.431  20.062  0.00  0.00    +0.000 C 
ATOM     27  N   UNL     1       6.916  17.319  19.039  0.00  0.00    +0.000 N 
ATOM     28  O   UNL     1       5.403  18.470  20.228  0.00  0.00    +0.000 OA
ATOM     29  H   UNL     1       7.825  16.923  19.254  0.00  0.00    +0.000 HD
ATOM     30  H   UNL     1       6.954  18.116  18.416  0.00  0.00    +0.000 HD
ENDBRANCH  25  26
BRANCH  23  31
ATOM     31  C   UNL     1       7.849  14.718  23.662  0.00  0.00    +0.000 C 
ATOM     32  N   UNL     1       8.703  14.481  24.416  0.00  0.00    +0.000 NA
ENDBRANCH  23  31
ENDBRANCH   9  20
BRANCH   1  34
ATOM     33  C   UNL     1       1.543  17.976  21.512  0.00  0.00    +0.000 C 
ATOM     34  C   UNL     1       1.925  16.572  21.896  0.00  0.00    +0.000 C 
ATOM     35  O   UNL     1       2.074  16.339  23.092  0.00  0.00    +0.000 OA
ENDBRANCH   1  34
TORSDOF 6
ENDMDL
MODEL 8
REMARK VINA RESULT:      -6.1      5.039      6.580
REMARK  Name = 
REMARK  9 active torsions:
REMARK  status: ('A' for Active; 'I' for Inactive)
REMARK    1  A    between atoms: C_1  and  C_2
REMARK    2  A    between atoms: C_2  and  C_4
REMARK    3  A    between atoms: C_5  and  C_6
REMARK    4  A    between atoms: N_7  and  C_8
REMARK    5  A    between atoms: C_12  and  C_13
REMARK    6  A    between atoms: N_20  and  C_21
REMARK    7  A    between atoms: C_22  and  C_23
REMARK    8  A    between atoms: C_26  and  C_27
REMARK    9  A    between atoms: C_30  and  C_31
REMARK                            x       y       z     vdW  Elec       q    Type
REMARK                         _______ _______ _______ _____ _____    ______ ____
ROOT
ATOM      1  C   UNL     1      -2.495  12.550  21.623  0.00  0.00    +0.000 C 
ATOM      2  C   UNL     1      -1.260  12.877  21.157  0.00  0.00    +0.000 C 
ATOM      3  C   UNL     1      -0.143  13.476  22.006  0.00  0.00    +0.000 C 
ATOM      4  N   UNL     1      -1.008  12.837  19.767  0.00  0.00    +0.000 N 
ATOM      5  C   UNL     1      -1.950  12.402  18.823  0.00  0.00    +0.000 C 
ATOM      6  O   UNL     1      -1.696  12.339  17.617  0.00  0.00    +0.000 OA
ATOM      7  N   UNL     1      -3.176  11.991  19.313  0.00  0.00    +0.000 N 
ATOM      8  C   UNL     1      -4.096  11.398  18.346  0.00  0.00    +0.000 C 
ATOM      9  C   UNL     1      -3.665  12.278  20.669  0.00  0.00    +0.000 C 
ENDROOT
BRANCH   4  10
ATOM     10  C   UNL     1       0.261  13.246  19.212  0.00  0.00    +0.000 A 
ATOM     11  C   UNL     1       1.275  12.312  18.962  0.00  0.00    +0.000 A 
ATOM     12  C   UNL     1       2.541  12.739  18.557  0.00  0.00    +0.000 A 
ATOM     13  C   UNL     1       2.788  14.096  18.359  0.00  0.00    +0.000 A 
ATOM     14  C   UNL     1       1.770  15.044  18.543  0.00  0.00    +0.000 A 
ATOM     15  C   UNL     1       0.504  14.607  18.969  0.00  0.00    +0.000 A 
BRANCH  14  16
ATOM     16  C   UNL     1       2.038  16.509  18.307  0.00  0.00    +0.000 C 
ATOM     17  F   UNL     1       3.043  16.733  17.413  0.00  0.00    +0.000 F 
ATOM     18  F   UNL     1       0.956  17.176  17.822  0.00  0.00    +0.000 F 
ATOM     19  F   UNL     1       2.407  17.163  19.444  0.00  0.00    +0.000 F 
ENDBRANCH  14  16
ENDBRANCH   4  10
BRANCH   9  20
ATOM     20  C   UNL     1      -4.685  13.441  20.680  0.00  0.00    +0.000 A 
ATOM     21  C   UNL     1      -4.226  14.741  20.351  0.00  0.00    +0.000 A 
ATOM     22  C   UNL     1      -5.046  15.868  20.459  0.00  0.00    +0.000 A 
ATOM     23  C   UNL     1      -6.390  15.713  20.768  0.00  0.00    +0.000 A 
ATOM     24  C   UNL     1      -6.893  14.452  21.025  0.00  0.00    +0.000 A 
ATOM     25  C   UNL     1      -6.045  13.326  21.070  0.00  0.00    +0.000 A 
BRANCH  25  26
ATOM     26  C   UNL     1      -6.700  12.070  21.535  0.00  0.00    +0.000 C 
ATOM     27  N   UNL     1      -7.104  12.045  22.849  0.00  0.00    +0.000 N 
ATOM     28  O   UNL     1      -6.890  11.108  20.824  0.00  0.00    +0.000 OA
ATOM     29  H   UNL     1      -6.443  12.351  23.555  0.00  0.00    +0.000 HD
ATOM     30  H   UNL     1      -7.635  11.224  23.113  0.00  0.00    +0.000 HD
ENDBRANCH  25  26
BRANCH  23  31
ATOM     31  C   UNL     1      -7.222  16.865  20.858  0.00  0.00    +0.000 C 
ATOM     32  N   UNL     1      -7.872  17.822  20.991  0.00  0.00    +0.000 NA
ENDBRANCH  23  31
ENDBRANCH   9  20
BRANCH   1  34
ATOM     33  C   UNL     1      -2.912  13.994  23.772  0.00  0.00    +0.000 C 
ATOM     34  C   UNL     1      -2.845  12.650  23.100  0.00  0.00    +0.000 C 
ATOM     35  O   UNL     1      -3.072  11.664  23.796  0.00  0.00    +0.000 OA
ENDBRANCH   1  34
TORSDOF 6
ENDMDL
MODEL 9
REMARK VINA RESULT:      -6.1      4.665      7.275
REMARK  Name = 
REMARK  9 active torsions:
REMARK  status: ('A' for Active; 'I' for Inactive)
REMARK    1  A    between atoms: C_1  and  C_2
REMARK    2  A    between atoms: C_2  and  C_4
REMARK    3  A    between atoms: C_5  and  C_6
REMARK    4  A    between atoms: N_7  and  C_8
REMARK    5  A    between atoms: C_12  and  C_13
REMARK    6  A    between atoms: N_20  and  C_21
REMARK    7  A    between atoms: C_22  and  C_23
REMARK    8  A    between atoms: C_26  and  C_27
REMARK    9  A    between atoms: C_30  and  C_31
REMARK                            x       y       z     vdW  Elec       q    Type
REMARK                         _______ _______ _______ _____ _____    ______ ____
ROOT
ATOM      1  C   UNL     1      -0.465  15.939  19.325  0.00  0.00    +0.000 C 
ATOM      2  C   UNL     1      -1.537  15.570  20.076  0.00  0.00    +0.000 C 
ATOM      3  C   UNL     1      -2.555  16.539  20.670  0.00  0.00    +0.000 C 
ATOM      4  N   UNL     1      -1.661  14.228  20.501  0.00  0.00    +0.000 N 
ATOM      5  C   UNL     1      -0.764  13.214  20.129  0.00  0.00    +0.000 C 
ATOM      6  O   UNL     1      -0.911  12.040  20.481  0.00  0.00    +0.000 OA
ATOM      7  N   UNL     1       0.277  13.580  19.297  0.00  0.00    +0.000 N 
ATOM      8  C   UNL     1       1.117  12.498  18.792  0.00  0.00    +0.000 C 
ATOM      9  C   UNL     1       0.691  14.969  19.049  0.00  0.00    +0.000 C 
ENDROOT
BRANCH   4  10
ATOM     10  C   UNL     1      -2.738  13.798  21.361  0.00  0.00    +0.000 A 
ATOM     11  C   UNL     1      -2.575  13.742  22.750  0.00  0.00    +0.000 A 
ATOM     12  C   UNL     1      -3.575  13.195  23.556  0.00  0.00    +0.000 A 
ATOM     13  C   UNL     1      -4.761  12.741  22.982  0.00  0.00    +0.000 A 
ATOM     14  C   UNL     1      -4.972  12.845  21.598  0.00  0.00    +0.000 A 
ATOM     15  C   UNL     1      -3.952  13.379  20.793  0.00  0.00    +0.000 A 
BRANCH  14  16
ATOM     16  C   UNL     1      -6.266  12.371  20.985  0.00  0.00    +0.000 C 
ATOM     17  F   UNL     1      -7.150  11.887  21.904  0.00  0.00    +0.000 F 
ATOM     18  F   UNL     1      -6.928  13.353  20.317  0.00  0.00    +0.000 F 
ATOM     19  F   UNL     1      -6.081  11.362  20.089  0.00  0.00    +0.000 F 
ENDBRANCH  14  16
ENDBRANCH   4  10
BRANCH   9  20
ATOM     20  C   UNL     1       1.953  15.349  19.861  0.00  0.00    +0.000 A 
ATOM     21  C   UNL     1       1.921  15.185  21.268  0.00  0.00    +0.000 A 
ATOM     22  C   UNL     1       2.965  15.620  22.090  0.00  0.00    +0.000 A 
ATOM     23  C   UNL     1       4.132  16.108  21.519  0.00  0.00    +0.000 A 
ATOM     24  C   UNL     1       4.230  16.215  20.145  0.00  0.00    +0.000 A 
ATOM     25  C   UNL     1       3.128  15.925  19.312  0.00  0.00    +0.000 A 
BRANCH  25  26
ATOM     26  C   UNL     1       3.329  16.260  17.873  0.00  0.00    +0.000 C 
ATOM     27  N   UNL     1       3.828  15.254  17.079  0.00  0.00    +0.000 N 
ATOM     28  O   UNL     1       3.073  17.342  17.394  0.00  0.00    +0.000 OA
ATOM     29  H   UNL     1       4.637  14.742  17.413  0.00  0.00    +0.000 HD
ATOM     30  H   UNL     1       3.861  15.473  16.091  0.00  0.00    +0.000 HD
ENDBRANCH  25  26
BRANCH  23  31
ATOM     31  C   UNL     1       5.197  16.532  22.363  0.00  0.00    +0.000 C 
ATOM     32  N   UNL     1       6.059  16.822  23.090  0.00  0.00    +0.000 NA
ENDBRANCH  23  31
ENDBRANCH   9  20
BRANCH   1  34
ATOM     33  C   UNL     1      -0.417  17.789  17.468  0.00  0.00    +0.000 C 
ATOM     34  C   UNL     1      -0.242  17.383  18.906  0.00  0.00    +0.000 C 
ATOM     35  O   UNL     1       0.094  18.260  19.698  0.00  0.00    +0.000 OA
ENDBRANCH   1  34
TORSDOF 6
ENDMDL
