MODEL 1
REMARK VINA RESULT:      -6.7      0.000      0.000
REMARK  Name = 
REMARK  5 active torsions:
REMARK  status: ('A' for Active; 'I' for Inactive)
REMARK    1  A    between atoms: C_2  and  O_3
REMARK    2  A    between atoms: C_2  and  C_4
REMARK    3  A    between atoms: C_7  and  S_8
REMARK    4  A    between atoms: S_8  and  N_11
REMARK    5  A    between atoms: N_11  and  C_12
REMARK                            x       y       z     vdW  Elec       q    Type
REMARK                         _______ _______ _______ _____ _____    ______ ____
ROOT
ATOM      1  C   UNL     1       2.224   3.461  18.961  0.00  0.00    +0.000 A 
ATOM      2  C   UNL     1       3.361   2.806  19.451  0.00  0.00    +0.000 A 
ATOM      3  C   UNL     1       4.632   3.334  19.220  0.00  0.00    +0.000 A 
ATOM      4  C   UNL     1       4.765   4.526  18.500  0.00  0.00    +0.000 A 
ATOM      5  C   UNL     1       3.636   5.201  18.025  0.00  0.00    +0.000 A 
ATOM      6  C   UNL     1       2.362   4.669  18.260  0.00  0.00    +0.000 A 
ENDROOT
BRANCH   4   7
ATOM      7  S   UNL     1       6.382   5.218  18.243  0.00  0.00    +0.000 S 
ATOM      8  O   UNL     1       6.204   6.572  17.763  0.00  0.00    +0.000 OA
ATOM      9  O   UNL     1       7.204   4.923  19.397  0.00  0.00    +0.000 OA
BRANCH   7  10
ATOM     10  N   UNL     1       6.950   4.315  16.927  0.00  0.00    +0.000 NA
ATOM     11  H   UNL     1       6.674   3.337  17.020  0.00  0.00    +0.000 HD
BRANCH  10  12
ATOM     12  C   UNL     1       6.837   4.927  15.605  0.00  0.00    +0.000 C 
ATOM     13  C   UNL     1       6.611   4.069  14.393  0.00  0.00    +0.000 C 
ATOM     14  C   UNL     1       5.531   4.995  14.872  0.00  0.00    +0.000 C 
ENDBRANCH  10  12
ENDBRANCH   7  10
ENDBRANCH   4   7
BRANCH   1  16
ATOM     15  O   UNL     1       0.286   2.182  18.444  0.00  0.00    +0.000 OA
ATOM     16  C   UNL     1       0.896   2.860  19.251  0.00  0.00    +0.000 C 
BRANCH  16  17
ATOM     17  O   UNL     1       0.408   3.178  20.468  0.00  0.00    +0.000 OA
ATOM     18  H   UNL     1      -0.530   2.957  20.611  0.00  0.00    +0.000 HD
ENDBRANCH  16  17
ENDBRANCH   1  16
TORSDOF 5
ENDMDL
MODEL 2
REMARK VINA RESULT:      -6.4      2.590      6.057
REMARK  Name = 
REMARK  5 active torsions:
REMARK  status: ('A' for Active; 'I' for Inactive)
REMARK    1  A    between atoms: C_2  and  O_3
REMARK    2  A    between atoms: C_2  and  C_4
REMARK    3  A    between atoms: C_7  and  S_8
REMARK    4  A    between atoms: S_8  and  N_11
REMARK    5  A    between atoms: N_11  and  C_12
REMARK                            x       y       z     vdW  Elec       q    Type
REMARK                         _______ _______ _______ _____ _____    ______ ____
ROOT
ATOM      1  C   UNL     1       6.468   5.850  17.909  0.00  0.00    +0.000 A 
ATOM      2  C   UNL     1       5.850   5.429  16.723  0.00  0.00    +0.000 A 
ATOM      3  C   UNL     1       4.890   4.417  16.751  0.00  0.00    +0.000 A 
ATOM      4  C   UNL     1       4.541   3.827  17.970  0.00  0.00    +0.000 A 
ATOM      5  C   UNL     1       5.135   4.254  19.163  0.00  0.00    +0.000 A 
ATOM      6  C   UNL     1       6.097   5.271  19.132  0.00  0.00    +0.000 A 
ENDROOT
BRANCH   4   7
ATOM      7  S   UNL     1       3.288   2.567  18.008  0.00  0.00    +0.000 S 
ATOM      8  O   UNL     1       2.104   3.113  17.379  0.00  0.00    +0.000 OA
ATOM      9  O   UNL     1       3.872   1.317  17.573  0.00  0.00    +0.000 OA
BRANCH   7  10
ATOM     10  N   UNL     1       2.944   2.459  19.663  0.00  0.00    +0.000 NA
ATOM     11  H   UNL     1       3.709   2.850  20.213  0.00  0.00    +0.000 HD
BRANCH  10  12
ATOM     12  C   UNL     1       1.580   2.778  20.079  0.00  0.00    +0.000 C 
ATOM     13  C   UNL     1       1.236   2.865  21.539  0.00  0.00    +0.000 C 
ATOM     14  C   UNL     1       1.226   4.102  20.688  0.00  0.00    +0.000 C 
ENDBRANCH  10  12
ENDBRANCH   7  10
ENDBRANCH   4   7
BRANCH   1  16
ATOM     15  O   UNL     1       7.560   7.682  16.856  0.00  0.00    +0.000 OA
ATOM     16  C   UNL     1       7.471   6.942  17.819  0.00  0.00    +0.000 C 
BRANCH  16  17
ATOM     17  O   UNL     1       8.307   7.002  18.877  0.00  0.00    +0.000 OA
ATOM     18  H   UNL     1       8.213   7.793  19.438  0.00  0.00    +0.000 HD
ENDBRANCH  16  17
ENDBRANCH   1  16
TORSDOF 5
ENDMDL
MODEL 3
REMARK VINA RESULT:      -6.4      2.606      6.053
REMARK  Name = 
REMARK  5 active torsions:
REMARK  status: ('A' for Active; 'I' for Inactive)
REMARK    1  A    between atoms: C_2  and  O_3
REMARK    2  A    between atoms: C_2  and  C_4
REMARK    3  A    between atoms: C_7  and  S_8
REMARK    4  A    between atoms: S_8  and  N_11
REMARK    5  A    between atoms: N_11  and  C_12
REMARK                            x       y       z     vdW  Elec       q    Type
REMARK                         _______ _______ _______ _____ _____    ______ ____
ROOT
ATOM      1  C   UNL     1       6.657   4.666  15.082  0.00  0.00    +0.000 A 
ATOM      2  C   UNL     1       5.285   4.383  15.108  0.00  0.00    +0.000 A 
ATOM      3  C   UNL     1       4.624   4.218  16.326  0.00  0.00    +0.000 A 
ATOM      4  C   UNL     1       5.337   4.341  17.522  0.00  0.00    +0.000 A 
ATOM      5  C   UNL     1       6.703   4.646  17.509  0.00  0.00    +0.000 A 
ATOM      6  C   UNL     1       7.363   4.813  16.286  0.00  0.00    +0.000 A 
ENDROOT
BRANCH   4   7
ATOM      7  S   UNL     1       4.485   4.171  19.073  0.00  0.00    +0.000 S 
ATOM      8  O   UNL     1       4.966   2.959  19.702  0.00  0.00    +0.000 OA
ATOM      9  O   UNL     1       4.508   5.444  19.759  0.00  0.00    +0.000 OA
BRANCH   7  10
ATOM     10  N   UNL     1       2.898   3.853  18.572  0.00  0.00    +0.000 NA
ATOM     11  H   UNL     1       2.843   3.829  17.553  0.00  0.00    +0.000 HD
BRANCH  10  12
ATOM     12  C   UNL     1       2.161   2.831  19.313  0.00  0.00    +0.000 C 
ATOM     13  C   UNL     1       0.946   3.207  20.112  0.00  0.00    +0.000 C 
ATOM     14  C   UNL     1       0.804   2.363  18.879  0.00  0.00    +0.000 C 
ENDBRANCH  10  12
ENDBRANCH   7  10
ENDBRANCH   4   7
BRANCH   1  16
ATOM     15  O   UNL     1       8.182   5.667  13.554  0.00  0.00    +0.000 OA
ATOM     16  C   UNL     1       7.304   4.847  13.756  0.00  0.00    +0.000 C 
BRANCH  16  17
ATOM     17  O   UNL     1       6.792   4.060  12.787  0.00  0.00    +0.000 OA
ATOM     18  H   UNL     1       5.845   4.194  12.597  0.00  0.00    +0.000 HD
ENDBRANCH  16  17
ENDBRANCH   1  16
TORSDOF 5
ENDMDL
MODEL 4
REMARK VINA RESULT:      -6.4      1.948      2.369
REMARK  Name = 
REMARK  5 active torsions:
REMARK  status: ('A' for Active; 'I' for Inactive)
REMARK    1  A    between atoms: C_2  and  O_3
REMARK    2  A    between atoms: C_2  and  C_4
REMARK    3  A    between atoms: C_7  and  S_8
REMARK    4  A    between atoms: S_8  and  N_11
REMARK    5  A    between atoms: N_11  and  C_12
REMARK                            x       y       z     vdW  Elec       q    Type
REMARK                         _______ _______ _______ _____ _____    ______ ____
ROOT
ATOM      1  C   UNL     1       3.270   4.537  18.962  0.00  0.00    +0.000 A 
ATOM      2  C   UNL     1       4.215   5.569  19.046  0.00  0.00    +0.000 A 
ATOM      3  C   UNL     1       5.293   5.609  18.161  0.00  0.00    +0.000 A 
ATOM      4  C   UNL     1       5.423   4.617  17.184  0.00  0.00    +0.000 A 
ATOM      5  C   UNL     1       4.474   3.595  17.076  0.00  0.00    +0.000 A 
ATOM      6  C   UNL     1       3.392   3.558  17.964  0.00  0.00    +0.000 A 
ENDROOT
BRANCH   4   7
ATOM      7  S   UNL     1       6.774   4.694  16.031  0.00  0.00    +0.000 S 
ATOM      8  O   UNL     1       6.734   5.996  15.401  0.00  0.00    +0.000 OA
ATOM      9  O   UNL     1       7.969   4.202  16.682  0.00  0.00    +0.000 OA
BRANCH   7  10
ATOM     10  N   UNL     1       6.298   3.577  14.851  0.00  0.00    +0.000 NA
ATOM     11  H   UNL     1       5.641   2.901  15.243  0.00  0.00    +0.000 HD
BRANCH  10  12
ATOM     12  C   UNL     1       6.014   4.101  13.517  0.00  0.00    +0.000 C 
ATOM     13  C   UNL     1       6.978   3.861  12.390  0.00  0.00    +0.000 C 
ATOM     14  C   UNL     1       5.629   3.203  12.379  0.00  0.00    +0.000 C 
ENDBRANCH  10  12
ENDBRANCH   7  10
ENDBRANCH   4   7
BRANCH   1  16
ATOM     15  O   UNL     1       1.043   4.082  19.663  0.00  0.00    +0.000 OA
ATOM     16  C   UNL     1       2.135   4.555  19.921  0.00  0.00    +0.000 C 
BRANCH  16  17
ATOM     17  O   UNL     1       2.410   5.189  21.080  0.00  0.00    +0.000 OA
ATOM     18  H   UNL     1       2.173   4.700  21.889  0.00  0.00    +0.000 HD
ENDBRANCH  16  17
ENDBRANCH   1  16
TORSDOF 5
ENDMDL
MODEL 5
REMARK VINA RESULT:      -6.4      2.783      5.987
REMARK  Name = 
REMARK  5 active torsions:
REMARK  status: ('A' for Active; 'I' for Inactive)
REMARK    1  A    between atoms: C_2  and  O_3
REMARK    2  A    between atoms: C_2  and  C_4
REMARK    3  A    between atoms: C_7  and  S_8
REMARK    4  A    between atoms: S_8  and  N_11
REMARK    5  A    between atoms: N_11  and  C_12
REMARK                            x       y       z     vdW  Elec       q    Type
REMARK                         _______ _______ _______ _____ _____    ______ ____
ROOT
ATOM      1  C   UNL     1       5.917   4.901  15.336  0.00  0.00    +0.000 A 
ATOM      2  C   UNL     1       5.388   3.741  15.917  0.00  0.00    +0.000 A 
ATOM      3  C   UNL     1       4.446   3.834  16.942  0.00  0.00    +0.000 A 
ATOM      4  C   UNL     1       4.028   5.094  17.385  0.00  0.00    +0.000 A 
ATOM      5  C   UNL     1       4.533   6.259  16.798  0.00  0.00    +0.000 A 
ATOM      6  C   UNL     1       5.476   6.162  15.767  0.00  0.00    +0.000 A 
ENDROOT
BRANCH   4   7
ATOM      7  S   UNL     1       2.798   5.210  18.663  0.00  0.00    +0.000 S 
ATOM      8  O   UNL     1       2.921   6.520  19.266  0.00  0.00    +0.000 OA
ATOM      9  O   UNL     1       1.538   4.728  18.141  0.00  0.00    +0.000 OA
BRANCH   7  10
ATOM     10  N   UNL     1       3.371   4.101  19.808  0.00  0.00    +0.000 NA
ATOM     11  H   UNL     1       3.902   4.581  20.536  0.00  0.00    +0.000 HD
BRANCH  10  12
ATOM     12  C   UNL     1       2.452   3.045  20.227  0.00  0.00    +0.000 C 
ATOM     13  C   UNL     1       2.424   2.592  21.659  0.00  0.00    +0.000 C 
ATOM     14  C   UNL     1       1.252   3.331  21.081  0.00  0.00    +0.000 C 
ENDBRANCH  10  12
ENDBRANCH   7  10
ENDBRANCH   4   7
BRANCH   1  16
ATOM     15  O   UNL     1       7.826   5.515  14.056  0.00  0.00    +0.000 OA
ATOM     16  C   UNL     1       6.905   4.740  14.237  0.00  0.00    +0.000 C 
BRANCH  16  17
ATOM     17  O   UNL     1       6.655   3.688  13.430  0.00  0.00    +0.000 OA
ATOM     18  H   UNL     1       6.575   3.899  12.482  0.00  0.00    +0.000 HD
ENDBRANCH  16  17
ENDBRANCH   1  16
TORSDOF 5
ENDMDL
MODEL 6
REMARK VINA RESULT:      -6.4      2.499      3.096
REMARK  Name = 
REMARK  5 active torsions:
REMARK  status: ('A' for Active; 'I' for Inactive)
REMARK    1  A    between atoms: C_2  and  O_3
REMARK    2  A    between atoms: C_2  and  C_4
REMARK    3  A    between atoms: C_7  and  S_8
REMARK    4  A    between atoms: S_8  and  N_11
REMARK    5  A    between atoms: N_11  and  C_12
REMARK                            x       y       z     vdW  Elec       q    Type
REMARK                         _______ _______ _______ _____ _____    ______ ____
ROOT
ATOM      1  C   UNL     1       3.339   5.191  19.153  0.00  0.00    +0.000 A 
ATOM      2  C   UNL     1       4.534   4.667  19.665  0.00  0.00    +0.000 A 
ATOM      3  C   UNL     1       5.655   4.539  18.844  0.00  0.00    +0.000 A 
ATOM      4  C   UNL     1       5.582   4.940  17.506  0.00  0.00    +0.000 A 
ATOM      5  C   UNL     1       4.402   5.484  16.989  0.00  0.00    +0.000 A 
ATOM      6  C   UNL     1       3.279   5.614  17.816  0.00  0.00    +0.000 A 
ENDROOT
BRANCH   4   7
ATOM      7  S   UNL     1       7.023   4.814  16.473  0.00  0.00    +0.000 S 
ATOM      8  O   UNL     1       8.060   4.170  17.252  0.00  0.00    +0.000 OA
ATOM      9  O   UNL     1       6.624   4.312  15.177  0.00  0.00    +0.000 OA
BRANCH   7  10
ATOM     10  N   UNL     1       7.486   6.435  16.309  0.00  0.00    +0.000 NA
ATOM     11  H   UNL     1       7.252   6.780  15.378  0.00  0.00    +0.000 HD
BRANCH  10  12
ATOM     12  C   UNL     1       7.223   7.318  17.443  0.00  0.00    +0.000 C 
ATOM     13  C   UNL     1       8.244   7.470  18.535  0.00  0.00    +0.000 C 
ATOM     14  C   UNL     1       7.945   8.621  17.618  0.00  0.00    +0.000 C 
ENDBRANCH  10  12
ENDBRANCH   7  10
ENDBRANCH   4   7
BRANCH   1  16
ATOM     15  O   UNL     1       1.391   4.415  20.276  0.00  0.00    +0.000 OA
ATOM     16  C   UNL     1       2.183   5.318  20.078  0.00  0.00    +0.000 C 
BRANCH  16  17
ATOM     17  O   UNL     1       2.064   6.541  20.636  0.00  0.00    +0.000 OA
ATOM     18  H   UNL     1       1.453   6.596  21.393  0.00  0.00    +0.000 HD
ENDBRANCH  16  17
ENDBRANCH   1  16
TORSDOF 5
ENDMDL
MODEL 7
REMARK VINA RESULT:      -6.4      2.583      6.005
REMARK  Name = 
REMARK  5 active torsions:
REMARK  status: ('A' for Active; 'I' for Inactive)
REMARK    1  A    between atoms: C_2  and  O_3
REMARK    2  A    between atoms: C_2  and  C_4
REMARK    3  A    between atoms: C_7  and  S_8
REMARK    4  A    between atoms: S_8  and  N_11
REMARK    5  A    between atoms: N_11  and  C_12
REMARK                            x       y       z     vdW  Elec       q    Type
REMARK                         _______ _______ _______ _____ _____    ______ ____
ROOT
ATOM      1  C   UNL     1       6.343   5.754  17.848  0.00  0.00    +0.000 A 
ATOM      2  C   UNL     1       5.987   5.207  19.089  0.00  0.00    +0.000 A 
ATOM      3  C   UNL     1       5.031   4.193  19.163  0.00  0.00    +0.000 A 
ATOM      4  C   UNL     1       4.433   3.719  17.990  0.00  0.00    +0.000 A 
ATOM      5  C   UNL     1       4.797   4.242  16.744  0.00  0.00    +0.000 A 
ATOM      6  C   UNL     1       5.757   5.258  16.673  0.00  0.00    +0.000 A 
ENDROOT
BRANCH   4   7
ATOM      7  S   UNL     1       3.247   2.399  18.083  0.00  0.00    +0.000 S 
ATOM      8  O   UNL     1       2.030   2.864  17.452  0.00  0.00    +0.000 OA
ATOM      9  O   UNL     1       3.889   1.167  17.679  0.00  0.00    +0.000 OA
BRANCH   7  10
ATOM     10  N   UNL     1       2.926   2.326  19.744  0.00  0.00    +0.000 NA
ATOM     11  H   UNL     1       3.704   2.719  20.276  0.00  0.00    +0.000 HD
BRANCH  10  12
ATOM     12  C   UNL     1       1.572   2.666  20.174  0.00  0.00    +0.000 C 
ATOM     13  C   UNL     1       1.273   2.878  21.631  0.00  0.00    +0.000 C 
ATOM     14  C   UNL     1       1.221   4.035  20.676  0.00  0.00    +0.000 C 
ENDBRANCH  10  12
ENDBRANCH   7  10
ENDBRANCH   4   7
BRANCH   1  16
ATOM     15  O   UNL     1       8.212   6.947  18.708  0.00  0.00    +0.000 OA
ATOM     16  C   UNL     1       7.377   6.821  17.831  0.00  0.00    +0.000 C 
BRANCH  16  17
ATOM     17  O   UNL     1       7.272   7.665  16.784  0.00  0.00    +0.000 OA
ATOM     18  H   UNL     1       7.420   8.606  16.990  0.00  0.00    +0.000 HD
ENDBRANCH  16  17
ENDBRANCH   1  16
TORSDOF 5
ENDMDL
MODEL 8
REMARK VINA RESULT:      -6.4      2.647      6.036
REMARK  Name = 
REMARK  5 active torsions:
REMARK  status: ('A' for Active; 'I' for Inactive)
REMARK    1  A    between atoms: C_2  and  O_3
REMARK    2  A    between atoms: C_2  and  C_4
REMARK    3  A    between atoms: C_7  and  S_8
REMARK    4  A    between atoms: S_8  and  N_11
REMARK    5  A    between atoms: N_11  and  C_12
REMARK                            x       y       z     vdW  Elec       q    Type
REMARK                         _______ _______ _______ _____ _____    ______ ____
ROOT
ATOM      1  C   UNL     1       6.593   4.601  15.106  0.00  0.00    +0.000 A 
ATOM      2  C   UNL     1       5.236   4.261  15.192  0.00  0.00    +0.000 A 
ATOM      3  C   UNL     1       4.626   4.110  16.438  0.00  0.00    +0.000 A 
ATOM      4  C   UNL     1       5.374   4.306  17.603  0.00  0.00    +0.000 A 
ATOM      5  C   UNL     1       6.724   4.667  17.530  0.00  0.00    +0.000 A 
ATOM      6  C   UNL     1       7.333   4.819  16.278  0.00  0.00    +0.000 A 
ENDROOT
BRANCH   4   7
ATOM      7  S   UNL     1       4.585   4.154  19.188  0.00  0.00    +0.000 S 
ATOM      8  O   UNL     1       5.053   2.924  19.790  0.00  0.00    +0.000 OA
ATOM      9  O   UNL     1       4.680   5.422  19.878  0.00  0.00    +0.000 OA
BRANCH   7  10
ATOM     10  N   UNL     1       2.969   3.891  18.756  0.00  0.00    +0.000 NA
ATOM     11  H   UNL     1       2.858   2.969  18.330  0.00  0.00    +0.000 HD
BRANCH  10  12
ATOM     12  C   UNL     1       1.948   4.322  19.708  0.00  0.00    +0.000 C 
ATOM     13  C   UNL     1       0.861   3.376  20.131  0.00  0.00    +0.000 C 
ATOM     14  C   UNL     1       1.909   3.806  21.116  0.00  0.00    +0.000 C 
ENDBRANCH  10  12
ENDBRANCH   7  10
ENDBRANCH   4   7
BRANCH   1  16
ATOM     15  O   UNL     1       6.825   4.106  12.791  0.00  0.00    +0.000 OA
ATOM     16  C   UNL     1       7.184   4.762  13.752  0.00  0.00    +0.000 C 
BRANCH  16  17
ATOM     17  O   UNL     1       8.188   5.662  13.700  0.00  0.00    +0.000 OA
ATOM     18  H   UNL     1       7.928   6.587  13.858  0.00  0.00    +0.000 HD
ENDBRANCH  16  17
ENDBRANCH   1  16
TORSDOF 5
ENDMDL
MODEL 9
REMARK VINA RESULT:      -6.3      2.211      2.671
REMARK  Name = 
REMARK  5 active torsions:
REMARK  status: ('A' for Active; 'I' for Inactive)
REMARK    1  A    between atoms: C_2  and  O_3
REMARK    2  A    between atoms: C_2  and  C_4
REMARK    3  A    between atoms: C_7  and  S_8
REMARK    4  A    between atoms: S_8  and  N_11
REMARK    5  A    between atoms: N_11  and  C_12
REMARK                            x       y       z     vdW  Elec       q    Type
REMARK                         _______ _______ _______ _____ _____    ______ ____
ROOT
ATOM      1  C   UNL     1       1.998   3.764  18.378  0.00  0.00    +0.000 A 
ATOM      2  C   UNL     1       2.748   2.898  17.570  0.00  0.00    +0.000 A 
ATOM      3  C   UNL     1       3.797   3.393  16.794  0.00  0.00    +0.000 A 
ATOM      4  C   UNL     1       4.102   4.757  16.831  0.00  0.00    +0.000 A 
ATOM      5  C   UNL     1       3.374   5.627  17.650  0.00  0.00    +0.000 A 
ATOM      6  C   UNL     1       2.323   5.129  18.430  0.00  0.00    +0.000 A 
ENDROOT
BRANCH   4   7
ATOM      7  S   UNL     1       5.465   5.378  15.874  0.00  0.00    +0.000 S 
ATOM      8  O   UNL     1       5.786   4.378  14.878  0.00  0.00    +0.000 OA
ATOM      9  O   UNL     1       5.193   6.751  15.512  0.00  0.00    +0.000 OA
BRANCH   7  10
ATOM     10  N   UNL     1       6.730   5.353  17.000  0.00  0.00    +0.000 NA
ATOM     11  H   UNL     1       7.590   5.021  16.564  0.00  0.00    +0.000 HD
BRANCH  10  12
ATOM     12  C   UNL     1       6.829   6.491  17.911  0.00  0.00    +0.000 C 
ATOM     13  C   UNL     1       8.076   6.704  18.722  0.00  0.00    +0.000 C 
ATOM     14  C   UNL     1       7.721   7.662  17.622  0.00  0.00    +0.000 C 
ENDBRANCH  10  12
ENDBRANCH   7  10
ENDBRANCH   4   7
BRANCH   1  16
ATOM     15  O   UNL     1       0.271   2.197  18.846  0.00  0.00    +0.000 OA
ATOM     16  C   UNL     1       0.902   3.179  19.194  0.00  0.00    +0.000 C 
BRANCH  16  17
ATOM     17  O   UNL     1       0.638   3.865  20.325  0.00  0.00    +0.000 OA
ATOM     18  H   UNL     1       0.289   4.765  20.194  0.00  0.00    +0.000 HD
ENDBRANCH  16  17
ENDBRANCH   1  16
TORSDOF 5
ENDMDL
