MODEL 1
REMARK VINA RESULT:      -6.7      0.000      0.000
REMARK  Name = 
REMARK  4 active torsions:
REMARK  status: ('A' for Active; 'I' for Inactive)
REMARK    1  A    between atoms: C_1  and  C_2
REMARK    2  A    between atoms: C_2  and  C_3
REMARK    3  A    between atoms: C_6  and  C_7
REMARK    4  A    between atoms: C_11  and  C_12
REMARK                            x       y       z     vdW  Elec       q    Type
REMARK                         _______ _______ _______ _____ _____    ______ ____
ROOT
ATOM      1  C   UNL     1       2.654   7.337  18.469  0.00  0.00    +0.000 A 
ATOM      2  C   UNL     1       2.122   8.523  17.974  0.00  0.00    +0.000 A 
ATOM      3  N   UNL     1       1.442   9.057  19.031  0.00  0.00    +0.000 N 
ATOM      4  C   UNL     1       0.672  10.170  19.282  0.00  0.00    +0.000 A 
ATOM      5  C   UNL     1       0.218  10.185  20.552  0.00  0.00    +0.000 A 
ATOM      6  C   UNL     1      -0.661  11.197  21.198  0.00  0.00    +0.000 C 
ATOM      7  S   UNL     1       0.770   8.773  21.490  0.00  0.00    +0.000 S 
ATOM      8  C   UNL     1       1.597   8.205  20.081  0.00  0.00    +0.000 A 
ATOM      9  N   UNL     1       2.314   7.157  19.804  0.00  0.00    +0.000 NA
ENDROOT
BRANCH   1  13
ATOM     10  C   UNL     1       5.118   4.605  16.280  0.00  0.00    +0.000 A 
ATOM     11  C   UNL     1       4.074   4.113  17.075  0.00  0.00    +0.000 A 
ATOM     12  C   UNL     1       3.262   4.990  17.809  0.00  0.00    +0.000 A 
ATOM     13  C   UNL     1       3.482   6.370  17.759  0.00  0.00    +0.000 A 
ATOM     14  C   UNL     1       4.542   6.851  16.977  0.00  0.00    +0.000 A 
ATOM     15  C   UNL     1       5.350   5.982  16.244  0.00  0.00    +0.000 A 
BRANCH  10  17
ATOM     16  C   UNL     1       5.948   4.142  13.971  0.00  0.00    +0.000 C 
ATOM     17  C   UNL     1       5.944   3.682  15.422  0.00  0.00    +0.000 C 
ENDBRANCH  10  17
ENDBRANCH   1  13
TORSDOF 2
ENDMDL
MODEL 2
REMARK VINA RESULT:      -6.7      1.020      1.761
REMARK  Name = 
REMARK  4 active torsions:
REMARK  status: ('A' for Active; 'I' for Inactive)
REMARK    1  A    between atoms: C_1  and  C_2
REMARK    2  A    between atoms: C_2  and  C_3
REMARK    3  A    between atoms: C_6  and  C_7
REMARK    4  A    between atoms: C_11  and  C_12
REMARK                            x       y       z     vdW  Elec       q    Type
REMARK                         _______ _______ _______ _____ _____    ______ ____
ROOT
ATOM      1  C   UNL     1       2.754   7.241  18.514  0.00  0.00    +0.000 A 
ATOM      2  C   UNL     1       2.351   6.993  19.823  0.00  0.00    +0.000 A 
ATOM      3  N   UNL     1       1.600   8.083  20.158  0.00  0.00    +0.000 N 
ATOM      4  C   UNL     1       0.911   8.539  21.259  0.00  0.00    +0.000 A 
ATOM      5  C   UNL     1       0.341   9.738  21.028  0.00  0.00    +0.000 A 
ATOM      6  C   UNL     1      -0.458  10.569  21.971  0.00  0.00    +0.000 C 
ATOM      7  S   UNL     1       0.651  10.335  19.377  0.00  0.00    +0.000 S 
ATOM      8  C   UNL     1       1.576   8.904  19.073  0.00  0.00    +0.000 A 
ATOM      9  N   UNL     1       2.249   8.452  18.058  0.00  0.00    +0.000 NA
ENDROOT
BRANCH   1  13
ATOM     10  C   UNL     1       5.142   4.627  16.107  0.00  0.00    +0.000 A 
ATOM     11  C   UNL     1       5.356   6.011  16.051  0.00  0.00    +0.000 A 
ATOM     12  C   UNL     1       4.577   6.885  16.823  0.00  0.00    +0.000 A 
ATOM     13  C   UNL     1       3.574   6.390  17.662  0.00  0.00    +0.000 A 
ATOM     14  C   UNL     1       3.353   5.005  17.696  0.00  0.00    +0.000 A 
ATOM     15  C   UNL     1       4.127   4.132  16.931  0.00  0.00    +0.000 A 
BRANCH  10  17
ATOM     16  C   UNL     1       6.056   4.015  13.866  0.00  0.00    +0.000 C 
ATOM     17  C   UNL     1       6.025   3.671  15.348  0.00  0.00    +0.000 C 
ENDBRANCH  10  17
ENDBRANCH   1  13
TORSDOF 2
ENDMDL
MODEL 3
REMARK VINA RESULT:      -6.7      0.294      1.203
REMARK  Name = 
REMARK  4 active torsions:
REMARK  status: ('A' for Active; 'I' for Inactive)
REMARK    1  A    between atoms: C_1  and  C_2
REMARK    2  A    between atoms: C_2  and  C_3
REMARK    3  A    between atoms: C_6  and  C_7
REMARK    4  A    between atoms: C_11  and  C_12
REMARK                            x       y       z     vdW  Elec       q    Type
REMARK                         _______ _______ _______ _____ _____    ______ ____
ROOT
ATOM      1  C   UNL     1       2.799   7.311  18.341  0.00  0.00    +0.000 A 
ATOM      2  C   UNL     1       2.212   8.515  17.963  0.00  0.00    +0.000 A 
ATOM      3  N   UNL     1       1.553   8.936  19.083  0.00  0.00    +0.000 N 
ATOM      4  C   UNL     1       0.757   9.997  19.451  0.00  0.00    +0.000 A 
ATOM      5  C   UNL     1       0.348   9.892  20.731  0.00  0.00    +0.000 A 
ATOM      6  C   UNL     1      -0.540  10.817  21.487  0.00  0.00    +0.000 C 
ATOM      7  S   UNL     1       0.978   8.429  21.531  0.00  0.00    +0.000 S 
ATOM      8  C   UNL     1       1.773   8.007  20.053  0.00  0.00    +0.000 A 
ATOM      9  N   UNL     1       2.513   7.012  19.667  0.00  0.00    +0.000 NA
ENDROOT
BRANCH   1  13
ATOM     10  C   UNL     1       5.228   4.631  16.050  0.00  0.00    +0.000 A 
ATOM     11  C   UNL     1       5.410   6.015  15.922  0.00  0.00    +0.000 A 
ATOM     12  C   UNL     1       4.618   6.910  16.655  0.00  0.00    +0.000 A 
ATOM     13  C   UNL     1       3.632   6.436  17.527  0.00  0.00    +0.000 A 
ATOM     14  C   UNL     1       3.443   5.051  17.632  0.00  0.00    +0.000 A 
ATOM     15  C   UNL     1       4.231   4.157  16.907  0.00  0.00    +0.000 A 
BRANCH  10  17
ATOM     16  C   UNL     1       6.112   3.904  13.831  0.00  0.00    +0.000 C 
ATOM     17  C   UNL     1       6.127   3.657  15.334  0.00  0.00    +0.000 C 
ENDBRANCH  10  17
ENDBRANCH   1  13
TORSDOF 2
ENDMDL
MODEL 4
REMARK VINA RESULT:      -6.6      1.040      1.302
REMARK  Name = 
REMARK  4 active torsions:
REMARK  status: ('A' for Active; 'I' for Inactive)
REMARK    1  A    between atoms: C_1  and  C_2
REMARK    2  A    between atoms: C_2  and  C_3
REMARK    3  A    between atoms: C_6  and  C_7
REMARK    4  A    between atoms: C_11  and  C_12
REMARK                            x       y       z     vdW  Elec       q    Type
REMARK                         _______ _______ _______ _____ _____    ______ ____
ROOT
ATOM      1  C   UNL     1       2.679   7.379  18.443  0.00  0.00    +0.000 A 
ATOM      2  C   UNL     1       2.234   7.316  19.760  0.00  0.00    +0.000 A 
ATOM      3  N   UNL     1       1.498   8.454  19.923  0.00  0.00    +0.000 N 
ATOM      4  C   UNL     1       0.788   9.066  20.932  0.00  0.00    +0.000 A 
ATOM      5  C   UNL     1       0.251  10.234  20.525  0.00  0.00    +0.000 A 
ATOM      6  C   UNL     1      -0.556  11.197  21.323  0.00  0.00    +0.000 C 
ATOM      7  S   UNL     1       0.621  10.598  18.819  0.00  0.00    +0.000 S 
ATOM      8  C   UNL     1       1.522   9.123  18.738  0.00  0.00    +0.000 A 
ATOM      9  N   UNL     1       2.213   8.526  17.814  0.00  0.00    +0.000 NA
ENDROOT
BRANCH   1  13
ATOM     10  C   UNL     1       5.141   4.629  16.272  0.00  0.00    +0.000 A 
ATOM     11  C   UNL     1       4.069   4.148  17.036  0.00  0.00    +0.000 A 
ATOM     12  C   UNL     1       3.258   5.030  17.764  0.00  0.00    +0.000 A 
ATOM     13  C   UNL     1       3.504   6.406  17.738  0.00  0.00    +0.000 A 
ATOM     14  C   UNL     1       4.592   6.877  16.988  0.00  0.00    +0.000 A 
ATOM     15  C   UNL     1       5.400   6.002  16.262  0.00  0.00    +0.000 A 
BRANCH  10  17
ATOM     16  C   UNL     1       5.936   4.128  13.959  0.00  0.00    +0.000 C 
ATOM     17  C   UNL     1       5.969   3.703  15.421  0.00  0.00    +0.000 C 
ENDBRANCH  10  17
ENDBRANCH   1  13
TORSDOF 2
ENDMDL
MODEL 5
REMARK VINA RESULT:      -6.3      2.278      7.123
REMARK  Name = 
REMARK  4 active torsions:
REMARK  status: ('A' for Active; 'I' for Inactive)
REMARK    1  A    between atoms: C_1  and  C_2
REMARK    2  A    between atoms: C_2  and  C_3
REMARK    3  A    between atoms: C_6  and  C_7
REMARK    4  A    between atoms: C_11  and  C_12
REMARK                            x       y       z     vdW  Elec       q    Type
REMARK                         _______ _______ _______ _____ _____    ______ ____
ROOT
ATOM      1  C   UNL     1       2.873   7.052  18.421  0.00  0.00    +0.000 A 
ATOM      2  C   UNL     1       3.797   7.479  17.473  0.00  0.00    +0.000 A 
ATOM      3  N   UNL     1       4.302   6.324  16.947  0.00  0.00    +0.000 N 
ATOM      4  C   UNL     1       5.240   5.964  16.007  0.00  0.00    +0.000 A 
ATOM      5  C   UNL     1       5.347   4.624  15.898  0.00  0.00    +0.000 A 
ATOM      6  C   UNL     1       6.263   3.847  15.019  0.00  0.00    +0.000 C 
ATOM      7  S   UNL     1       4.234   3.760  16.991  0.00  0.00    +0.000 S 
ATOM      8  C   UNL     1       3.674   5.291  17.571  0.00  0.00    +0.000 A 
ATOM      9  N   UNL     1       2.807   5.666  18.463  0.00  0.00    +0.000 NA
ENDROOT
BRANCH   1  13
ATOM     10  C   UNL     1       0.450   9.607  20.858  0.00  0.00    +0.000 A 
ATOM     11  C   UNL     1       0.919   8.392  21.377  0.00  0.00    +0.000 A 
ATOM     12  C   UNL     1       1.704   7.536  20.592  0.00  0.00    +0.000 A 
ATOM     13  C   UNL     1       2.033   7.881  19.277  0.00  0.00    +0.000 A 
ATOM     14  C   UNL     1       1.542   9.088  18.759  0.00  0.00    +0.000 A 
ATOM     15  C   UNL     1       0.762   9.943  19.538  0.00  0.00    +0.000 A 
BRANCH  10  17
ATOM     16  C   UNL     1      -0.570   9.997  23.103  0.00  0.00    +0.000 C 
ATOM     17  C   UNL     1      -0.323  10.574  21.716  0.00  0.00    +0.000 C 
ENDBRANCH  10  17
ENDBRANCH   1  13
TORSDOF 2
ENDMDL
MODEL 6
REMARK VINA RESULT:      -6.3      1.307      2.166
REMARK  Name = 
REMARK  4 active torsions:
REMARK  status: ('A' for Active; 'I' for Inactive)
REMARK    1  A    between atoms: C_1  and  C_2
REMARK    2  A    between atoms: C_2  and  C_3
REMARK    3  A    between atoms: C_6  and  C_7
REMARK    4  A    between atoms: C_11  and  C_12
REMARK                            x       y       z     vdW  Elec       q    Type
REMARK                         _______ _______ _______ _____ _____    ______ ____
ROOT
ATOM      1  C   UNL     1       2.039   7.735  19.349  0.00  0.00    +0.000 A 
ATOM      2  C   UNL     1       1.621   7.465  20.649  0.00  0.00    +0.000 A 
ATOM      3  N   UNL     1       0.913   8.574  21.013  0.00  0.00    +0.000 N 
ATOM      4  C   UNL     1       0.238   9.025  22.125  0.00  0.00    +0.000 A 
ATOM      5  C   UNL     1      -0.284  10.253  21.926  0.00  0.00    +0.000 A 
ATOM      6  C   UNL     1      -1.053  11.087  22.890  0.00  0.00    +0.000 C 
ATOM      7  S   UNL     1       0.057  10.884  20.294  0.00  0.00    +0.000 S 
ATOM      8  C   UNL     1       0.925   9.427  19.952  0.00  0.00    +0.000 A 
ATOM      9  N   UNL     1       1.584   8.977  18.927  0.00  0.00    +0.000 NA
ENDROOT
BRANCH   1  13
ATOM     10  C   UNL     1       4.337   5.099  16.878  0.00  0.00    +0.000 A 
ATOM     11  C   UNL     1       4.579   6.479  16.835  0.00  0.00    +0.000 A 
ATOM     12  C   UNL     1       3.830   7.360  17.627  0.00  0.00    +0.000 A 
ATOM     13  C   UNL     1       2.829   6.877  18.475  0.00  0.00    +0.000 A 
ATOM     14  C   UNL     1       2.580   5.496  18.496  0.00  0.00    +0.000 A 
ATOM     15  C   UNL     1       3.324   4.616  17.711  0.00  0.00    +0.000 A 
BRANCH  10  17
ATOM     16  C   UNL     1       6.670   4.400  16.326  0.00  0.00    +0.000 C 
ATOM     17  C   UNL     1       5.189   4.134  16.096  0.00  0.00    +0.000 C 
ENDBRANCH  10  17
ENDBRANCH   1  13
TORSDOF 2
ENDMDL
MODEL 7
REMARK VINA RESULT:      -6.3      1.293      1.787
REMARK  Name = 
REMARK  4 active torsions:
REMARK  status: ('A' for Active; 'I' for Inactive)
REMARK    1  A    between atoms: C_1  and  C_2
REMARK    2  A    between atoms: C_2  and  C_3
REMARK    3  A    between atoms: C_6  and  C_7
REMARK    4  A    between atoms: C_11  and  C_12
REMARK                            x       y       z     vdW  Elec       q    Type
REMARK                         _______ _______ _______ _____ _____    ______ ____
ROOT
ATOM      1  C   UNL     1       2.020   7.682  19.476  0.00  0.00    +0.000 A 
ATOM      2  C   UNL     1       1.576   7.474  20.778  0.00  0.00    +0.000 A 
ATOM      3  N   UNL     1       0.890   8.613  21.088  0.00  0.00    +0.000 N 
ATOM      4  C   UNL     1       0.210   9.123  22.171  0.00  0.00    +0.000 A 
ATOM      5  C   UNL     1      -0.278  10.354  21.917  0.00  0.00    +0.000 A 
ATOM      6  C   UNL     1      -1.041  11.243  22.835  0.00  0.00    +0.000 C 
ATOM      7  S   UNL     1       0.102  10.913  20.267  0.00  0.00    +0.000 S 
ATOM      8  C   UNL     1       0.939   9.423  19.995  0.00  0.00    +0.000 A 
ATOM      9  N   UNL     1       1.602   8.917  18.999  0.00  0.00    +0.000 NA
ENDROOT
BRANCH   1  13
ATOM     10  C   UNL     1       4.325   5.115  16.940  0.00  0.00    +0.000 A 
ATOM     11  C   UNL     1       3.438   4.557  17.870  0.00  0.00    +0.000 A 
ATOM     12  C   UNL     1       2.682   5.380  18.718  0.00  0.00    +0.000 A 
ATOM     13  C   UNL     1       2.801   6.771  18.648  0.00  0.00    +0.000 A 
ATOM     14  C   UNL     1       3.707   7.320  17.729  0.00  0.00    +0.000 A 
ATOM     15  C   UNL     1       4.460   6.505  16.883  0.00  0.00    +0.000 A 
BRANCH  10  17
ATOM     16  C   UNL     1       5.817   5.095  14.938  0.00  0.00    +0.000 C 
ATOM     17  C   UNL     1       5.081   4.248  15.967  0.00  0.00    +0.000 C 
ENDBRANCH  10  17
ENDBRANCH   1  13
TORSDOF 2
ENDMDL
MODEL 8
REMARK VINA RESULT:      -6.2      2.230      7.251
REMARK  Name = 
REMARK  4 active torsions:
REMARK  status: ('A' for Active; 'I' for Inactive)
REMARK    1  A    between atoms: C_1  and  C_2
REMARK    2  A    between atoms: C_2  and  C_3
REMARK    3  A    between atoms: C_6  and  C_7
REMARK    4  A    between atoms: C_11  and  C_12
REMARK                            x       y       z     vdW  Elec       q    Type
REMARK                         _______ _______ _______ _____ _____    ______ ____
ROOT
ATOM      1  C   UNL     1       2.651   7.207  18.675  0.00  0.00    +0.000 A 
ATOM      2  C   UNL     1       2.715   5.817  18.715  0.00  0.00    +0.000 A 
ATOM      3  N   UNL     1       3.645   5.493  17.769  0.00  0.00    +0.000 N 
ATOM      4  C   UNL     1       4.203   4.348  17.247  0.00  0.00    +0.000 A 
ATOM      5  C   UNL     1       5.100   4.628  16.280  0.00  0.00    +0.000 A 
ATOM      6  C   UNL     1       5.890   3.670  15.460  0.00  0.00    +0.000 C 
ATOM      7  S   UNL     1       5.281   6.380  16.003  0.00  0.00    +0.000 S 
ATOM      8  C   UNL     1       4.092   6.659  17.228  0.00  0.00    +0.000 A 
ATOM      9  N   UNL     1       3.533   7.719  17.732  0.00  0.00    +0.000 NA
ENDROOT
BRANCH   1  13
ATOM     10  C   UNL     1       0.247   9.891  20.986  0.00  0.00    +0.000 A 
ATOM     11  C   UNL     1       0.712   8.703  21.565  0.00  0.00    +0.000 A 
ATOM     12  C   UNL     1       1.491   7.804  20.822  0.00  0.00    +0.000 A 
ATOM     13  C   UNL     1       1.818   8.080  19.490  0.00  0.00    +0.000 A 
ATOM     14  C   UNL     1       1.330   9.262  18.914  0.00  0.00    +0.000 A 
ATOM     15  C   UNL     1       0.556  10.159  19.650  0.00  0.00    +0.000 A 
BRANCH  10  17
ATOM     16  C   UNL     1      -0.905  10.337  23.156  0.00  0.00    +0.000 C 
ATOM     17  C   UNL     1      -0.520  10.904  21.796  0.00  0.00    +0.000 C 
ENDBRANCH  10  17
ENDBRANCH   1  13
TORSDOF 2
ENDMDL
MODEL 9
REMARK VINA RESULT:      -6.2      4.707      5.182
REMARK  Name = 
REMARK  4 active torsions:
REMARK  status: ('A' for Active; 'I' for Inactive)
REMARK    1  A    between atoms: C_1  and  C_2
REMARK    2  A    between atoms: C_2  and  C_3
REMARK    3  A    between atoms: C_6  and  C_7
REMARK    4  A    between atoms: C_11  and  C_12
REMARK                            x       y       z     vdW  Elec       q    Type
REMARK                         _______ _______ _______ _____ _____    ______ ____
ROOT
ATOM      1  C   UNL     1       4.489   3.832  17.578  0.00  0.00    +0.000 A 
ATOM      2  C   UNL     1       4.858   3.655  18.907  0.00  0.00    +0.000 A 
ATOM      3  N   UNL     1       3.698   3.306  19.537  0.00  0.00    +0.000 N 
ATOM      4  C   UNL     1       3.291   3.004  20.817  0.00  0.00    +0.000 A 
ATOM      5  C   UNL     1       1.970   2.738  20.870  0.00  0.00    +0.000 A 
ATOM      6  C   UNL     1       1.152   2.399  22.066  0.00  0.00    +0.000 C 
ATOM      7  S   UNL     1       1.187   2.850  19.272  0.00  0.00    +0.000 S 
ATOM      8  C   UNL     1       2.719   3.279  18.592  0.00  0.00    +0.000 A 
ATOM      9  N   UNL     1       3.134   3.585  17.399  0.00  0.00    +0.000 NA
ENDROOT
BRANCH   1  13
ATOM     10  C   UNL     1       6.940   4.824  14.210  0.00  0.00    +0.000 A 
ATOM     11  C   UNL     1       7.428   5.027  15.508  0.00  0.00    +0.000 A 
ATOM     12  C   UNL     1       6.637   4.719  16.624  0.00  0.00    +0.000 A 
ATOM     13  C   UNL     1       5.348   4.204  16.461  0.00  0.00    +0.000 A 
ATOM     14  C   UNL     1       4.860   4.024  15.158  0.00  0.00    +0.000 A 
ATOM     15  C   UNL     1       5.644   4.327  14.045  0.00  0.00    +0.000 A 
BRANCH  10  17
ATOM     16  C   UNL     1       7.285   4.315  11.790  0.00  0.00    +0.000 C 
ATOM     17  C   UNL     1       7.808   5.071  13.004  0.00  0.00    +0.000 C 
ENDBRANCH  10  17
ENDBRANCH   1  13
TORSDOF 2
ENDMDL
