MODEL 1
REMARK VINA RESULT:      -6.5      0.000      0.000
REMARK  Name = 
REMARK  7 active torsions:
REMARK  status: ('A' for Active; 'I' for Inactive)
REMARK    1  A    between atoms: C_2  and  C_13
REMARK    2  A    between atoms: N_3  and  C_4
REMARK    3  A    between atoms: C_4  and  C_5
REMARK    4  A    between atoms: C_5  and  C_6
REMARK    5  A    between atoms: C_6  and  N_7
REMARK    6  A    between atoms: N_15  and  C_16
REMARK    7  A    between atoms: C_16  and  C_17
REMARK                            x       y       z     vdW  Elec       q    Type
REMARK                         _______ _______ _______ _____ _____    ______ ____
ROOT
ATOM      1  O   UNL     1       7.586   6.165  15.869  0.00  0.00    +0.000 OA
ATOM      2  C   UNL     1       7.037   6.511  16.904  0.00  0.00    +0.000 C 
ATOM      3  N   UNL     1       5.716   6.302  17.234  0.00  0.00    +0.000 N 
ATOM      4  H   UNL     1       5.440   6.569  18.175  0.00  0.00    +0.000 HD
ENDROOT
BRANCH   2   5
ATOM      5  C   UNL     1       7.831   7.276  17.992  0.00  0.00    +0.000 C 
ATOM      6  O   UNL     1       8.263   6.672  18.963  0.00  0.00    +0.000 OA
ATOM      7  N   UNL     1       7.968   8.624  17.754  0.00  0.00    +0.000 N 
ATOM      8  H   UNL     1       7.708   8.962  16.830  0.00  0.00    +0.000 HD
BRANCH   7   9
ATOM      9  C   UNL     1       8.733   9.492  18.630  0.00  0.00    +0.000 C 
BRANCH   9  10
ATOM     10  C   UNL     1       9.326  10.701  17.900  0.00  0.00    +0.000 C 
ATOM     11  C   UNL     1      10.463  11.398  18.633  0.00  0.00    +0.000 C 
ATOM     12  C   UNL     1      10.391  12.795  18.070  0.00  0.00    +0.000 C 
ATOM     13  C   UNL     1       8.903  12.996  17.867  0.00  0.00    +0.000 C 
ATOM     14  O   UNL     1       8.313  11.701  17.681  0.00  0.00    +0.000 OA
ENDBRANCH   9  10
ENDBRANCH   7   9
ENDBRANCH   2   5
BRANCH   3  15
ATOM     15  C   UNL     1       4.796   5.598  16.369  0.00  0.00    +0.000 C 
BRANCH  15  16
ATOM     16  C   UNL     1       4.538   4.181  16.873  0.00  0.00    +0.000 C 
BRANCH  16  17
ATOM     17  C   UNL     1       4.153   4.171  18.359  0.00  0.00    +0.000 C 
BRANCH  17  18
ATOM     18  N   UNL     1       2.943   4.962  18.644  0.00  0.00    +0.000 NA
ATOM     19  C   UNL     1       2.599   5.033  20.083  0.00  0.00    +0.000 C 
ATOM     20  C   UNL     1       2.072   3.710  20.660  0.00  0.00    +0.000 C 
ATOM     21  O   UNL     1       0.917   3.260  19.942  0.00  0.00    +0.000 OA
ATOM     22  C   UNL     1       1.209   3.111  18.546  0.00  0.00    +0.000 C 
ATOM     23  C   UNL     1       1.760   4.413  17.936  0.00  0.00    +0.000 C 
ENDBRANCH  17  18
ENDBRANCH  16  17
ENDBRANCH  15  16
ENDBRANCH   3  15
TORSDOF 7
ENDMDL
MODEL 2
REMARK VINA RESULT:      -6.5      1.849      9.286
REMARK  Name = 
REMARK  7 active torsions:
REMARK  status: ('A' for Active; 'I' for Inactive)
REMARK    1  A    between atoms: C_2  and  C_13
REMARK    2  A    between atoms: N_3  and  C_4
REMARK    3  A    between atoms: C_4  and  C_5
REMARK    4  A    between atoms: C_5  and  C_6
REMARK    5  A    between atoms: C_6  and  N_7
REMARK    6  A    between atoms: N_15  and  C_16
REMARK    7  A    between atoms: C_16  and  C_17
REMARK                            x       y       z     vdW  Elec       q    Type
REMARK                         _______ _______ _______ _____ _____    ______ ____
ROOT
ATOM      1  O   UNL     1       7.548   6.560  16.198  0.00  0.00    +0.000 OA
ATOM      2  C   UNL     1       7.462   6.549  17.417  0.00  0.00    +0.000 C 
ATOM      3  N   UNL     1       7.760   7.594  18.263  0.00  0.00    +0.000 N 
ATOM      4  H   UNL     1       7.543   7.453  19.246  0.00  0.00    +0.000 HD
ENDROOT
BRANCH   2   5
ATOM      5  C   UNL     1       6.996   5.271  18.155  0.00  0.00    +0.000 C 
ATOM      6  O   UNL     1       7.820   4.558  18.710  0.00  0.00    +0.000 OA
ATOM      7  N   UNL     1       5.640   5.044  18.102  0.00  0.00    +0.000 N 
ATOM      8  H   UNL     1       5.056   5.802  17.754  0.00  0.00    +0.000 HD
BRANCH   7   9
ATOM      9  C   UNL     1       5.012   3.930  18.788  0.00  0.00    +0.000 C 
BRANCH   9  10
ATOM     10  C   UNL     1       3.691   3.501  18.142  0.00  0.00    +0.000 C 
ATOM     11  C   UNL     1       2.653   4.606  18.013  0.00  0.00    +0.000 C 
ATOM     12  C   UNL     1       1.364   3.823  17.983  0.00  0.00    +0.000 C 
ATOM     13  C   UNL     1       1.654   2.666  18.917  0.00  0.00    +0.000 C 
ATOM     14  O   UNL     1       3.073   2.452  18.912  0.00  0.00    +0.000 OA
ENDBRANCH   9  10
ENDBRANCH   7   9
ENDBRANCH   2   5
BRANCH   3  15
ATOM     15  C   UNL     1       8.202   8.885  17.786  0.00  0.00    +0.000 C 
BRANCH  15  16
ATOM     16  C   UNL     1       8.975   9.639  18.865  0.00  0.00    +0.000 C 
BRANCH  16  17
ATOM     17  C   UNL     1       9.355  11.052  18.405  0.00  0.00    +0.000 C 
BRANCH  17  18
ATOM     18  N   UNL     1       9.328  12.039  19.500  0.00  0.00    +0.000 NA
ATOM     19  C   UNL     1       9.521  13.438  19.051  0.00  0.00    +0.000 C 
ATOM     20  C   UNL     1      10.952  13.746  18.582  0.00  0.00    +0.000 C 
ATOM     21  O   UNL     1      11.902  13.470  19.619  0.00  0.00    +0.000 OA
ATOM     22  C   UNL     1      11.805  12.107  20.052  0.00  0.00    +0.000 C 
ATOM     23  C   UNL     1      10.377  11.753  20.509  0.00  0.00    +0.000 C 
ENDBRANCH  17  18
ENDBRANCH  16  17
ENDBRANCH  15  16
ENDBRANCH   3  15
TORSDOF 7
ENDMDL
MODEL 3
REMARK VINA RESULT:      -6.4      2.844      4.815
REMARK  Name = 
REMARK  7 active torsions:
REMARK  status: ('A' for Active; 'I' for Inactive)
REMARK    1  A    between atoms: C_2  and  C_13
REMARK    2  A    between atoms: N_3  and  C_4
REMARK    3  A    between atoms: C_4  and  C_5
REMARK    4  A    between atoms: C_5  and  C_6
REMARK    5  A    between atoms: C_6  and  N_7
REMARK    6  A    between atoms: N_15  and  C_16
REMARK    7  A    between atoms: C_16  and  C_17
REMARK                            x       y       z     vdW  Elec       q    Type
REMARK                         _______ _______ _______ _____ _____    ______ ____
ROOT
ATOM      1  O   UNL     1       1.993   7.960  20.268  0.00  0.00    +0.000 OA
ATOM      2  C   UNL     1       2.309   7.060  19.503  0.00  0.00    +0.000 C 
ATOM      3  N   UNL     1       2.098   5.713  19.701  0.00  0.00    +0.000 N 
ATOM      4  H   UNL     1       2.335   5.102  18.924  0.00  0.00    +0.000 HD
ENDROOT
BRANCH   2   5
ATOM      5  C   UNL     1       3.031   7.383  18.173  0.00  0.00    +0.000 C 
ATOM      6  O   UNL     1       2.659   8.332  17.497  0.00  0.00    +0.000 OA
ATOM      7  N   UNL     1       4.060   6.525  17.860  0.00  0.00    +0.000 N 
ATOM      8  H   UNL     1       4.369   5.886  18.589  0.00  0.00    +0.000 HD
BRANCH   7   9
ATOM      9  C   UNL     1       4.892   6.707  16.685  0.00  0.00    +0.000 C 
BRANCH   9  10
ATOM     10  C   UNL     1       6.387   6.586  16.990  0.00  0.00    +0.000 C 
ATOM     11  C   UNL     1       6.718   6.109  18.396  0.00  0.00    +0.000 C 
ATOM     12  C   UNL     1       8.096   6.684  18.607  0.00  0.00    +0.000 C 
ATOM     13  C   UNL     1       8.026   8.001  17.861  0.00  0.00    +0.000 C 
ATOM     14  O   UNL     1       7.036   7.863  16.832  0.00  0.00    +0.000 OA
ENDBRANCH   9  10
ENDBRANCH   7   9
ENDBRANCH   2   5
BRANCH   3  15
ATOM     15  C   UNL     1       1.430   5.189  20.871  0.00  0.00    +0.000 C 
BRANCH  15  16
ATOM     16  C   UNL     1       1.183   3.689  20.742  0.00  0.00    +0.000 C 
BRANCH  16  17
ATOM     17  C   UNL     1       1.260   3.227  19.281  0.00  0.00    +0.000 C 
BRANCH  17  18
ATOM     18  N   UNL     1       2.249   2.155  19.069  0.00  0.00    +0.000 NA
ATOM     19  C   UNL     1       3.493   2.323  19.856  0.00  0.00    +0.000 C 
ATOM     20  C   UNL     1       4.386   3.474  19.365  0.00  0.00    +0.000 C 
ATOM     21  O   UNL     1       4.744   3.294  17.990  0.00  0.00    +0.000 OA
ATOM     22  C   UNL     1       3.574   3.189  17.167  0.00  0.00    +0.000 C 
ATOM     23  C   UNL     1       2.642   2.059  17.641  0.00  0.00    +0.000 C 
ENDBRANCH  17  18
ENDBRANCH  16  17
ENDBRANCH  15  16
ENDBRANCH   3  15
TORSDOF 7
ENDMDL
MODEL 4
REMARK VINA RESULT:      -6.3      1.777      9.378
REMARK  Name = 
REMARK  7 active torsions:
REMARK  status: ('A' for Active; 'I' for Inactive)
REMARK    1  A    between atoms: C_2  and  C_13
REMARK    2  A    between atoms: N_3  and  C_4
REMARK    3  A    between atoms: C_4  and  C_5
REMARK    4  A    between atoms: C_5  and  C_6
REMARK    5  A    between atoms: C_6  and  N_7
REMARK    6  A    between atoms: N_15  and  C_16
REMARK    7  A    between atoms: C_16  and  C_17
REMARK                            x       y       z     vdW  Elec       q    Type
REMARK                         _______ _______ _______ _____ _____    ______ ____
ROOT
ATOM      1  O   UNL     1       6.135   6.798  16.416  0.00  0.00    +0.000 OA
ATOM      2  C   UNL     1       6.711   6.511  17.456  0.00  0.00    +0.000 C 
ATOM      3  N   UNL     1       7.639   7.288  18.113  0.00  0.00    +0.000 N 
ATOM      4  H   UNL     1       7.953   6.945  19.017  0.00  0.00    +0.000 HD
ENDROOT
BRANCH   2   5
ATOM      5  C   UNL     1       6.436   5.156  18.152  0.00  0.00    +0.000 C 
ATOM      6  O   UNL     1       7.374   4.462  18.517  0.00  0.00    +0.000 OA
ATOM      7  N   UNL     1       5.102   4.846  18.288  0.00  0.00    +0.000 N 
ATOM      8  H   UNL     1       4.431   5.586  18.095  0.00  0.00    +0.000 HD
BRANCH   7   9
ATOM      9  C   UNL     1       4.651   3.647  18.971  0.00  0.00    +0.000 C 
BRANCH   9  10
ATOM     10  C   UNL     1       3.268   3.812  19.609  0.00  0.00    +0.000 C 
ATOM     11  C   UNL     1       2.957   2.827  20.726  0.00  0.00    +0.000 C 
ATOM     12  C   UNL     1       1.449   2.783  20.695  0.00  0.00    +0.000 C 
ATOM     13  C   UNL     1       1.141   2.933  19.219  0.00  0.00    +0.000 C 
ATOM     14  O   UNL     1       2.235   3.641  18.619  0.00  0.00    +0.000 OA
ENDBRANCH   9  10
ENDBRANCH   7   9
ENDBRANCH   2   5
BRANCH   3  15
ATOM     15  C   UNL     1       8.036   8.597  17.644  0.00  0.00    +0.000 C 
BRANCH  15  16
ATOM     16  C   UNL     1       8.755   9.382  18.738  0.00  0.00    +0.000 C 
BRANCH  16  17
ATOM     17  C   UNL     1       9.344  10.692  18.199  0.00  0.00    +0.000 C 
BRANCH  17  18
ATOM     18  N   UNL     1       9.513  11.718  19.243  0.00  0.00    +0.000 NA
ATOM     19  C   UNL     1       9.244  13.098  18.777  0.00  0.00    +0.000 C 
ATOM     20  C   UNL     1      10.316  13.651  17.825  0.00  0.00    +0.000 C 
ATOM     21  O   UNL     1      11.610  13.627  18.440  0.00  0.00    +0.000 OA
ATOM     22  C   UNL     1      11.954  12.299  18.856  0.00  0.00    +0.000 C 
ATOM     23  C   UNL     1      10.890  11.702  19.797  0.00  0.00    +0.000 C 
ENDBRANCH  17  18
ENDBRANCH  16  17
ENDBRANCH  15  16
ENDBRANCH   3  15
TORSDOF 7
ENDMDL
MODEL 5
REMARK VINA RESULT:      -6.3      4.078      7.350
REMARK  Name = 
REMARK  7 active torsions:
REMARK  status: ('A' for Active; 'I' for Inactive)
REMARK    1  A    between atoms: C_2  and  C_13
REMARK    2  A    between atoms: N_3  and  C_4
REMARK    3  A    between atoms: C_4  and  C_5
REMARK    4  A    between atoms: C_5  and  C_6
REMARK    5  A    between atoms: C_6  and  N_7
REMARK    6  A    between atoms: N_15  and  C_16
REMARK    7  A    between atoms: C_16  and  C_17
REMARK                            x       y       z     vdW  Elec       q    Type
REMARK                         _______ _______ _______ _____ _____    ______ ____
ROOT
ATOM      1  O   UNL     1       1.773   5.305  20.670  0.00  0.00    +0.000 OA
ATOM      2  C   UNL     1       2.367   5.876  19.768  0.00  0.00    +0.000 C 
ATOM      3  N   UNL     1       3.310   5.317  18.933  0.00  0.00    +0.000 N 
ATOM      4  H   UNL     1       3.641   5.904  18.172  0.00  0.00    +0.000 HD
ENDROOT
BRANCH   2   5
ATOM      5  C   UNL     1       2.102   7.375  19.483  0.00  0.00    +0.000 C 
ATOM      6  O   UNL     1       2.416   7.850  18.401  0.00  0.00    +0.000 OA
ATOM      7  N   UNL     1       1.524   8.059  20.528  0.00  0.00    +0.000 N 
ATOM      8  H   UNL     1       1.163   7.506  21.302  0.00  0.00    +0.000 HD
BRANCH   7   9
ATOM      9  C   UNL     1       1.144   9.456  20.424  0.00  0.00    +0.000 C 
BRANCH   9  10
ATOM     10  C   UNL     1       0.712  10.056  21.764  0.00  0.00    +0.000 C 
ATOM     11  C   UNL     1      -0.533   9.431  22.375  0.00  0.00    +0.000 C 
ATOM     12  C   UNL     1      -1.056  10.552  23.239  0.00  0.00    +0.000 C 
ATOM     13  C   UNL     1      -0.706  11.786  22.433  0.00  0.00    +0.000 C 
ATOM     14  O   UNL     1       0.429  11.461  21.617  0.00  0.00    +0.000 OA
ENDBRANCH   9  10
ENDBRANCH   7   9
ENDBRANCH   2   5
BRANCH   3  15
ATOM     15  C   UNL     1       3.702   3.928  19.015  0.00  0.00    +0.000 C 
BRANCH  15  16
ATOM     16  C   UNL     1       5.213   3.789  19.180  0.00  0.00    +0.000 C 
BRANCH  16  17
ATOM     17  C   UNL     1       5.905   5.157  19.223  0.00  0.00    +0.000 C 
BRANCH  17  18
ATOM     18  N   UNL     1       7.312   5.104  18.785  0.00  0.00    +0.000 NA
ATOM     19  C   UNL     1       7.982   6.425  18.760  0.00  0.00    +0.000 C 
ATOM     20  C   UNL     1       7.491   7.346  17.632  0.00  0.00    +0.000 C 
ATOM     21  O   UNL     1       7.665   6.728  16.352  0.00  0.00    +0.000 OA
ATOM     22  C   UNL     1       6.981   5.469  16.295  0.00  0.00    +0.000 C 
ATOM     23  C   UNL     1       7.432   4.524  17.425  0.00  0.00    +0.000 C 
ENDBRANCH  17  18
ENDBRANCH  16  17
ENDBRANCH  15  16
ENDBRANCH   3  15
TORSDOF 7
ENDMDL
MODEL 6
REMARK VINA RESULT:      -6.3      1.400      1.981
REMARK  Name = 
REMARK  7 active torsions:
REMARK  status: ('A' for Active; 'I' for Inactive)
REMARK    1  A    between atoms: C_2  and  C_13
REMARK    2  A    between atoms: N_3  and  C_4
REMARK    3  A    between atoms: C_4  and  C_5
REMARK    4  A    between atoms: C_5  and  C_6
REMARK    5  A    between atoms: C_6  and  N_7
REMARK    6  A    between atoms: N_15  and  C_16
REMARK    7  A    between atoms: C_16  and  C_17
REMARK                            x       y       z     vdW  Elec       q    Type
REMARK                         _______ _______ _______ _____ _____    ______ ____
ROOT
ATOM      1  O   UNL     1       7.941   5.623  19.611  0.00  0.00    +0.000 OA
ATOM      2  C   UNL     1       7.353   6.038  18.624  0.00  0.00    +0.000 C 
ATOM      3  N   UNL     1       6.269   5.446  18.013  0.00  0.00    +0.000 N 
ATOM      4  H   UNL     1       5.838   5.970  17.257  0.00  0.00    +0.000 HD
ENDROOT
BRANCH   2   5
ATOM      5  C   UNL     1       7.820   7.339  17.926  0.00  0.00    +0.000 C 
ATOM      6  O   UNL     1       7.768   7.424  16.706  0.00  0.00    +0.000 OA
ATOM      7  N   UNL     1       8.281   8.311  18.783  0.00  0.00    +0.000 N 
ATOM      8  H   UNL     1       8.111   8.173  19.776  0.00  0.00    +0.000 HD
BRANCH   7   9
ATOM      9  C   UNL     1       8.701   9.620  18.316  0.00  0.00    +0.000 C 
BRANCH   9  10
ATOM     10  C   UNL     1       9.800  10.237  19.187  0.00  0.00    +0.000 C 
ATOM     11  C   UNL     1       9.308  10.909  20.460  0.00  0.00    +0.000 C 
ATOM     12  C   UNL     1      10.403  11.909  20.730  0.00  0.00    +0.000 C 
ATOM     13  C   UNL     1      10.825  12.328  19.337  0.00  0.00    +0.000 C 
ATOM     14  O   UNL     1      10.519  11.244  18.448  0.00  0.00    +0.000 OA
ENDBRANCH   9  10
ENDBRANCH   7   9
ENDBRANCH   2   5
BRANCH   3  15
ATOM     15  C   UNL     1       5.662   4.230  18.506  0.00  0.00    +0.000 C 
BRANCH  15  16
ATOM     16  C   UNL     1       4.620   3.696  17.527  0.00  0.00    +0.000 C 
BRANCH  16  17
ATOM     17  C   UNL     1       3.556   2.852  18.240  0.00  0.00    +0.000 C 
BRANCH  17  18
ATOM     18  N   UNL     1       2.182   3.320  17.980  0.00  0.00    +0.000 NA
ATOM     19  C   UNL     1       1.971   4.756  18.281  0.00  0.00    +0.000 C 
ATOM     20  C   UNL     1       1.977   5.081  19.783  0.00  0.00    +0.000 C 
ATOM     21  O   UNL     1       0.977   4.324  20.476  0.00  0.00    +0.000 OA
ATOM     22  C   UNL     1       1.170   2.918  20.273  0.00  0.00    +0.000 C 
ATOM     23  C   UNL     1       1.191   2.555  18.776  0.00  0.00    +0.000 C 
ENDBRANCH  17  18
ENDBRANCH  16  17
ENDBRANCH  15  16
ENDBRANCH   3  15
TORSDOF 7
ENDMDL
MODEL 7
REMARK VINA RESULT:      -6.3      4.315      6.489
REMARK  Name = 
REMARK  7 active torsions:
REMARK  status: ('A' for Active; 'I' for Inactive)
REMARK    1  A    between atoms: C_2  and  C_13
REMARK    2  A    between atoms: N_3  and  C_4
REMARK    3  A    between atoms: C_4  and  C_5
REMARK    4  A    between atoms: C_5  and  C_6
REMARK    5  A    between atoms: C_6  and  N_7
REMARK    6  A    between atoms: N_15  and  C_16
REMARK    7  A    between atoms: C_16  and  C_17
REMARK                            x       y       z     vdW  Elec       q    Type
REMARK                         _______ _______ _______ _____ _____    ______ ____
ROOT
ATOM      1  O   UNL     1       5.223   3.602  16.658  0.00  0.00    +0.000 OA
ATOM      2  C   UNL     1       5.990   4.551  16.732  0.00  0.00    +0.000 C 
ATOM      3  N   UNL     1       6.201   5.342  17.840  0.00  0.00    +0.000 N 
ATOM      4  H   UNL     1       6.944   6.032  17.765  0.00  0.00    +0.000 HD
ENDROOT
BRANCH   2   5
ATOM      5  C   UNL     1       6.828   4.976  15.501  0.00  0.00    +0.000 C 
ATOM      6  O   UNL     1       7.647   5.878  15.610  0.00  0.00    +0.000 OA
ATOM      7  N   UNL     1       6.547   4.275  14.352  0.00  0.00    +0.000 N 
ATOM      8  H   UNL     1       5.968   3.444  14.444  0.00  0.00    +0.000 HD
BRANCH   7   9
ATOM      9  C   UNL     1       7.275   4.491  13.115  0.00  0.00    +0.000 C 
BRANCH   9  10
ATOM     10  C   UNL     1       6.649   3.764  11.921  0.00  0.00    +0.000 C 
ATOM     11  C   UNL     1       5.226   3.272  12.145  0.00  0.00    +0.000 C 
ATOM     12  C   UNL     1       5.133   2.126  11.169  0.00  0.00    +0.000 C 
ATOM     13  C   UNL     1       6.533   1.548  11.198  0.00  0.00    +0.000 C 
ATOM     14  O   UNL     1       7.429   2.603  11.576  0.00  0.00    +0.000 OA
ENDBRANCH   9  10
ENDBRANCH   7   9
ENDBRANCH   2   5
BRANCH   3  15
ATOM     15  C   UNL     1       5.532   5.116  19.101  0.00  0.00    +0.000 C 
BRANCH  15  16
ATOM     16  C   UNL     1       4.146   5.755  19.114  0.00  0.00    +0.000 C 
BRANCH  16  17
ATOM     17  C   UNL     1       3.185   5.001  20.043  0.00  0.00    +0.000 C 
BRANCH  17  18
ATOM     18  N   UNL     1       1.823   4.888  19.491  0.00  0.00    +0.000 NA
ATOM     19  C   UNL     1       0.926   4.014  20.283  0.00  0.00    +0.000 C 
ATOM     20  C   UNL     1       1.271   2.520  20.183  0.00  0.00    +0.000 C 
ATOM     21  O   UNL     1       1.244   2.077  18.821  0.00  0.00    +0.000 OA
ATOM     22  C   UNL     1       2.145   2.849  18.015  0.00  0.00    +0.000 C 
ATOM     23  C   UNL     1       1.844   4.357  18.106  0.00  0.00    +0.000 C 
ENDBRANCH  17  18
ENDBRANCH  16  17
ENDBRANCH  15  16
ENDBRANCH   3  15
TORSDOF 7
ENDMDL
MODEL 8
REMARK VINA RESULT:      -6.3      1.811      9.255
REMARK  Name = 
REMARK  7 active torsions:
REMARK  status: ('A' for Active; 'I' for Inactive)
REMARK    1  A    between atoms: C_2  and  C_13
REMARK    2  A    between atoms: N_3  and  C_4
REMARK    3  A    between atoms: C_4  and  C_5
REMARK    4  A    between atoms: C_5  and  C_6
REMARK    5  A    between atoms: C_6  and  N_7
REMARK    6  A    between atoms: N_15  and  C_16
REMARK    7  A    between atoms: C_16  and  C_17
REMARK                            x       y       z     vdW  Elec       q    Type
REMARK                         _______ _______ _______ _____ _____    ______ ____
ROOT
ATOM      1  O   UNL     1       7.477   5.101  19.335  0.00  0.00    +0.000 OA
ATOM      2  C   UNL     1       7.017   5.657  18.348  0.00  0.00    +0.000 C 
ATOM      3  N   UNL     1       7.362   6.907  17.883  0.00  0.00    +0.000 N 
ATOM      4  H   UNL     1       6.956   7.184  16.994  0.00  0.00    +0.000 HD
ENDROOT
BRANCH   2   5
ATOM      5  C   UNL     1       5.928   4.961  17.495  0.00  0.00    +0.000 C 
ATOM      6  O   UNL     1       6.234   4.435  16.434  0.00  0.00    +0.000 OA
ATOM      7  N   UNL     1       4.663   5.015  18.033  0.00  0.00    +0.000 N 
ATOM      8  H   UNL     1       4.581   5.333  18.996  0.00  0.00    +0.000 HD
BRANCH   7   9
ATOM      9  C   UNL     1       3.526   4.364  17.408  0.00  0.00    +0.000 C 
BRANCH   9  10
ATOM     10  C   UNL     1       2.343   4.185  18.364  0.00  0.00    +0.000 C 
ATOM     11  C   UNL     1       2.688   3.532  19.695  0.00  0.00    +0.000 C 
ATOM     12  C   UNL     1       1.367   2.926  20.098  0.00  0.00    +0.000 C 
ATOM     13  C   UNL     1       0.771   2.508  18.770  0.00  0.00    +0.000 C 
ATOM     14  O   UNL     1       1.329   3.360  17.759  0.00  0.00    +0.000 OA
ENDBRANCH   9  10
ENDBRANCH   7   9
ENDBRANCH   2   5
BRANCH   3  15
ATOM     15  C   UNL     1       8.367   7.728  18.520  0.00  0.00    +0.000 C 
BRANCH  15  16
ATOM     16  C   UNL     1       8.288   9.173  18.037  0.00  0.00    +0.000 C 
BRANCH  16  17
ATOM     17  C   UNL     1       9.054  10.123  18.968  0.00  0.00    +0.000 C 
BRANCH  17  18
ATOM     18  N   UNL     1       9.345  11.427  18.346  0.00  0.00    +0.000 NA
ATOM     19  C   UNL     1      10.710  11.529  17.779  0.00  0.00    +0.000 C 
ATOM     20  C   UNL     1      11.818  11.600  18.842  0.00  0.00    +0.000 C 
ATOM     21  O   UNL     1      11.612  12.710  19.724  0.00  0.00    +0.000 OA
ATOM     22  C   UNL     1      10.326  12.631  20.354  0.00  0.00    +0.000 C 
ATOM     23  C   UNL     1       9.189  12.536  19.319  0.00  0.00    +0.000 C 
ENDBRANCH  17  18
ENDBRANCH  16  17
ENDBRANCH  15  16
ENDBRANCH   3  15
TORSDOF 7
ENDMDL
MODEL 9
REMARK VINA RESULT:      -6.2      1.989      9.472
REMARK  Name = 
REMARK  7 active torsions:
REMARK  status: ('A' for Active; 'I' for Inactive)
REMARK    1  A    between atoms: C_2  and  C_13
REMARK    2  A    between atoms: N_3  and  C_4
REMARK    3  A    between atoms: C_4  and  C_5
REMARK    4  A    between atoms: C_5  and  C_6
REMARK    5  A    between atoms: C_6  and  N_7
REMARK    6  A    between atoms: N_15  and  C_16
REMARK    7  A    between atoms: C_16  and  C_17
REMARK                            x       y       z     vdW  Elec       q    Type
REMARK                         _______ _______ _______ _____ _____    ______ ____
ROOT
ATOM      1  O   UNL     1       8.105   6.253  18.952  0.00  0.00    +0.000 OA
ATOM      2  C   UNL     1       7.584   6.948  18.092  0.00  0.00    +0.000 C 
ATOM      3  N   UNL     1       7.842   8.281  17.857  0.00  0.00    +0.000 N 
ATOM      4  H   UNL     1       7.393   8.689  17.041  0.00  0.00    +0.000 HD
ENDROOT
BRANCH   2   5
ATOM      5  C   UNL     1       6.512   6.351  17.149  0.00  0.00    +0.000 C 
ATOM      6  O   UNL     1       6.759   6.221  15.958  0.00  0.00    +0.000 OA
ATOM      7  N   UNL     1       5.328   6.022  17.767  0.00  0.00    +0.000 N 
ATOM      8  H   UNL     1       5.320   6.025  18.785  0.00  0.00    +0.000 HD
BRANCH   7   9
ATOM      9  C   UNL     1       4.230   5.393  17.056  0.00  0.00    +0.000 C 
BRANCH   9  10
ATOM     10  C   UNL     1       4.164   3.880  17.284  0.00  0.00    +0.000 C 
ATOM     11  C   UNL     1       2.763   3.287  17.252  0.00  0.00    +0.000 C 
ATOM     12  C   UNL     1       2.927   2.048  18.095  0.00  0.00    +0.000 C 
ATOM     13  C   UNL     1       3.930   2.486  19.142  0.00  0.00    +0.000 C 
ATOM     14  O   UNL     1       4.717   3.541  18.571  0.00  0.00    +0.000 OA
ENDBRANCH   9  10
ENDBRANCH   7   9
ENDBRANCH   2   5
BRANCH   3  15
ATOM     15  C   UNL     1       8.817   9.034  18.614  0.00  0.00    +0.000 C 
BRANCH  15  16
ATOM     16  C   UNL     1       8.850  10.495  18.174  0.00  0.00    +0.000 C 
BRANCH  16  17
ATOM     17  C   UNL     1       9.547  11.383  19.213  0.00  0.00    +0.000 C 
BRANCH  17  18
ATOM     18  N   UNL     1      11.007  11.451  19.024  0.00  0.00    +0.000 NA
ATOM     19  C   UNL     1      11.703  12.288  20.028  0.00  0.00    +0.000 C 
ATOM     20  C   UNL     1      11.444  13.794  19.865  0.00  0.00    +0.000 C 
ATOM     21  O   UNL     1      11.828  14.243  18.560  0.00  0.00    +0.000 OA
ATOM     22  C   UNL     1      11.135  13.508  17.542  0.00  0.00    +0.000 C 
ATOM     23  C   UNL     1      11.353  11.990  17.686  0.00  0.00    +0.000 C 
ENDBRANCH  17  18
ENDBRANCH  16  17
ENDBRANCH  15  16
ENDBRANCH   3  15
TORSDOF 7
ENDMDL
