MODEL 1
REMARK VINA RESULT:      -8.1      0.000      0.000
REMARK  Name = 
REMARK  6 active torsions:
REMARK  status: ('A' for Active; 'I' for Inactive)
REMARK    1  A    between atoms: C_2  and  O_3
REMARK    2  A    between atoms: C_2  and  C_18
REMARK    3  A    between atoms: O_3  and  C_4
REMARK    4  A    between atoms: C_4  and  C_5
REMARK    5  A    between atoms: C_4  and  C_11
REMARK    6  A    between atoms: C_5  and  N_6
REMARK                            x       y       z     vdW  Elec       q    Type
REMARK                         _______ _______ _______ _____ _____    ______ ____
ROOT
ATOM      1  C   UNL     1       3.899   6.166  18.001  0.00  0.00    +0.000 C 
ENDROOT
BRANCH   1   2
ATOM      2  C   UNL     1       2.901   7.242  18.493  0.00  0.00    +0.000 A 
ATOM      3  C   UNL     1       2.466   8.303  17.686  0.00  0.00    +0.000 A 
ATOM      4  C   UNL     1       1.563   9.266  18.163  0.00  0.00    +0.000 A 
ATOM      5  C   UNL     1       1.092   9.198  19.469  0.00  0.00    +0.000 A 
ATOM      6 CL   UNL     1       0.010  10.396  20.062  0.00  0.00    +0.000 Cl
ATOM      7  C   UNL     1       1.498   8.157  20.295  0.00  0.00    +0.000 A 
ATOM      8  C   UNL     1       2.381   7.182  19.805  0.00  0.00    +0.000 A 
ENDBRANCH   1   2
BRANCH   1   9
ATOM      9  O   UNL     1       3.244   5.035  17.324  0.00  0.00    +0.000 OA
BRANCH   9  11
ATOM     10  O   UNL     1       4.122   2.942  17.224  0.00  0.00    +0.000 OA
ATOM     11  C   UNL     1       3.436   3.772  17.809  0.00  0.00    +0.000 C 
BRANCH  11  12
ATOM     12  C   UNL     1       2.736   3.448  19.115  0.00  0.00    +0.000 A 
ATOM     13  C   UNL     1       1.379   3.850  19.241  0.00  0.00    +0.000 A 
ATOM     14  C   UNL     1       0.627   3.586  20.402  0.00  0.00    +0.000 A 
ATOM     15  C   UNL     1       1.206   2.910  21.465  0.00  0.00    +0.000 A 
ATOM     16  C   UNL     1       2.534   2.495  21.361  0.00  0.00    +0.000 A 
ATOM     17  C   UNL     1       3.293   2.756  20.202  0.00  0.00    +0.000 A 
ATOM     18 CL   UNL     1       4.892   2.122  20.245  0.00  0.00    +0.000 Cl
ENDBRANCH  11  12
ENDBRANCH   9  11
ENDBRANCH   1   9
BRANCH   1  19
ATOM     19  C   UNL     1       5.024   6.798  17.151  0.00  0.00    +0.000 C 
BRANCH  19  20
ATOM     20  N   UNL     1       5.912   5.841  16.531  0.00  0.00    +0.000 N 
ATOM     21  C   UNL     1       5.872   5.399  15.240  0.00  0.00    +0.000 A 
ATOM     22  C   UNL     1       6.975   4.587  15.112  0.00  0.00    +0.000 A 
ATOM     23  N   UNL     1       7.679   4.532  16.287  0.00  0.00    +0.000 NA
ATOM     24  C   UNL     1       7.022   5.305  17.121  0.00  0.00    +0.000 A 
ENDBRANCH  19  20
ENDBRANCH   1  19
TORSDOF 6
ENDMDL
MODEL 2
REMARK VINA RESULT:      -8.0      0.497      1.360
REMARK  Name = 
REMARK  6 active torsions:
REMARK  status: ('A' for Active; 'I' for Inactive)
REMARK    1  A    between atoms: C_2  and  O_3
REMARK    2  A    between atoms: C_2  and  C_18
REMARK    3  A    between atoms: O_3  and  C_4
REMARK    4  A    between atoms: C_4  and  C_5
REMARK    5  A    between atoms: C_4  and  C_11
REMARK    6  A    between atoms: C_5  and  N_6
REMARK                            x       y       z     vdW  Elec       q    Type
REMARK                         _______ _______ _______ _____ _____    ______ ____
ROOT
ATOM      1  C   UNL     1       3.863   6.108  18.114  0.00  0.00    +0.000 C 
ENDROOT
BRANCH   1   2
ATOM      2  C   UNL     1       2.884   7.233  18.528  0.00  0.00    +0.000 A 
ATOM      3  C   UNL     1       2.258   7.274  19.782  0.00  0.00    +0.000 A 
ATOM      4  C   UNL     1       1.371   8.306  20.128  0.00  0.00    +0.000 A 
ATOM      5  C   UNL     1       1.078   9.311  19.214  0.00  0.00    +0.000 A 
ATOM      6 CL   UNL     1      -0.032  10.558  19.627  0.00  0.00    +0.000 Cl
ATOM      7  C   UNL     1       1.685   9.306  17.964  0.00  0.00    +0.000 A 
ATOM      8  C   UNL     1       2.590   8.285  17.632  0.00  0.00    +0.000 A 
ENDBRANCH   1   2
BRANCH   1   9
ATOM      9  O   UNL     1       3.209   5.014  17.377  0.00  0.00    +0.000 OA
BRANCH   9  11
ATOM     10  O   UNL     1       3.969   2.882  17.183  0.00  0.00    +0.000 OA
ATOM     11  C   UNL     1       3.361   3.731  17.824  0.00  0.00    +0.000 C 
BRANCH  11  12
ATOM     12  C   UNL     1       2.718   3.413  19.159  0.00  0.00    +0.000 A 
ATOM     13  C   UNL     1       1.361   3.798  19.336  0.00  0.00    +0.000 A 
ATOM     14  C   UNL     1       0.660   3.537  20.528  0.00  0.00    +0.000 A 
ATOM     15  C   UNL     1       1.290   2.880  21.575  0.00  0.00    +0.000 A 
ATOM     16  C   UNL     1       2.619   2.482  21.422  0.00  0.00    +0.000 A 
ATOM     17  C   UNL     1       3.327   2.740  20.230  0.00  0.00    +0.000 A 
ATOM     18 CL   UNL     1       4.935   2.128  20.217  0.00  0.00    +0.000 Cl
ENDBRANCH  11  12
ENDBRANCH   9  11
ENDBRANCH   1   9
BRANCH   1  19
ATOM     19  C   UNL     1       5.086   6.683  17.365  0.00  0.00    +0.000 C 
BRANCH  19  20
ATOM     20  N   UNL     1       6.227   5.797  17.319  0.00  0.00    +0.000 N 
ATOM     21  C   UNL     1       6.915   5.286  18.382  0.00  0.00    +0.000 A 
ATOM     22  C   UNL     1       7.835   4.428  17.825  0.00  0.00    +0.000 A 
ATOM     23  N   UNL     1       7.717   4.406  16.460  0.00  0.00    +0.000 NA
ATOM     24  C   UNL     1       6.734   5.231  16.183  0.00  0.00    +0.000 A 
ENDBRANCH  19  20
ENDBRANCH   1  19
TORSDOF 6
ENDMDL
MODEL 3
REMARK VINA RESULT:      -7.7      0.818      1.419
REMARK  Name = 
REMARK  6 active torsions:
REMARK  status: ('A' for Active; 'I' for Inactive)
REMARK    1  A    between atoms: C_2  and  O_3
REMARK    2  A    between atoms: C_2  and  C_18
REMARK    3  A    between atoms: O_3  and  C_4
REMARK    4  A    between atoms: C_4  and  C_5
REMARK    5  A    between atoms: C_4  and  C_11
REMARK    6  A    between atoms: C_5  and  N_6
REMARK                            x       y       z     vdW  Elec       q    Type
REMARK                         _______ _______ _______ _____ _____    ______ ____
ROOT
ATOM      1  C   UNL     1       3.734   6.190  18.136  0.00  0.00    +0.000 C 
ENDROOT
BRANCH   1   2
ATOM      2  C   UNL     1       2.756   7.305  18.579  0.00  0.00    +0.000 A 
ATOM      3  C   UNL     1       2.240   7.392  19.880  0.00  0.00    +0.000 A 
ATOM      4  C   UNL     1       1.350   8.413  20.251  0.00  0.00    +0.000 A 
ATOM      5  C   UNL     1       0.943   9.359  19.318  0.00  0.00    +0.000 A 
ATOM      6 CL   UNL     1      -0.171  10.591  19.765  0.00  0.00    +0.000 Cl
ATOM      7  C   UNL     1       1.439   9.306  18.021  0.00  0.00    +0.000 A 
ATOM      8  C   UNL     1       2.347   8.299  17.661  0.00  0.00    +0.000 A 
ENDBRANCH   1   2
BRANCH   1   9
ATOM      9  O   UNL     1       3.099   5.164  17.293  0.00  0.00    +0.000 OA
BRANCH   9  11
ATOM     10  O   UNL     1       0.960   4.406  17.186  0.00  0.00    +0.000 OA
ATOM     11  C   UNL     1       2.026   4.474  17.785  0.00  0.00    +0.000 C 
BRANCH  11  12
ATOM     12  C   UNL     1       2.228   3.807  19.132  0.00  0.00    +0.000 A 
ATOM     13  C   UNL     1       1.177   3.928  20.081  0.00  0.00    +0.000 A 
ATOM     14  C   UNL     1       1.251   3.333  21.355  0.00  0.00    +0.000 A 
ATOM     15  C   UNL     1       2.370   2.598  21.715  0.00  0.00    +0.000 A 
ATOM     16  C   UNL     1       3.411   2.456  20.796  0.00  0.00    +0.000 A 
ATOM     17  C   UNL     1       3.344   3.048  19.518  0.00  0.00    +0.000 A 
ATOM     18 CL   UNL     1       4.701   2.717  18.514  0.00  0.00    +0.000 Cl
ENDBRANCH  11  12
ENDBRANCH   9  11
ENDBRANCH   1   9
BRANCH   1  19
ATOM     19  C   UNL     1       5.003   6.790  17.491  0.00  0.00    +0.000 C 
BRANCH  19  20
ATOM     20  N   UNL     1       5.909   5.809  16.935  0.00  0.00    +0.000 N 
ATOM     21  C   UNL     1       5.884   5.290  15.672  0.00  0.00    +0.000 A 
ATOM     22  C   UNL     1       6.999   4.488  15.600  0.00  0.00    +0.000 A 
ATOM     23  N   UNL     1       7.695   4.513  16.782  0.00  0.00    +0.000 NA
ATOM     24  C   UNL     1       7.022   5.325  17.563  0.00  0.00    +0.000 A 
ENDBRANCH  19  20
ENDBRANCH   1  19
TORSDOF 6
ENDMDL
MODEL 4
REMARK VINA RESULT:      -7.7      1.318      1.528
REMARK  Name = 
REMARK  6 active torsions:
REMARK  status: ('A' for Active; 'I' for Inactive)
REMARK    1  A    between atoms: C_2  and  O_3
REMARK    2  A    between atoms: C_2  and  C_18
REMARK    3  A    between atoms: O_3  and  C_4
REMARK    4  A    between atoms: C_4  and  C_5
REMARK    5  A    between atoms: C_4  and  C_11
REMARK    6  A    between atoms: C_5  and  N_6
REMARK                            x       y       z     vdW  Elec       q    Type
REMARK                         _______ _______ _______ _____ _____    ______ ____
ROOT
ATOM      1  C   UNL     1       3.312   5.976  18.189  0.00  0.00    +0.000 C 
ENDROOT
BRANCH   1   2
ATOM      2  C   UNL     1       2.510   7.173  18.756  0.00  0.00    +0.000 A 
ATOM      3  C   UNL     1       2.164   8.291  17.985  0.00  0.00    +0.000 A 
ATOM      4  C   UNL     1       1.439   9.364  18.530  0.00  0.00    +0.000 A 
ATOM      5  C   UNL     1       1.064   9.345  19.868  0.00  0.00    +0.000 A 
ATOM      6 CL   UNL     1       0.203  10.673  20.543  0.00  0.00    +0.000 Cl
ATOM      7  C   UNL     1       1.385   8.250  20.660  0.00  0.00    +0.000 A 
ATOM      8  C   UNL     1       2.088   7.169  20.105  0.00  0.00    +0.000 A 
ENDBRANCH   1   2
BRANCH   1   9
ATOM      9  O   UNL     1       2.495   5.070  17.366  0.00  0.00    +0.000 OA
BRANCH   9  11
ATOM     10  O   UNL     1       2.633   2.877  16.789  0.00  0.00    +0.000 OA
ATOM     11  C   UNL     1       2.495   3.733  17.654  0.00  0.00    +0.000 C 
BRANCH  11  12
ATOM     12  C   UNL     1       2.299   3.369  19.113  0.00  0.00    +0.000 A 
ATOM     13  C   UNL     1       1.051   3.704  19.704  0.00  0.00    +0.000 A 
ATOM     14  C   UNL     1       0.755   3.396  21.046  0.00  0.00    +0.000 A 
ATOM     15  C   UNL     1       1.692   2.742  21.832  0.00  0.00    +0.000 A 
ATOM     16  C   UNL     1       2.921   2.394  21.271  0.00  0.00    +0.000 A 
ATOM     17  C   UNL     1       3.224   2.698  19.928  0.00  0.00    +0.000 A 
ATOM     18 CL   UNL     1       4.767   2.142  19.409  0.00  0.00    +0.000 Cl
ENDBRANCH  11  12
ENDBRANCH   9  11
ENDBRANCH   1   9
BRANCH   1  19
ATOM     19  C   UNL     1       4.586   6.457  17.460  0.00  0.00    +0.000 C 
BRANCH  19  20
ATOM     20  N   UNL     1       5.820   6.129  18.138  0.00  0.00    +0.000 N 
ATOM     21  C   UNL     1       7.073   6.573  17.824  0.00  0.00    +0.000 A 
ATOM     22  C   UNL     1       7.883   6.067  18.815  0.00  0.00    +0.000 A 
ATOM     23  N   UNL     1       7.152   5.337  19.716  0.00  0.00    +0.000 NA
ATOM     24  C   UNL     1       5.912   5.400  19.289  0.00  0.00    +0.000 A 
ENDBRANCH  19  20
ENDBRANCH   1  19
TORSDOF 6
ENDMDL
MODEL 5
REMARK VINA RESULT:      -7.6      1.222      1.803
REMARK  Name = 
REMARK  6 active torsions:
REMARK  status: ('A' for Active; 'I' for Inactive)
REMARK    1  A    between atoms: C_2  and  O_3
REMARK    2  A    between atoms: C_2  and  C_18
REMARK    3  A    between atoms: O_3  and  C_4
REMARK    4  A    between atoms: C_4  and  C_5
REMARK    5  A    between atoms: C_4  and  C_11
REMARK    6  A    between atoms: C_5  and  N_6
REMARK                            x       y       z     vdW  Elec       q    Type
REMARK                         _______ _______ _______ _____ _____    ______ ____
ROOT
ATOM      1  C   UNL     1       4.164   5.252  17.729  0.00  0.00    +0.000 C 
ENDROOT
BRANCH   1   2
ATOM      2  C   UNL     1       3.309   6.425  18.266  0.00  0.00    +0.000 A 
ATOM      3  C   UNL     1       2.741   6.429  19.548  0.00  0.00    +0.000 A 
ATOM      4  C   UNL     1       1.966   7.506  20.005  0.00  0.00    +0.000 A 
ATOM      5  C   UNL     1       1.727   8.597  19.177  0.00  0.00    +0.000 A 
ATOM      6 CL   UNL     1       0.752   9.902  19.727  0.00  0.00    +0.000 Cl
ATOM      7  C   UNL     1       2.279   8.629  17.903  0.00  0.00    +0.000 A 
ATOM      8  C   UNL     1       3.074   7.561  17.459  0.00  0.00    +0.000 A 
ENDBRANCH   1   2
BRANCH   1   9
ATOM      9  O   UNL     1       3.360   4.181  17.119  0.00  0.00    +0.000 OA
BRANCH   9  11
ATOM     10  O   UNL     1       3.732   1.942  17.212  0.00  0.00    +0.000 OA
ATOM     11  C   UNL     1       3.303   2.963  17.736  0.00  0.00    +0.000 C 
BRANCH  11  12
ATOM     12  C   UNL     1       2.659   2.944  19.109  0.00  0.00    +0.000 A 
ATOM     13  C   UNL     1       1.288   3.309  19.189  0.00  0.00    +0.000 A 
ATOM     14  C   UNL     1       0.586   3.310  20.409  0.00  0.00    +0.000 A 
ATOM     15  C   UNL     1       1.230   2.942  21.581  0.00  0.00    +0.000 A 
ATOM     16  C   UNL     1       2.574   2.569  21.527  0.00  0.00    +0.000 A 
ATOM     17  C   UNL     1       3.283   2.565  20.308  0.00  0.00    +0.000 A 
ATOM     18 CL   UNL     1       4.912   2.028  20.440  0.00  0.00    +0.000 Cl
ENDBRANCH  11  12
ENDBRANCH   9  11
ENDBRANCH   1   9
BRANCH   1  19
ATOM     19  C   UNL     1       5.284   5.763  16.796  0.00  0.00    +0.000 C 
BRANCH  19  20
ATOM     20  N   UNL     1       6.464   6.237  17.484  0.00  0.00    +0.000 N 
ATOM     21  C   UNL     1       7.095   7.435  17.303  0.00  0.00    +0.000 A 
ATOM     22  C   UNL     1       8.090   7.454  18.254  0.00  0.00    +0.000 A 
ATOM     23  N   UNL     1       8.072   6.305  19.002  0.00  0.00    +0.000 NA
ATOM     24  C   UNL     1       7.076   5.596  18.524  0.00  0.00    +0.000 A 
ENDBRANCH  19  20
ENDBRANCH   1  19
TORSDOF 6
ENDMDL
MODEL 6
REMARK VINA RESULT:      -7.6      1.359      1.962
REMARK  Name = 
REMARK  6 active torsions:
REMARK  status: ('A' for Active; 'I' for Inactive)
REMARK    1  A    between atoms: C_2  and  O_3
REMARK    2  A    between atoms: C_2  and  C_18
REMARK    3  A    between atoms: O_3  and  C_4
REMARK    4  A    between atoms: C_4  and  C_5
REMARK    5  A    between atoms: C_4  and  C_11
REMARK    6  A    between atoms: C_5  and  N_6
REMARK                            x       y       z     vdW  Elec       q    Type
REMARK                         _______ _______ _______ _____ _____    ______ ____
ROOT
ATOM      1  C   UNL     1       3.754   6.233  18.013  0.00  0.00    +0.000 C 
ENDROOT
BRANCH   1   2
ATOM      2  C   UNL     1       2.778   7.337  18.489  0.00  0.00    +0.000 A 
ATOM      3  C   UNL     1       2.344   8.379  17.658  0.00  0.00    +0.000 A 
ATOM      4  C   UNL     1       1.461   9.368  18.121  0.00  0.00    +0.000 A 
ATOM      5  C   UNL     1       1.011   9.344  19.436  0.00  0.00    +0.000 A 
ATOM      6 CL   UNL     1      -0.046  10.574  20.010  0.00  0.00    +0.000 Cl
ATOM      7  C   UNL     1       1.416   8.322  20.285  0.00  0.00    +0.000 A 
ATOM      8  C   UNL     1       2.278   7.322  19.811  0.00  0.00    +0.000 A 
ENDBRANCH   1   2
BRANCH   1   9
ATOM      9  O   UNL     1       3.115   5.232  17.144  0.00  0.00    +0.000 OA
BRANCH   9  11
ATOM     10  O   UNL     1       1.103   4.183  17.253  0.00  0.00    +0.000 OA
ATOM     11  C   UNL     1       2.235   4.343  17.694  0.00  0.00    +0.000 C 
BRANCH  11  12
ATOM     12  C   UNL     1       2.737   3.570  18.899  0.00  0.00    +0.000 A 
ATOM     13  C   UNL     1       3.959   2.860  18.753  0.00  0.00    +0.000 A 
ATOM     14  C   UNL     1       4.526   2.125  19.811  0.00  0.00    +0.000 A 
ATOM     15  C   UNL     1       3.893   2.082  21.044  0.00  0.00    +0.000 A 
ATOM     16  C   UNL     1       2.696   2.779  21.215  0.00  0.00    +0.000 A 
ATOM     17  C   UNL     1       2.123   3.518  20.161  0.00  0.00    +0.000 A 
ATOM     18 CL   UNL     1       0.677   4.348  20.583  0.00  0.00    +0.000 Cl
ENDBRANCH  11  12
ENDBRANCH   9  11
ENDBRANCH   1   9
BRANCH   1  19
ATOM     19  C   UNL     1       5.023   6.848  17.383  0.00  0.00    +0.000 C 
BRANCH  19  20
ATOM     20  N   UNL     1       6.164   5.960  17.353  0.00  0.00    +0.000 N 
ATOM     21  C   UNL     1       6.786   5.385  18.425  0.00  0.00    +0.000 A 
ATOM     22  C   UNL     1       7.737   4.556  17.875  0.00  0.00    +0.000 A 
ATOM     23  N   UNL     1       7.700   4.613  16.506  0.00  0.00    +0.000 NA
ATOM     24  C   UNL     1       6.736   5.457  16.220  0.00  0.00    +0.000 A 
ENDBRANCH  19  20
ENDBRANCH   1  19
TORSDOF 6
ENDMDL
MODEL 7
REMARK VINA RESULT:      -7.5      1.208      1.710
REMARK  Name = 
REMARK  6 active torsions:
REMARK  status: ('A' for Active; 'I' for Inactive)
REMARK    1  A    between atoms: C_2  and  O_3
REMARK    2  A    between atoms: C_2  and  C_18
REMARK    3  A    between atoms: O_3  and  C_4
REMARK    4  A    between atoms: C_4  and  C_5
REMARK    5  A    between atoms: C_4  and  C_11
REMARK    6  A    between atoms: C_5  and  N_6
REMARK                            x       y       z     vdW  Elec       q    Type
REMARK                         _______ _______ _______ _____ _____    ______ ____
ROOT
ATOM      1  C   UNL     1       3.051   6.108  18.207  0.00  0.00    +0.000 C 
ENDROOT
BRANCH   1   2
ATOM      2  C   UNL     1       2.342   7.380  18.730  0.00  0.00    +0.000 A 
ATOM      3  C   UNL     1       1.924   7.527  20.061  0.00  0.00    +0.000 A 
ATOM      4  C   UNL     1       1.279   8.692  20.505  0.00  0.00    +0.000 A 
ATOM      5  C   UNL     1       1.021   9.730  19.617  0.00  0.00    +0.000 A 
ATOM      6 CL   UNL     1       0.204  11.144  20.154  0.00  0.00    +0.000 Cl
ATOM      7  C   UNL     1       1.427   9.621  18.292  0.00  0.00    +0.000 A 
ATOM      8  C   UNL     1       2.094   8.465  17.859  0.00  0.00    +0.000 A 
ENDBRANCH   1   2
BRANCH   1   9
ATOM      9  O   UNL     1       2.149   5.199  17.482  0.00  0.00    +0.000 OA
BRANCH   9  11
ATOM     10  O   UNL     1       2.330   3.044  16.785  0.00  0.00    +0.000 OA
ATOM     11  C   UNL     1       2.249   3.853  17.701  0.00  0.00    +0.000 C 
BRANCH  11  12
ATOM     12  C   UNL     1       2.238   3.415  19.153  0.00  0.00    +0.000 A 
ATOM     13  C   UNL     1       1.067   3.696  19.908  0.00  0.00    +0.000 A 
ATOM     14  C   UNL     1       0.942   3.318  21.259  0.00  0.00    +0.000 A 
ATOM     15  C   UNL     1       1.978   2.646  21.891  0.00  0.00    +0.000 A 
ATOM     16  C   UNL     1       3.133   2.350  21.167  0.00  0.00    +0.000 A 
ATOM     17  C   UNL     1       3.266   2.724  19.815  0.00  0.00    +0.000 A 
ATOM     18 CL   UNL     1       4.741   2.225  19.084  0.00  0.00    +0.000 Cl
ENDBRANCH  11  12
ENDBRANCH   9  11
ENDBRANCH   1   9
BRANCH   1  19
ATOM     19  C   UNL     1       4.313   6.470  17.393  0.00  0.00    +0.000 C 
BRANCH  19  20
ATOM     20  N   UNL     1       5.534   5.877  17.890  0.00  0.00    +0.000 N 
ATOM     21  C   UNL     1       6.709   5.723  17.211  0.00  0.00    +0.000 A 
ATOM     22  C   UNL     1       7.585   5.208  18.139  0.00  0.00    +0.000 A 
ATOM     23  N   UNL     1       6.972   5.052  19.355  0.00  0.00    +0.000 NA
ATOM     24  C   UNL     1       5.741   5.473  19.179  0.00  0.00    +0.000 A 
ENDBRANCH  19  20
ENDBRANCH   1  19
TORSDOF 6
ENDMDL
MODEL 8
REMARK VINA RESULT:      -7.5      1.218      1.656
REMARK  Name = 
REMARK  6 active torsions:
REMARK  status: ('A' for Active; 'I' for Inactive)
REMARK    1  A    between atoms: C_2  and  O_3
REMARK    2  A    between atoms: C_2  and  C_18
REMARK    3  A    between atoms: O_3  and  C_4
REMARK    4  A    between atoms: C_4  and  C_5
REMARK    5  A    between atoms: C_4  and  C_11
REMARK    6  A    between atoms: C_5  and  N_6
REMARK                            x       y       z     vdW  Elec       q    Type
REMARK                         _______ _______ _______ _____ _____    ______ ____
ROOT
ATOM      1  C   UNL     1       4.201   5.188  17.717  0.00  0.00    +0.000 C 
ENDROOT
BRANCH   1   2
ATOM      2  C   UNL     1       3.342   6.381  18.205  0.00  0.00    +0.000 A 
ATOM      3  C   UNL     1       3.064   7.497  17.403  0.00  0.00    +0.000 A 
ATOM      4  C   UNL     1       2.285   8.565  17.876  0.00  0.00    +0.000 A 
ATOM      5  C   UNL     1       1.784   8.546  19.172  0.00  0.00    +0.000 A 
ATOM      6 CL   UNL     1       0.856   9.869  19.760  0.00  0.00    +0.000 Cl
ATOM      7  C   UNL     1       2.035   7.452  19.992  0.00  0.00    +0.000 A 
ATOM      8  C   UNL     1       2.793   6.375  19.507  0.00  0.00    +0.000 A 
ENDBRANCH   1   2
BRANCH   1   9
ATOM      9  O   UNL     1       3.406   4.121  17.090  0.00  0.00    +0.000 OA
BRANCH   9  11
ATOM     10  O   UNL     1       3.724   1.874  17.200  0.00  0.00    +0.000 OA
ATOM     11  C   UNL     1       3.316   2.908  17.715  0.00  0.00    +0.000 C 
BRANCH  11  12
ATOM     12  C   UNL     1       2.665   2.913  19.084  0.00  0.00    +0.000 A 
ATOM     13  C   UNL     1       1.294   3.284  19.150  0.00  0.00    +0.000 A 
ATOM     14  C   UNL     1       0.586   3.307  20.367  0.00  0.00    +0.000 A 
ATOM     15  C   UNL     1       1.222   2.956  21.548  0.00  0.00    +0.000 A 
ATOM     16  C   UNL     1       2.564   2.578  21.507  0.00  0.00    +0.000 A 
ATOM     17  C   UNL     1       3.280   2.552  20.293  0.00  0.00    +0.000 A 
ATOM     18 CL   UNL     1       4.907   2.012  20.442  0.00  0.00    +0.000 Cl
ENDBRANCH  11  12
ENDBRANCH   9  11
ENDBRANCH   1   9
BRANCH   1  19
ATOM     19  C   UNL     1       5.363   5.671  16.821  0.00  0.00    +0.000 C 
BRANCH  19  20
ATOM     20  N   UNL     1       6.454   6.288  17.542  0.00  0.00    +0.000 N 
ATOM     21  C   UNL     1       7.244   5.708  18.493  0.00  0.00    +0.000 A 
ATOM     22  C   UNL     1       8.188   6.662  18.795  0.00  0.00    +0.000 A 
ATOM     23  N   UNL     1       7.991   7.796  18.050  0.00  0.00    +0.000 NA
ATOM     24  C   UNL     1       6.947   7.538  17.296  0.00  0.00    +0.000 A 
ENDBRANCH  19  20
ENDBRANCH   1  19
TORSDOF 6
ENDMDL
MODEL 9
REMARK VINA RESULT:      -7.5      1.274      1.983
REMARK  Name = 
REMARK  6 active torsions:
REMARK  status: ('A' for Active; 'I' for Inactive)
REMARK    1  A    between atoms: C_2  and  O_3
REMARK    2  A    between atoms: C_2  and  C_18
REMARK    3  A    between atoms: O_3  and  C_4
REMARK    4  A    between atoms: C_4  and  C_5
REMARK    5  A    between atoms: C_4  and  C_11
REMARK    6  A    between atoms: C_5  and  N_6
REMARK                            x       y       z     vdW  Elec       q    Type
REMARK                         _______ _______ _______ _____ _____    ______ ____
ROOT
ATOM      1  C   UNL     1       3.805   6.198  18.020  0.00  0.00    +0.000 C 
ENDROOT
BRANCH   1   2
ATOM      2  C   UNL     1       2.831   7.301  18.500  0.00  0.00    +0.000 A 
ATOM      3  C   UNL     1       2.307   7.341  19.800  0.00  0.00    +0.000 A 
ATOM      4  C   UNL     1       1.422   8.353  20.205  0.00  0.00    +0.000 A 
ATOM      5  C   UNL     1       1.027   9.337  19.306  0.00  0.00    +0.000 A 
ATOM      6 CL   UNL     1      -0.082  10.558  19.794  0.00  0.00    +0.000 Cl
ATOM      7  C   UNL     1       1.531   9.332  18.012  0.00  0.00    +0.000 A 
ATOM      8  C   UNL     1       2.435   8.333  17.619  0.00  0.00    +0.000 A 
ENDBRANCH   1   2
BRANCH   1   9
ATOM      9  O   UNL     1       3.162   5.192  17.160  0.00  0.00    +0.000 OA
BRANCH   9  11
ATOM     10  O   UNL     1       1.126   4.191  17.274  0.00  0.00    +0.000 OA
ATOM     11  C   UNL     1       2.260   4.327  17.714  0.00  0.00    +0.000 C 
BRANCH  11  12
ATOM     12  C   UNL     1       2.744   3.550  18.924  0.00  0.00    +0.000 A 
ATOM     13  C   UNL     1       3.957   2.823  18.787  0.00  0.00    +0.000 A 
ATOM     14  C   UNL     1       4.507   2.082  19.851  0.00  0.00    +0.000 A 
ATOM     15  C   UNL     1       3.864   2.049  21.079  0.00  0.00    +0.000 A 
ATOM     16  C   UNL     1       2.676   2.762  21.241  0.00  0.00    +0.000 A 
ATOM     17  C   UNL     1       2.120   3.507  20.181  0.00  0.00    +0.000 A 
ATOM     18 CL   UNL     1       0.682   4.356  20.592  0.00  0.00    +0.000 Cl
ENDBRANCH  11  12
ENDBRANCH   9  11
ENDBRANCH   1   9
BRANCH   1  19
ATOM     19  C   UNL     1       5.068   6.814  17.376  0.00  0.00    +0.000 C 
BRANCH  19  20
ATOM     20  N   UNL     1       5.956   5.850  16.767  0.00  0.00    +0.000 N 
ATOM     21  C   UNL     1       5.945   5.428  15.468  0.00  0.00    +0.000 A 
ATOM     22  C   UNL     1       7.037   4.598  15.359  0.00  0.00    +0.000 A 
ATOM     23  N   UNL     1       7.705   4.512  16.553  0.00  0.00    +0.000 NA
ATOM     24  C   UNL     1       7.039   5.285  17.379  0.00  0.00    +0.000 A 
ENDBRANCH  19  20
ENDBRANCH   1  19
TORSDOF 6
ENDMDL
