MODEL 1
REMARK VINA RESULT:      -7.4      0.000      0.000
REMARK  Name = 
REMARK  5 active torsions:
REMARK  status: ('A' for Active; 'I' for Inactive)
REMARK    1  A    between atoms: C_1  and  C_2
REMARK    2  A    between atoms: C_4  and  N_5
REMARK    3  A    between atoms: N_11  and  C_12
REMARK    4  A    between atoms: C_14  and  C_15
REMARK    5  A    between atoms: N_16  and  C_17
REMARK                            x       y       z     vdW  Elec       q    Type
REMARK                         _______ _______ _______ _____ _____    ______ ____
ROOT
ATOM      1  N   UNL     1       4.932   3.699  17.248  0.00  0.00    +0.000 N 
ATOM      2  C   UNL     1       4.383   4.567  18.237  0.00  0.00    +0.000 C 
ATOM      3  O   UNL     1       4.650   5.756  18.251  0.00  0.00    +0.000 OA
ATOM      4  N   UNL     1       3.497   3.944  19.087  0.00  0.00    +0.000 N 
ATOM      5  C   UNL     1       2.725   4.804  19.997  0.00  0.00    +0.000 C 
ATOM      6  C   UNL     1       1.255   4.349  20.099  0.00  0.00    +0.000 C 
ATOM      7  N   UNL     1       1.070   2.917  20.391  0.00  0.00    +0.000 NA
ATOM      8  C   UNL     1       1.218   2.612  21.808  0.00  0.00    +0.000 C 
ATOM      9  C   UNL     1       1.906   2.086  19.519  0.00  0.00    +0.000 C 
ATOM     10  C   UNL     1       3.392   2.500  19.371  0.00  0.00    +0.000 C 
ATOM     11  C   UNL     1       4.275   2.109  20.561  0.00  0.00    +0.000 C 
ATOM     12  H   UNL     1       4.634   2.747  17.214  0.00  0.00    +0.000 HD
ENDROOT
BRANCH   1  16
ATOM     13  C   UNL     1       7.036   4.834  12.856  0.00  0.00    +0.000 C 
ATOM     14  C   UNL     1       6.751   4.616  14.294  0.00  0.00    +0.000 A 
ATOM     15  C   UNL     1       5.545   4.174  14.879  0.00  0.00    +0.000 A 
ATOM     16  C   UNL     1       5.789   4.109  16.232  0.00  0.00    +0.000 A 
ATOM     17  N   UNL     1       7.098   4.521  16.379  0.00  0.00    +0.000 N 
ATOM     18  C   UNL     1       7.870   4.643  17.590  0.00  0.00    +0.000 C 
ATOM     19  N   UNL     1       7.695   4.832  15.217  0.00  0.00    +0.000 NA
ENDBRANCH   1  16
TORSDOF 1
ENDMDL
MODEL 2
REMARK VINA RESULT:      -6.3      1.407      2.069
REMARK  Name = 
REMARK  5 active torsions:
REMARK  status: ('A' for Active; 'I' for Inactive)
REMARK    1  A    between atoms: C_1  and  C_2
REMARK    2  A    between atoms: C_4  and  N_5
REMARK    3  A    between atoms: N_11  and  C_12
REMARK    4  A    between atoms: C_14  and  C_15
REMARK    5  A    between atoms: N_16  and  C_17
REMARK                            x       y       z     vdW  Elec       q    Type
REMARK                         _______ _______ _______ _____ _____    ______ ____
ROOT
ATOM      1  N   UNL     1       4.746   4.610  16.739  0.00  0.00    +0.000 N 
ATOM      2  C   UNL     1       4.463   3.346  17.334  0.00  0.00    +0.000 C 
ATOM      3  O   UNL     1       5.020   2.331  16.954  0.00  0.00    +0.000 OA
ATOM      4  N   UNL     1       3.583   3.418  18.391  0.00  0.00    +0.000 N 
ATOM      5  C   UNL     1       3.401   2.200  19.196  0.00  0.00    +0.000 C 
ATOM      6  C   UNL     1       3.337   2.519  20.703  0.00  0.00    +0.000 C 
ATOM      7  N   UNL     1       2.383   3.579  21.071  0.00  0.00    +0.000 NA
ATOM      8  C   UNL     1       1.013   3.092  21.159  0.00  0.00    +0.000 C 
ATOM      9  C   UNL     1       2.537   4.753  20.206  0.00  0.00    +0.000 C 
ATOM     10  C   UNL     1       2.615   4.494  18.680  0.00  0.00    +0.000 C 
ATOM     11  C   UNL     1       1.263   4.207  18.021  0.00  0.00    +0.000 C 
ATOM     12  H   UNL     1       4.333   5.434  17.123  0.00  0.00    +0.000 HD
ENDROOT
BRANCH   1  16
ATOM     13  C   UNL     1       7.246   4.529  12.410  0.00  0.00    +0.000 C 
ATOM     14  C   UNL     1       6.794   4.783  13.798  0.00  0.00    +0.000 A 
ATOM     15  C   UNL     1       5.610   4.328  14.419  0.00  0.00    +0.000 A 
ATOM     16  C   UNL     1       5.659   4.806  15.709  0.00  0.00    +0.000 A 
ATOM     17  N   UNL     1       6.839   5.518  15.781  0.00  0.00    +0.000 N 
ATOM     18  C   UNL     1       7.390   6.230  16.907  0.00  0.00    +0.000 C 
ATOM     19  N   UNL     1       7.538   5.516  14.634  0.00  0.00    +0.000 NA
ENDBRANCH   1  16
TORSDOF 1
ENDMDL
MODEL 3
REMARK VINA RESULT:      -6.2      1.270      1.592
REMARK  Name = 
REMARK  5 active torsions:
REMARK  status: ('A' for Active; 'I' for Inactive)
REMARK    1  A    between atoms: C_1  and  C_2
REMARK    2  A    between atoms: C_4  and  N_5
REMARK    3  A    between atoms: N_11  and  C_12
REMARK    4  A    between atoms: C_14  and  C_15
REMARK    5  A    between atoms: N_16  and  C_17
REMARK                            x       y       z     vdW  Elec       q    Type
REMARK                         _______ _______ _______ _____ _____    ______ ____
ROOT
ATOM      1  N   UNL     1       4.657   4.307  16.473  0.00  0.00    +0.000 N 
ATOM      2  C   UNL     1       4.925   3.923  17.819  0.00  0.00    +0.000 C 
ATOM      3  O   UNL     1       6.068   3.822  18.231  0.00  0.00    +0.000 OA
ATOM      4  N   UNL     1       3.791   3.761  18.583  0.00  0.00    +0.000 N 
ATOM      5  C   UNL     1       3.979   3.576  20.030  0.00  0.00    +0.000 C 
ATOM      6  C   UNL     1       2.939   4.372  20.845  0.00  0.00    +0.000 C 
ATOM      7  N   UNL     1       1.540   4.166  20.432  0.00  0.00    +0.000 NA
ATOM      8  C   UNL     1       0.970   2.943  20.981  0.00  0.00    +0.000 C 
ATOM      9  C   UNL     1       1.395   4.284  18.977  0.00  0.00    +0.000 C 
ATOM     10  C   UNL     1       2.417   3.511  18.106  0.00  0.00    +0.000 C 
ATOM     11  C   UNL     1       2.139   2.009  17.995  0.00  0.00    +0.000 C 
ATOM     12  H   UNL     1       3.712   4.457  16.186  0.00  0.00    +0.000 HD
ENDROOT
BRANCH   1  16
ATOM     13  C   UNL     1       7.567   4.483  12.411  0.00  0.00    +0.000 C 
ATOM     14  C   UNL     1       6.950   4.698  13.741  0.00  0.00    +0.000 A 
ATOM     15  C   UNL     1       5.777   4.104  14.255  0.00  0.00    +0.000 A 
ATOM     16  C   UNL     1       5.637   4.603  15.531  0.00  0.00    +0.000 A 
ATOM     17  N   UNL     1       6.705   5.460  15.699  0.00  0.00    +0.000 N 
ATOM     18  C   UNL     1       7.048   6.252  16.853  0.00  0.00    +0.000 C 
ATOM     19  N   UNL     1       7.510   5.530  14.626  0.00  0.00    +0.000 NA
ENDBRANCH   1  16
TORSDOF 1
ENDMDL
MODEL 4
REMARK VINA RESULT:      -6.1      1.285      1.733
REMARK  Name = 
REMARK  5 active torsions:
REMARK  status: ('A' for Active; 'I' for Inactive)
REMARK    1  A    between atoms: C_1  and  C_2
REMARK    2  A    between atoms: C_4  and  N_5
REMARK    3  A    between atoms: N_11  and  C_12
REMARK    4  A    between atoms: C_14  and  C_15
REMARK    5  A    between atoms: N_16  and  C_17
REMARK                            x       y       z     vdW  Elec       q    Type
REMARK                         _______ _______ _______ _____ _____    ______ ____
ROOT
ATOM      1  N   UNL     1       5.059   4.237  17.208  0.00  0.00    +0.000 N 
ATOM      2  C   UNL     1       3.677   3.895  17.157  0.00  0.00    +0.000 C 
ATOM      3  O   UNL     1       3.078   3.844  16.096  0.00  0.00    +0.000 OA
ATOM      4  N   UNL     1       3.142   3.571  18.384  0.00  0.00    +0.000 N 
ATOM      5  C   UNL     1       1.786   3.002  18.394  0.00  0.00    +0.000 C 
ATOM      6  C   UNL     1       1.666   1.836  19.398  0.00  0.00    +0.000 C 
ATOM      7  N   UNL     1       2.157   2.135  20.754  0.00  0.00    +0.000 NA
ATOM      8  C   UNL     1       1.183   2.867  21.553  0.00  0.00    +0.000 C 
ATOM      9  C   UNL     1       3.479   2.769  20.710  0.00  0.00    +0.000 C 
ATOM     10  C   UNL     1       3.662   3.942  19.714  0.00  0.00    +0.000 C 
ATOM     11  C   UNL     1       3.061   5.268  20.189  0.00  0.00    +0.000 C 
ATOM     12  H   UNL     1       5.541   4.196  18.083  0.00  0.00    +0.000 HD
ENDROOT
BRANCH   1  16
ATOM     13  C   UNL     1       7.222   4.300  12.701  0.00  0.00    +0.000 C 
ATOM     14  C   UNL     1       6.821   4.575  14.101  0.00  0.00    +0.000 A 
ATOM     15  C   UNL     1       5.806   3.940  14.849  0.00  0.00    +0.000 A 
ATOM     16  C   UNL     1       5.839   4.528  16.093  0.00  0.00    +0.000 A 
ATOM     17  N   UNL     1       6.843   5.471  16.017  0.00  0.00    +0.000 N 
ATOM     18  C   UNL     1       7.304   6.376  17.039  0.00  0.00    +0.000 C 
ATOM     19  N   UNL     1       7.447   5.514  14.818  0.00  0.00    +0.000 NA
ENDBRANCH   1  16
TORSDOF 1
ENDMDL
MODEL 5
REMARK VINA RESULT:      -5.8      4.794      7.486
REMARK  Name = 
REMARK  5 active torsions:
REMARK  status: ('A' for Active; 'I' for Inactive)
REMARK    1  A    between atoms: C_1  and  C_2
REMARK    2  A    between atoms: C_4  and  N_5
REMARK    3  A    between atoms: N_11  and  C_12
REMARK    4  A    between atoms: C_14  and  C_15
REMARK    5  A    between atoms: N_16  and  C_17
REMARK                            x       y       z     vdW  Elec       q    Type
REMARK                         _______ _______ _______ _____ _____    ______ ____
ROOT
ATOM      1  N   UNL     1       1.624   8.292  19.462  0.00  0.00    +0.000 N 
ATOM      2  C   UNL     1       2.371   8.245  18.249  0.00  0.00    +0.000 C 
ATOM      3  O   UNL     1       2.335   9.165  17.449  0.00  0.00    +0.000 OA
ATOM      4  N   UNL     1       3.162   7.124  18.131  0.00  0.00    +0.000 N 
ATOM      5  C   UNL     1       4.123   7.097  17.018  0.00  0.00    +0.000 C 
ATOM      6  C   UNL     1       5.484   6.518  17.456  0.00  0.00    +0.000 C 
ATOM      7  N   UNL     1       5.408   5.226  18.161  0.00  0.00    +0.000 NA
ATOM      8  C   UNL     1       5.270   4.099  17.250  0.00  0.00    +0.000 C 
ATOM      9  C   UNL     1       4.390   5.259  19.217  0.00  0.00    +0.000 C 
ATOM     10  C   UNL     1       3.004   5.838  18.837  0.00  0.00    +0.000 C 
ATOM     11  C   UNL     1       2.119   4.877  18.037  0.00  0.00    +0.000 C 
ATOM     12  H   UNL     1       1.734   7.560  20.132  0.00  0.00    +0.000 HD
ENDROOT
BRANCH   1  16
ATOM     13  C   UNL     1      -1.450  12.234  19.580  0.00  0.00    +0.000 C 
ATOM     14  C   UNL     1      -0.546  11.112  19.926  0.00  0.00    +0.000 A 
ATOM     15  C   UNL     1       0.045  10.177  19.049  0.00  0.00    +0.000 A 
ATOM     16  C   UNL     1       0.813   9.356  19.844  0.00  0.00    +0.000 A 
ATOM     17  N   UNL     1       0.631   9.829  21.128  0.00  0.00    +0.000 N 
ATOM     18  C   UNL     1       1.204   9.337  22.356  0.00  0.00    +0.000 C 
ATOM     19  N   UNL     1      -0.189  10.890  21.196  0.00  0.00    +0.000 NA
ENDBRANCH   1  16
TORSDOF 1
ENDMDL
MODEL 6
REMARK VINA RESULT:      -5.7      4.163      6.404
REMARK  Name = 
REMARK  5 active torsions:
REMARK  status: ('A' for Active; 'I' for Inactive)
REMARK    1  A    between atoms: C_1  and  C_2
REMARK    2  A    between atoms: C_4  and  N_5
REMARK    3  A    between atoms: N_11  and  C_12
REMARK    4  A    between atoms: C_14  and  C_15
REMARK    5  A    between atoms: N_16  and  C_17
REMARK                            x       y       z     vdW  Elec       q    Type
REMARK                         _______ _______ _______ _____ _____    ______ ____
ROOT
ATOM      1  N   UNL     1       1.835   7.489  19.320  0.00  0.00    +0.000 N 
ATOM      2  C   UNL     1       2.872   7.026  18.458  0.00  0.00    +0.000 C 
ATOM      3  O   UNL     1       3.525   7.804  17.783  0.00  0.00    +0.000 OA
ATOM      4  N   UNL     1       3.088   5.668  18.533  0.00  0.00    +0.000 N 
ATOM      5  C   UNL     1       4.274   5.139  17.843  0.00  0.00    +0.000 C 
ATOM      6  C   UNL     1       4.994   4.069  18.689  0.00  0.00    +0.000 C 
ATOM      7  N   UNL     1       4.122   2.998  19.203  0.00  0.00    +0.000 NA
ATOM      8  C   UNL     1       3.853   1.970  18.207  0.00  0.00    +0.000 C 
ATOM      9  C   UNL     1       2.912   3.551  19.820  0.00  0.00    +0.000 C 
ATOM     10  C   UNL     1       2.150   4.638  19.020  0.00  0.00    +0.000 C 
ATOM     11  C   UNL     1       1.294   4.090  17.874  0.00  0.00    +0.000 C 
ATOM     12  H   UNL     1       1.370   6.838  19.918  0.00  0.00    +0.000 HD
ENDROOT
BRANCH   1  16
ATOM     13  C   UNL     1       0.779  12.328  18.633  0.00  0.00    +0.000 C 
ATOM     14  C   UNL     1       1.014  10.980  19.202  0.00  0.00    +0.000 A 
ATOM     15  C   UNL     1       1.348   9.795  18.510  0.00  0.00    +0.000 A 
ATOM     16  C   UNL     1       1.483   8.825  19.478  0.00  0.00    +0.000 A 
ATOM     17  N   UNL     1       1.214   9.468  20.669  0.00  0.00    +0.000 N 
ATOM     18  C   UNL     1       1.213   8.923  22.003  0.00  0.00    +0.000 C 
ATOM     19  N   UNL     1       0.927  10.772  20.521  0.00  0.00    +0.000 NA
ENDBRANCH   1  16
TORSDOF 1
ENDMDL
MODEL 7
REMARK VINA RESULT:      -5.7      2.176      2.933
REMARK  Name = 
REMARK  5 active torsions:
REMARK  status: ('A' for Active; 'I' for Inactive)
REMARK    1  A    between atoms: C_1  and  C_2
REMARK    2  A    between atoms: C_4  and  N_5
REMARK    3  A    between atoms: N_11  and  C_12
REMARK    4  A    between atoms: C_14  and  C_15
REMARK    5  A    between atoms: N_16  and  C_17
REMARK                            x       y       z     vdW  Elec       q    Type
REMARK                         _______ _______ _______ _____ _____    ______ ____
ROOT
ATOM      1  N   UNL     1       4.960   5.472  17.850  0.00  0.00    +0.000 N 
ATOM      2  C   UNL     1       4.962   4.399  18.788  0.00  0.00    +0.000 C 
ATOM      3  O   UNL     1       5.967   4.108  19.413  0.00  0.00    +0.000 OA
ATOM      4  N   UNL     1       3.729   3.807  18.953  0.00  0.00    +0.000 N 
ATOM      5  C   UNL     1       3.592   2.839  20.052  0.00  0.00    +0.000 C 
ATOM      6  C   UNL     1       2.252   3.010  20.796  0.00  0.00    +0.000 C 
ATOM      7  N   UNL     1       1.062   3.043  19.928  0.00  0.00    +0.000 NA
ATOM      8  C   UNL     1       0.623   1.712  19.531  0.00  0.00    +0.000 C 
ATOM      9  C   UNL     1       1.255   3.960  18.800  0.00  0.00    +0.000 C 
ATOM     10  C   UNL     1       2.587   3.841  18.019  0.00  0.00    +0.000 C 
ATOM     11  C   UNL     1       2.640   2.660  17.044  0.00  0.00    +0.000 C 
ATOM     12  H   UNL     1       4.102   5.736  17.412  0.00  0.00    +0.000 HD
ENDROOT
BRANCH   1  16
ATOM     13  C   UNL     1       8.362   9.131  17.668  0.00  0.00    +0.000 C 
ATOM     14  C   UNL     1       7.587   7.885  17.464  0.00  0.00    +0.000 A 
ATOM     15  C   UNL     1       6.404   7.485  18.123  0.00  0.00    +0.000 A 
ATOM     16  C   UNL     1       6.063   6.271  17.570  0.00  0.00    +0.000 A 
ATOM     17  N   UNL     1       7.049   6.012  16.639  0.00  0.00    +0.000 N 
ATOM     18  C   UNL     1       7.184   4.872  15.768  0.00  0.00    +0.000 C 
ATOM     19  N   UNL     1       7.980   6.978  16.563  0.00  0.00    +0.000 NA
ENDBRANCH   1  16
TORSDOF 1
ENDMDL
MODEL 8
REMARK VINA RESULT:      -5.6      5.211      7.491
REMARK  Name = 
REMARK  5 active torsions:
REMARK  status: ('A' for Active; 'I' for Inactive)
REMARK    1  A    between atoms: C_1  and  C_2
REMARK    2  A    between atoms: C_4  and  N_5
REMARK    3  A    between atoms: N_11  and  C_12
REMARK    4  A    between atoms: C_14  and  C_15
REMARK    5  A    between atoms: N_16  and  C_17
REMARK                            x       y       z     vdW  Elec       q    Type
REMARK                         _______ _______ _______ _____ _____    ______ ____
ROOT
ATOM      1  N   UNL     1       1.943   7.575  19.545  0.00  0.00    +0.000 N 
ATOM      2  C   UNL     1       1.332   8.476  20.465  0.00  0.00    +0.000 C 
ATOM      3  O   UNL     1       1.085   8.139  21.610  0.00  0.00    +0.000 OA
ATOM      4  N   UNL     1       1.133   9.739  19.951  0.00  0.00    +0.000 N 
ATOM      5  C   UNL     1       0.709  10.786  20.894  0.00  0.00    +0.000 C 
ATOM      6  C   UNL     1       1.439  12.118  20.629  0.00  0.00    +0.000 C 
ATOM      7  N   UNL     1       1.402  12.577  19.230  0.00  0.00    +0.000 NA
ATOM      8  C   UNL     1       0.152  13.244  18.893  0.00  0.00    +0.000 C 
ATOM      9  C   UNL     1       1.759  11.493  18.308  0.00  0.00    +0.000 C 
ATOM     10  C   UNL     1       1.062  10.127  18.530  0.00  0.00    +0.000 C 
ATOM     11  C   UNL     1      -0.380  10.066  18.016  0.00  0.00    +0.000 C 
ATOM     12  H   UNL     1       2.203   7.904  18.639  0.00  0.00    +0.000 HD
ENDROOT
BRANCH   1  16
ATOM     13  C   UNL     1       2.307   2.977  21.475  0.00  0.00    +0.000 C 
ATOM     14  C   UNL     1       2.501   4.223  20.697  0.00  0.00    +0.000 A 
ATOM     15  C   UNL     1       1.713   5.394  20.730  0.00  0.00    +0.000 A 
ATOM     16  C   UNL     1       2.312   6.270  19.853  0.00  0.00    +0.000 A 
ATOM     17  N   UNL     1       3.395   5.582  19.344  0.00  0.00    +0.000 N 
ATOM     18  C   UNL     1       4.371   6.028  18.382  0.00  0.00    +0.000 C 
ATOM     19  N   UNL     1       3.524   4.341  19.843  0.00  0.00    +0.000 NA
ENDBRANCH   1  16
TORSDOF 1
ENDMDL
MODEL 9
REMARK VINA RESULT:      -5.6      3.605      7.068
REMARK  Name = 
REMARK  5 active torsions:
REMARK  status: ('A' for Active; 'I' for Inactive)
REMARK    1  A    between atoms: C_1  and  C_2
REMARK    2  A    between atoms: C_4  and  N_5
REMARK    3  A    between atoms: N_11  and  C_12
REMARK    4  A    between atoms: C_14  and  C_15
REMARK    5  A    between atoms: N_16  and  C_17
REMARK                            x       y       z     vdW  Elec       q    Type
REMARK                         _______ _______ _______ _____ _____    ______ ____
ROOT
ATOM      1  N   UNL     1       2.909   7.546  18.696  0.00  0.00    +0.000 N 
ATOM      2  C   UNL     1       3.383   6.216  18.891  0.00  0.00    +0.000 C 
ATOM      3  O   UNL     1       2.963   5.524  19.803  0.00  0.00    +0.000 OA
ATOM      4  N   UNL     1       4.272   5.800  17.925  0.00  0.00    +0.000 N 
ATOM      5  C   UNL     1       4.644   4.376  17.926  0.00  0.00    +0.000 C 
ATOM      6  C   UNL     1       4.703   3.803  16.495  0.00  0.00    +0.000 C 
ATOM      7  N   UNL     1       5.509   4.591  15.547  0.00  0.00    +0.000 NA
ATOM      8  C   UNL     1       6.936   4.323  15.667  0.00  0.00    +0.000 C 
ATOM      9  C   UNL     1       5.169   6.016  15.619  0.00  0.00    +0.000 C 
ATOM     10  C   UNL     1       5.087   6.646  17.032  0.00  0.00    +0.000 C 
ATOM     11  C   UNL     1       6.448   6.957  17.662  0.00  0.00    +0.000 C 
ATOM     12  H   UNL     1       3.213   8.061  17.896  0.00  0.00    +0.000 HD
ENDROOT
BRANCH   1  16
ATOM     13  C   UNL     1      -0.252   8.813  22.356  0.00  0.00    +0.000 C 
ATOM     14  C   UNL     1       0.532   8.746  21.101  0.00  0.00    +0.000 A 
ATOM     15  C   UNL     1       1.554   7.830  20.768  0.00  0.00    +0.000 A 
ATOM     16  C   UNL     1       1.951   8.163  19.493  0.00  0.00    +0.000 A 
ATOM     17  N   UNL     1       1.168   9.246  19.146  0.00  0.00    +0.000 N 
ATOM     18  C   UNL     1       1.166   9.995  17.915  0.00  0.00    +0.000 C 
ATOM     19  N   UNL     1       0.305   9.612  20.108  0.00  0.00    +0.000 NA
ENDBRANCH   1  16
TORSDOF 1
ENDMDL
