MODEL 1
REMARK VINA RESULT:      -6.7      0.000      0.000
REMARK  Name = 
REMARK  5 active torsions:
REMARK  status: ('A' for Active; 'I' for Inactive)
REMARK    1  A    between atoms: C_1  and  C_2
REMARK    2  A    between atoms: C_5  and  C_6
REMARK    3  A    between atoms: C_6  and  N_7
REMARK    4  A    between atoms: C_11  and  N_12
REMARK    5  A    between atoms: N_12  and  C_13
REMARK                            x       y       z     vdW  Elec       q    Type
REMARK                         _______ _______ _______ _____ _____    ______ ____
ROOT
ATOM      1  N   UNL     1       2.968   4.664  18.697  0.00  0.00    +0.000 N 
ATOM      2  N   UNL     1       1.655   4.307  18.661  0.00  0.00    +0.000 NA
ATOM      3  C   UNL     1       1.666   3.145  18.004  0.00  0.00    +0.000 A 
ATOM      4  C   UNL     1       2.957   2.769  17.595  0.00  0.00    +0.000 A 
ATOM      5  C   UNL     1       3.782   3.793  17.990  0.00  0.00    +0.000 A 
ENDROOT
BRANCH   5   6
ATOM      6  N   UNL     1       5.117   4.006  17.806  0.00  0.00    +0.000 N 
ATOM      7  H   UNL     1       5.707   4.291  18.587  0.00  0.00    +0.000 HD
BRANCH   6   8
ATOM      8  C   UNL     1       5.666   4.468  16.514  0.00  0.00    +0.000 C 
ATOM      9  C   UNL     1       5.248   5.908  16.174  0.00  0.00    +0.000 C 
ATOM     10  C   UNL     1       5.887   6.927  17.115  0.00  0.00    +0.000 C 
ATOM     11  C   UNL     1       7.392   6.721  17.187  0.00  0.00    +0.000 C 
ATOM     12  O   UNL     1       7.709   5.376  17.550  0.00  0.00    +0.000 OA
ATOM     13  C   UNL     1       7.208   4.422  16.598  0.00  0.00    +0.000 C 
ENDBRANCH   6   8
ENDBRANCH   5   6
BRANCH   1  14
ATOM     14  C   UNL     1       3.366   5.793  19.527  0.00  0.00    +0.000 C 
BRANCH  14  19
ATOM     15  C   UNL     1       0.376  10.210  19.776  0.00  0.00    +0.000 C 
ATOM     16  C   UNL     1       1.227   9.087  19.301  0.00  0.00    +0.000 A 
ATOM     17  C   UNL     1       1.736   8.878  18.036  0.00  0.00    +0.000 A 
ATOM     18  C   UNL     1       2.529   7.692  17.962  0.00  0.00    +0.000 A 
ATOM     19  C   UNL     1       2.622   7.047  19.178  0.00  0.00    +0.000 A 
ATOM     20  S   UNL     1       1.698   7.848  20.381  0.00  0.00    +0.000 S 
ENDBRANCH  14  19
ENDBRANCH   1  14
TORSDOF 4
ENDMDL
MODEL 2
REMARK VINA RESULT:      -6.4      1.055      1.315
REMARK  Name = 
REMARK  5 active torsions:
REMARK  status: ('A' for Active; 'I' for Inactive)
REMARK    1  A    between atoms: C_1  and  C_2
REMARK    2  A    between atoms: C_5  and  C_6
REMARK    3  A    between atoms: C_6  and  N_7
REMARK    4  A    between atoms: C_11  and  N_12
REMARK    5  A    between atoms: N_12  and  C_13
REMARK                            x       y       z     vdW  Elec       q    Type
REMARK                         _______ _______ _______ _____ _____    ______ ____
ROOT
ATOM      1  N   UNL     1       2.182   4.692  19.308  0.00  0.00    +0.000 N 
ATOM      2  N   UNL     1       1.168   4.123  20.014  0.00  0.00    +0.000 NA
ATOM      3  C   UNL     1       0.903   3.005  19.334  0.00  0.00    +0.000 A 
ATOM      4  C   UNL     1       1.710   2.867  18.192  0.00  0.00    +0.000 A 
ATOM      5  C   UNL     1       2.486   3.998  18.148  0.00  0.00    +0.000 A 
ENDROOT
BRANCH   5   6
ATOM      6  N   UNL     1       3.401   4.438  17.235  0.00  0.00    +0.000 N 
ATOM      7  H   UNL     1       3.094   4.878  16.368  0.00  0.00    +0.000 HD
BRANCH   6   8
ATOM      8  C   UNL     1       4.725   3.801  17.083  0.00  0.00    +0.000 C 
ATOM      9  C   UNL     1       5.364   4.085  15.714  0.00  0.00    +0.000 C 
ATOM     10  C   UNL     1       5.754   5.553  15.557  0.00  0.00    +0.000 C 
ATOM     11  C   UNL     1       6.594   6.013  16.739  0.00  0.00    +0.000 C 
ATOM     12  O   UNL     1       5.924   5.760  17.974  0.00  0.00    +0.000 OA
ATOM     13  C   UNL     1       5.661   4.361  18.176  0.00  0.00    +0.000 C 
ENDBRANCH   6   8
ENDBRANCH   5   6
BRANCH   1  14
ATOM     14  C   UNL     1       2.877   5.839  19.879  0.00  0.00    +0.000 C 
BRANCH  14  19
ATOM     15  C   UNL     1       0.458  10.595  19.690  0.00  0.00    +0.000 C 
ATOM     16  C   UNL     1       1.174   9.342  19.331  0.00  0.00    +0.000 A 
ATOM     17  C   UNL     1       1.681   8.971  18.102  0.00  0.00    +0.000 A 
ATOM     18  C   UNL     1       2.321   7.694  18.146  0.00  0.00    +0.000 A 
ATOM     19  C   UNL     1       2.305   7.143  19.410  0.00  0.00    +0.000 A 
ATOM     20  S   UNL     1       1.460   8.145  20.517  0.00  0.00    +0.000 S 
ENDBRANCH  14  19
ENDBRANCH   1  14
TORSDOF 4
ENDMDL
MODEL 3
REMARK VINA RESULT:      -6.4      0.846      1.091
REMARK  Name = 
REMARK  5 active torsions:
REMARK  status: ('A' for Active; 'I' for Inactive)
REMARK    1  A    between atoms: C_1  and  C_2
REMARK    2  A    between atoms: C_5  and  C_6
REMARK    3  A    between atoms: C_6  and  N_7
REMARK    4  A    between atoms: C_11  and  N_12
REMARK    5  A    between atoms: N_12  and  C_13
REMARK                            x       y       z     vdW  Elec       q    Type
REMARK                         _______ _______ _______ _____ _____    ______ ____
ROOT
ATOM      1  N   UNL     1       2.935   4.600  18.743  0.00  0.00    +0.000 N 
ATOM      2  N   UNL     1       1.606   4.312  18.802  0.00  0.00    +0.000 NA
ATOM      3  C   UNL     1       1.493   3.207  18.061  0.00  0.00    +0.000 A 
ATOM      4  C   UNL     1       2.719   2.803  17.507  0.00  0.00    +0.000 A 
ATOM      5  C   UNL     1       3.632   3.751  17.899  0.00  0.00    +0.000 A 
ENDROOT
BRANCH   5   6
ATOM      6  N   UNL     1       4.956   3.913  17.608  0.00  0.00    +0.000 N 
ATOM      7  H   UNL     1       5.632   4.078  18.353  0.00  0.00    +0.000 HD
BRANCH   6   8
ATOM      8  C   UNL     1       5.412   4.485  16.324  0.00  0.00    +0.000 C 
ATOM      9  C   UNL     1       5.079   5.980  16.192  0.00  0.00    +0.000 C 
ATOM     10  C   UNL     1       5.885   6.835  17.166  0.00  0.00    +0.000 C 
ATOM     11  C   UNL     1       7.369   6.520  17.055  0.00  0.00    +0.000 C 
ATOM     12  O   UNL     1       7.611   5.123  17.231  0.00  0.00    +0.000 OA
ATOM     13  C   UNL     1       6.945   4.324  16.239  0.00  0.00    +0.000 C 
ENDBRANCH   6   8
ENDBRANCH   5   6
BRANCH   1  14
ATOM     14  C   UNL     1       3.467   5.637  19.616  0.00  0.00    +0.000 C 
BRANCH  14  19
ATOM     15  C   UNL     1       0.820  10.065  18.240  0.00  0.00    +0.000 C 
ATOM     16  C   UNL     1       1.386   8.917  18.997  0.00  0.00    +0.000 A 
ATOM     17  C   UNL     1       1.146   8.558  20.308  0.00  0.00    +0.000 A 
ATOM     18  C   UNL     1       1.860   7.379  20.684  0.00  0.00    +0.000 A 
ATOM     19  C   UNL     1       2.601   6.860  19.642  0.00  0.00    +0.000 A 
ATOM     20  S   UNL     1       2.476   7.841  18.240  0.00  0.00    +0.000 S 
ENDBRANCH  14  19
ENDBRANCH   1  14
TORSDOF 4
ENDMDL
MODEL 4
REMARK VINA RESULT:      -6.4      2.792      5.790
REMARK  Name = 
REMARK  5 active torsions:
REMARK  status: ('A' for Active; 'I' for Inactive)
REMARK    1  A    between atoms: C_1  and  C_2
REMARK    2  A    between atoms: C_5  and  C_6
REMARK    3  A    between atoms: C_6  and  N_7
REMARK    4  A    between atoms: C_11  and  N_12
REMARK    5  A    between atoms: N_12  and  C_13
REMARK                            x       y       z     vdW  Elec       q    Type
REMARK                         _______ _______ _______ _____ _____    ______ ____
ROOT
ATOM      1  N   UNL     1       3.792   6.269  18.674  0.00  0.00    +0.000 N 
ATOM      2  N   UNL     1       3.588   7.217  17.719  0.00  0.00    +0.000 NA
ATOM      3  C   UNL     1       2.533   7.896  18.174  0.00  0.00    +0.000 A 
ATOM      4  C   UNL     1       2.042   7.381  19.385  0.00  0.00    +0.000 A 
ATOM      5  C   UNL     1       2.822   6.286  19.664  0.00  0.00    +0.000 A 
ENDROOT
BRANCH   5   6
ATOM      6  N   UNL     1       2.767   5.363  20.668  0.00  0.00    +0.000 N 
ATOM      7  H   UNL     1       3.625   4.982  21.066  0.00  0.00    +0.000 HD
BRANCH   6   8
ATOM      8  C   UNL     1       1.637   4.420  20.804  0.00  0.00    +0.000 C 
ATOM      9  C   UNL     1       1.087   3.957  19.446  0.00  0.00    +0.000 C 
ATOM     10  C   UNL     1       2.081   3.076  18.693  0.00  0.00    +0.000 C 
ATOM     11  C   UNL     1       2.571   1.942  19.581  0.00  0.00    +0.000 C 
ATOM     12  O   UNL     1       3.109   2.444  20.805  0.00  0.00    +0.000 OA
ATOM     13  C   UNL     1       2.136   3.175  21.570  0.00  0.00    +0.000 C 
ENDBRANCH   6   8
ENDBRANCH   5   6
BRANCH   1  14
ATOM     14  C   UNL     1       5.004   5.463  18.616  0.00  0.00    +0.000 C 
BRANCH  14  19
ATOM     15  C   UNL     1       7.434   4.987  13.886  0.00  0.00    +0.000 C 
ATOM     16  C   UNL     1       6.484   4.857  15.023  0.00  0.00    +0.000 A 
ATOM     17  C   UNL     1       5.365   4.055  15.111  0.00  0.00    +0.000 A 
ATOM     18  C   UNL     1       4.705   4.186  16.372  0.00  0.00    +0.000 A 
ATOM     19  C   UNL     1       5.356   5.064  17.215  0.00  0.00    +0.000 A 
ATOM     20  S   UNL     1       6.721   5.767  16.450  0.00  0.00    +0.000 S 
ENDBRANCH  14  19
ENDBRANCH   1  14
TORSDOF 4
ENDMDL
MODEL 5
REMARK VINA RESULT:      -6.3      3.576      6.309
REMARK  Name = 
REMARK  5 active torsions:
REMARK  status: ('A' for Active; 'I' for Inactive)
REMARK    1  A    between atoms: C_1  and  C_2
REMARK    2  A    between atoms: C_5  and  C_6
REMARK    3  A    between atoms: C_6  and  N_7
REMARK    4  A    between atoms: C_11  and  N_12
REMARK    5  A    between atoms: N_12  and  C_13
REMARK                            x       y       z     vdW  Elec       q    Type
REMARK                         _______ _______ _______ _____ _____    ______ ____
ROOT
ATOM      1  N   UNL     1       6.224   6.039  17.175  0.00  0.00    +0.000 N 
ATOM      2  N   UNL     1       7.035   7.127  17.268  0.00  0.00    +0.000 NA
ATOM      3  C   UNL     1       7.870   6.810  18.261  0.00  0.00    +0.000 A 
ATOM      4  C   UNL     1       7.586   5.554  18.822  0.00  0.00    +0.000 A 
ATOM      5  C   UNL     1       6.476   5.094  18.157  0.00  0.00    +0.000 A 
ENDROOT
BRANCH   5   6
ATOM      6  N   UNL     1       5.721   3.969  18.319  0.00  0.00    +0.000 N 
ATOM      7  H   UNL     1       5.597   3.313  17.548  0.00  0.00    +0.000 HD
BRANCH   6   8
ATOM      8  C   UNL     1       4.583   3.918  19.262  0.00  0.00    +0.000 C 
ATOM      9  C   UNL     1       3.303   4.536  18.677  0.00  0.00    +0.000 C 
ATOM     10  C   UNL     1       2.736   3.702  17.531  0.00  0.00    +0.000 C 
ATOM     11  C   UNL     1       2.586   2.247  17.949  0.00  0.00    +0.000 C 
ATOM     12  O   UNL     1       3.821   1.725  18.440  0.00  0.00    +0.000 OA
ATOM     13  C   UNL     1       4.295   2.438  19.595  0.00  0.00    +0.000 C 
ENDBRANCH   6   8
ENDBRANCH   5   6
BRANCH   1  14
ATOM     14  C   UNL     1       5.309   5.940  16.046  0.00  0.00    +0.000 C 
BRANCH  14  19
ATOM     15  C   UNL     1       6.065   2.653  11.906  0.00  0.00    +0.000 C 
ATOM     16  C   UNL     1       6.255   3.667  12.978  0.00  0.00    +0.000 A 
ATOM     17  C   UNL     1       7.364   4.450  13.225  0.00  0.00    +0.000 A 
ATOM     18  C   UNL     1       7.170   5.324  14.338  0.00  0.00    +0.000 A 
ATOM     19  C   UNL     1       5.911   5.200  14.889  0.00  0.00    +0.000 A 
ATOM     20  S   UNL     1       5.000   3.982  14.095  0.00  0.00    +0.000 S 
ENDBRANCH  14  19
ENDBRANCH   1  14
TORSDOF 4
ENDMDL
MODEL 6
REMARK VINA RESULT:      -6.3      2.231      4.058
REMARK  Name = 
REMARK  5 active torsions:
REMARK  status: ('A' for Active; 'I' for Inactive)
REMARK    1  A    between atoms: C_1  and  C_2
REMARK    2  A    between atoms: C_5  and  C_6
REMARK    3  A    between atoms: C_6  and  N_7
REMARK    4  A    between atoms: C_11  and  N_12
REMARK    5  A    between atoms: N_12  and  C_13
REMARK                            x       y       z     vdW  Elec       q    Type
REMARK                         _______ _______ _______ _____ _____    ______ ____
ROOT
ATOM      1  N   UNL     1       3.998   5.480  18.453  0.00  0.00    +0.000 N 
ATOM      2  N   UNL     1       5.267   5.873  18.161  0.00  0.00    +0.000 NA
ATOM      3  C   UNL     1       5.534   5.242  17.015  0.00  0.00    +0.000 A 
ATOM      4  C   UNL     1       4.470   4.431  16.587  0.00  0.00    +0.000 A 
ATOM      5  C   UNL     1       3.508   4.540  17.560  0.00  0.00    +0.000 A 
ENDROOT
BRANCH   5   6
ATOM      6  N   UNL     1       2.296   3.929  17.713  0.00  0.00    +0.000 N 
ATOM      7  H   UNL     1       1.482   4.465  18.011  0.00  0.00    +0.000 HD
BRANCH   6   8
ATOM      8  C   UNL     1       2.178   2.505  18.091  0.00  0.00    +0.000 C 
ATOM      9  C   UNL     1       3.251   2.072  19.102  0.00  0.00    +0.000 C 
ATOM     10  C   UNL     1       3.052   2.727  20.467  0.00  0.00    +0.000 C 
ATOM     11  C   UNL     1       1.626   2.527  20.954  0.00  0.00    +0.000 C 
ATOM     12  O   UNL     1       0.683   2.991  19.987  0.00  0.00    +0.000 OA
ATOM     13  C   UNL     1       0.793   2.289  18.737  0.00  0.00    +0.000 C 
ENDBRANCH   6   8
ENDBRANCH   5   6
BRANCH   1  14
ATOM     14  C   UNL     1       3.291   6.141  19.541  0.00  0.00    +0.000 C 
BRANCH  14  19
ATOM     15  C   UNL     1       0.297  10.560  19.392  0.00  0.00    +0.000 C 
ATOM     16  C   UNL     1       1.178   9.418  19.026  0.00  0.00    +0.000 A 
ATOM     17  C   UNL     1       1.771   9.155  17.809  0.00  0.00    +0.000 A 
ATOM     18  C   UNL     1       2.566   7.968  17.841  0.00  0.00    +0.000 A 
ATOM     19  C   UNL     1       2.575   7.377  19.087  0.00  0.00    +0.000 A 
ATOM     20  S   UNL     1       1.571   8.229  20.188  0.00  0.00    +0.000 S 
ENDBRANCH  14  19
ENDBRANCH   1  14
TORSDOF 4
ENDMDL
MODEL 7
REMARK VINA RESULT:      -6.2      2.633      5.532
REMARK  Name = 
REMARK  5 active torsions:
REMARK  status: ('A' for Active; 'I' for Inactive)
REMARK    1  A    between atoms: C_1  and  C_2
REMARK    2  A    between atoms: C_5  and  C_6
REMARK    3  A    between atoms: C_6  and  N_7
REMARK    4  A    between atoms: C_11  and  N_12
REMARK    5  A    between atoms: N_12  and  C_13
REMARK                            x       y       z     vdW  Elec       q    Type
REMARK                         _______ _______ _______ _____ _____    ______ ____
ROOT
ATOM      1  N   UNL     1       2.745   6.705  18.433  0.00  0.00    +0.000 N 
ATOM      2  N   UNL     1       2.247   7.870  17.939  0.00  0.00    +0.000 NA
ATOM      3  C   UNL     1       1.742   8.476  19.016  0.00  0.00    +0.000 A 
ATOM      4  C   UNL     1       1.882   7.705  20.182  0.00  0.00    +0.000 A 
ATOM      5  C   UNL     1       2.471   6.531  19.780  0.00  0.00    +0.000 A 
ENDROOT
BRANCH   5   6
ATOM      6  N   UNL     1       2.786   5.392  20.463  0.00  0.00    +0.000 N 
ATOM      7  H   UNL     1       3.662   4.904  20.278  0.00  0.00    +0.000 HD
BRANCH   6   8
ATOM      8  C   UNL     1       1.748   4.472  20.973  0.00  0.00    +0.000 C 
ATOM      9  C   UNL     1       0.726   4.079  19.894  0.00  0.00    +0.000 C 
ATOM     10  C   UNL     1       1.347   3.206  18.806  0.00  0.00    +0.000 C 
ATOM     11  C   UNL     1       2.082   2.024  19.421  0.00  0.00    +0.000 C 
ATOM     12  O   UNL     1       3.045   2.462  20.380  0.00  0.00    +0.000 OA
ATOM     13  C   UNL     1       2.444   3.185  21.468  0.00  0.00    +0.000 C 
ENDBRANCH   6   8
ENDBRANCH   5   6
BRANCH   1  14
ATOM     14  C   UNL     1       3.566   5.870  17.567  0.00  0.00    +0.000 C 
BRANCH  14  19
ATOM     15  C   UNL     1       8.533   5.430  19.478  0.00  0.00    +0.000 C 
ATOM     16  C   UNL     1       7.328   5.855  18.716  0.00  0.00    +0.000 A 
ATOM     17  C   UNL     1       7.244   6.793  17.708  0.00  0.00    +0.000 A 
ATOM     18  C   UNL     1       5.915   6.921  17.200  0.00  0.00    +0.000 A 
ATOM     19  C   UNL     1       5.032   6.059  17.817  0.00  0.00    +0.000 A 
ATOM     20  S   UNL     1       5.808   5.150  19.048  0.00  0.00    +0.000 S 
ENDBRANCH  14  19
ENDBRANCH   1  14
TORSDOF 4
ENDMDL
MODEL 8
REMARK VINA RESULT:      -6.2      1.059      1.553
REMARK  Name = 
REMARK  5 active torsions:
REMARK  status: ('A' for Active; 'I' for Inactive)
REMARK    1  A    between atoms: C_1  and  C_2
REMARK    2  A    between atoms: C_5  and  C_6
REMARK    3  A    between atoms: C_6  and  N_7
REMARK    4  A    between atoms: C_11  and  N_12
REMARK    5  A    between atoms: N_12  and  C_13
REMARK                            x       y       z     vdW  Elec       q    Type
REMARK                         _______ _______ _______ _____ _____    ______ ____
ROOT
ATOM      1  N   UNL     1       2.533   4.525  19.234  0.00  0.00    +0.000 N 
ATOM      2  N   UNL     1       1.360   3.957  18.846  0.00  0.00    +0.000 NA
ATOM      3  C   UNL     1       1.746   2.867  18.179  0.00  0.00    +0.000 A 
ATOM      4  C   UNL     1       3.144   2.745  18.110  0.00  0.00    +0.000 A 
ATOM      5  C   UNL     1       3.643   3.860  18.738  0.00  0.00    +0.000 A 
ENDROOT
BRANCH   5   6
ATOM      6  N   UNL     1       4.920   4.307  18.915  0.00  0.00    +0.000 N 
ATOM      7  H   UNL     1       5.405   4.147  19.798  0.00  0.00    +0.000 HD
BRANCH   6   8
ATOM      8  C   UNL     1       5.433   5.508  18.222  0.00  0.00    +0.000 C 
ATOM      9  C   UNL     1       6.961   5.639  18.322  0.00  0.00    +0.000 C 
ATOM     10  C   UNL     1       7.684   4.548  17.535  0.00  0.00    +0.000 C 
ATOM     11  C   UNL     1       7.161   4.481  16.109  0.00  0.00    +0.000 C 
ATOM     12  O   UNL     1       5.742   4.314  16.090  0.00  0.00    +0.000 OA
ATOM     13  C   UNL     1       5.056   5.404  16.729  0.00  0.00    +0.000 C 
ENDBRANCH   6   8
ENDBRANCH   5   6
BRANCH   1  14
ATOM     14  C   UNL     1       2.497   5.637  20.174  0.00  0.00    +0.000 C 
BRANCH  14  19
ATOM     15  C   UNL     1       0.946  10.655  19.214  0.00  0.00    +0.000 C 
ATOM     16  C   UNL     1       1.446   9.262  19.067  0.00  0.00    +0.000 A 
ATOM     17  C   UNL     1       1.926   8.644  17.931  0.00  0.00    +0.000 A 
ATOM     18  C   UNL     1       2.333   7.297  18.181  0.00  0.00    +0.000 A 
ATOM     19  C   UNL     1       2.176   6.939  19.503  0.00  0.00    +0.000 A 
ATOM     20  S   UNL     1       1.478   8.214  20.416  0.00  0.00    +0.000 S 
ENDBRANCH  14  19
ENDBRANCH   1  14
TORSDOF 4
ENDMDL
MODEL 9
REMARK VINA RESULT:      -6.1      1.344      1.732
REMARK  Name = 
REMARK  5 active torsions:
REMARK  status: ('A' for Active; 'I' for Inactive)
REMARK    1  A    between atoms: C_1  and  C_2
REMARK    2  A    between atoms: C_5  and  C_6
REMARK    3  A    between atoms: C_6  and  N_7
REMARK    4  A    between atoms: C_11  and  N_12
REMARK    5  A    between atoms: N_12  and  C_13
REMARK                            x       y       z     vdW  Elec       q    Type
REMARK                         _______ _______ _______ _____ _____    ______ ____
ROOT
ATOM      1  N   UNL     1       2.183   4.607  19.460  0.00  0.00    +0.000 N 
ATOM      2  N   UNL     1       1.166   4.001  20.130  0.00  0.00    +0.000 NA
ATOM      3  C   UNL     1       0.863   2.955  19.357  0.00  0.00    +0.000 A 
ATOM      4  C   UNL     1       1.647   2.901  18.193  0.00  0.00    +0.000 A 
ATOM      5  C   UNL     1       2.451   4.013  18.237  0.00  0.00    +0.000 A 
ENDROOT
BRANCH   5   6
ATOM      6  N   UNL     1       3.362   4.512  17.351  0.00  0.00    +0.000 N 
ATOM      7  H   UNL     1       3.051   5.006  16.515  0.00  0.00    +0.000 HD
BRANCH   6   8
ATOM      8  C   UNL     1       4.686   3.887  17.153  0.00  0.00    +0.000 C 
ATOM      9  C   UNL     1       5.275   4.180  15.763  0.00  0.00    +0.000 C 
ATOM     10  C   UNL     1       5.647   5.651  15.596  0.00  0.00    +0.000 C 
ATOM     11  C   UNL     1       6.521   6.118  16.749  0.00  0.00    +0.000 C 
ATOM     12  O   UNL     1       5.896   5.857  18.006  0.00  0.00    +0.000 OA
ATOM     13  C   UNL     1       5.653   4.455  18.214  0.00  0.00    +0.000 C 
ENDBRANCH   6   8
ENDBRANCH   5   6
BRANCH   1  14
ATOM     14  C   UNL     1       2.916   5.680  20.119  0.00  0.00    +0.000 C 
BRANCH  14  19
ATOM     15  C   UNL     1       0.986  10.313  18.297  0.00  0.00    +0.000 C 
ATOM     16  C   UNL     1       1.333   9.150  19.157  0.00  0.00    +0.000 A 
ATOM     17  C   UNL     1       0.939   8.901  20.455  0.00  0.00    +0.000 A 
ATOM     18  C   UNL     1       1.460   7.667  20.950  0.00  0.00    +0.000 A 
ATOM     19  C   UNL     1       2.215   7.000  20.007  0.00  0.00    +0.000 A 
ATOM     20  S   UNL     1       2.336   7.905  18.554  0.00  0.00    +0.000 S 
ENDBRANCH  14  19
ENDBRANCH   1  14
TORSDOF 4
ENDMDL
