MODEL 1
REMARK VINA RESULT:      -7.9      0.000      0.000
REMARK  Name = 
REMARK  10 active torsions:
REMARK  status: ('A' for Active; 'I' for Inactive)
REMARK    1  A    between atoms: C_1  and  C_2
REMARK    2  A    between atoms: C_2  and  O_3
REMARK    3  A    between atoms: O_3  and  C_4
REMARK    4  A    between atoms: C_4  and  C_6
REMARK    5  A    between atoms: C_15  and  N_16
REMARK    6  A    between atoms: N_16  and  C_17
REMARK    7  A    between atoms: C_20  and  O_21
REMARK    8  A    between atoms: O_21  and  C_22
REMARK    9  A    between atoms: C_23  and  O_24
REMARK   10  A    between atoms: O_24  and  C_25
REMARK                            x       y       z     vdW  Elec       q    Type
REMARK                         _______ _______ _______ _____ _____    ______ ____
ROOT
ATOM      1  C   UNL     1       7.029   4.947  16.658  0.00  0.00    +0.000 A 
ATOM      2  N   UNL     1       7.633   5.405  15.519  0.00  0.00    +0.000 NA
ATOM      3  C   UNL     1       7.198   4.886  14.358  0.00  0.00    +0.000 A 
ATOM      4  C   UNL     1       7.750   5.320  13.160  0.00  0.00    +0.000 A 
ATOM      5  C   UNL     1       7.338   4.786  11.937  0.00  0.00    +0.000 A 
ATOM      6  C   UNL     1       6.357   3.803  11.914  0.00  0.00    +0.000 A 
ATOM      7  C   UNL     1       5.785   3.375  13.112  0.00  0.00    +0.000 A 
ATOM      8  C   UNL     1       6.185   3.904  14.334  0.00  0.00    +0.000 A 
ATOM      9  N   UNL     1       5.600   3.473  15.464  0.00  0.00    +0.000 NA
ATOM     10  C   UNL     1       6.004   3.993  16.652  0.00  0.00    +0.000 A 
ENDROOT
BRANCH   1  11
ATOM     11  C   UNL     1       7.487   5.545  17.940  0.00  0.00    +0.000 C 
ATOM     12  O   UNL     1       7.948   4.898  18.871  0.00  0.00    +0.000 OA
BRANCH  11  13
ATOM     13  O   UNL     1       7.248   6.880  17.924  0.00  0.00    +0.000 OA
BRANCH  13  15
ATOM     14  C   UNL     1       8.109   9.144  17.889  0.00  0.00    +0.000 C 
ATOM     15  C   UNL     1       8.271   7.742  18.442  0.00  0.00    +0.000 C 
ENDBRANCH  13  15
ENDBRANCH  11  13
ENDBRANCH   1  11
BRANCH  10  16
ATOM     16  N   UNL     1       5.301   3.617  17.820  0.00  0.00    +0.000 N 
ATOM     17  H   UNL     1       5.176   2.609  17.893  0.00  0.00    +0.000 HD
BRANCH  16  18
ATOM     18  C   UNL     1       4.344   4.406  18.491  0.00  0.00    +0.000 A 
ATOM     19  C   UNL     1       3.941   5.637  17.958  0.00  0.00    +0.000 A 
ATOM     20  C   UNL     1       2.935   6.388  18.563  0.00  0.00    +0.000 A 
ATOM     21  C   UNL     1       2.281   5.911  19.697  0.00  0.00    +0.000 A 
ATOM     22  C   UNL     1       2.683   4.691  20.267  0.00  0.00    +0.000 A 
ATOM     23  C   UNL     1       3.724   3.955  19.665  0.00  0.00    +0.000 A 
BRANCH  21  24
ATOM     24  O   UNL     1       1.298   6.747  20.161  0.00  0.00    +0.000 OA
ATOM     25  C   UNL     1       1.730   8.041  20.570  0.00  0.00    +0.000 C 
ENDBRANCH  21  24
BRANCH  22  26
ATOM     26  O   UNL     1       2.079   4.307  21.436  0.00  0.00    +0.000 OA
ATOM     27  C   UNL     1       2.163   2.927  21.771  0.00  0.00    +0.000 C 
ENDBRANCH  22  26
ENDBRANCH  16  18
ENDBRANCH  10  16
TORSDOF 7
ENDMDL
MODEL 2
REMARK VINA RESULT:      -7.8      1.465      2.148
REMARK  Name = 
REMARK  10 active torsions:
REMARK  status: ('A' for Active; 'I' for Inactive)
REMARK    1  A    between atoms: C_1  and  C_2
REMARK    2  A    between atoms: C_2  and  O_3
REMARK    3  A    between atoms: O_3  and  C_4
REMARK    4  A    between atoms: C_4  and  C_6
REMARK    5  A    between atoms: C_15  and  N_16
REMARK    6  A    between atoms: N_16  and  C_17
REMARK    7  A    between atoms: C_20  and  O_21
REMARK    8  A    between atoms: O_21  and  C_22
REMARK    9  A    between atoms: C_23  and  O_24
REMARK   10  A    between atoms: O_24  and  C_25
REMARK                            x       y       z     vdW  Elec       q    Type
REMARK                         _______ _______ _______ _____ _____    ______ ____
ROOT
ATOM      1  C   UNL     1       6.811   5.911  16.406  0.00  0.00    +0.000 A 
ATOM      2  N   UNL     1       7.587   5.543  15.342  0.00  0.00    +0.000 NA
ATOM      3  C   UNL     1       6.966   4.894  14.341  0.00  0.00    +0.000 A 
ATOM      4  C   UNL     1       7.688   4.509  13.218  0.00  0.00    +0.000 A 
ATOM      5  C   UNL     1       7.080   3.814  12.171  0.00  0.00    +0.000 A 
ATOM      6  C   UNL     1       5.730   3.500  12.249  0.00  0.00    +0.000 A 
ATOM      7  C   UNL     1       4.994   3.898  13.365  0.00  0.00    +0.000 A 
ATOM      8  C   UNL     1       5.590   4.596  14.411  0.00  0.00    +0.000 A 
ATOM      9  N   UNL     1       4.843   4.973  15.462  0.00  0.00    +0.000 NA
ATOM     10  C   UNL     1       5.438   5.648  16.480  0.00  0.00    +0.000 A 
ENDROOT
BRANCH   1  11
ATOM     11  C   UNL     1       7.490   6.658  17.498  0.00  0.00    +0.000 C 
ATOM     12  O   UNL     1       7.569   6.261  18.652  0.00  0.00    +0.000 OA
BRANCH  11  13
ATOM     13  O   UNL     1       7.931   7.849  17.021  0.00  0.00    +0.000 OA
BRANCH  13  15
ATOM     14  C   UNL     1       8.756   9.758  18.261  0.00  0.00    +0.000 C 
ATOM     15  C   UNL     1       7.537   9.033  17.728  0.00  0.00    +0.000 C 
ENDBRANCH  13  15
ENDBRANCH  11  13
ENDBRANCH   1  11
BRANCH  10  16
ATOM     16  N   UNL     1       4.619   6.139  17.524  0.00  0.00    +0.000 N 
ATOM     17  H   UNL     1       4.995   6.985  17.950  0.00  0.00    +0.000 HD
BRANCH  16  18
ATOM     18  C   UNL     1       3.779   5.359  18.345  0.00  0.00    +0.000 A 
ATOM     19  C   UNL     1       3.033   5.957  19.368  0.00  0.00    +0.000 A 
ATOM     20  C   UNL     1       2.133   5.215  20.131  0.00  0.00    +0.000 A 
ATOM     21  C   UNL     1       1.931   3.862  19.868  0.00  0.00    +0.000 A 
ATOM     22  C   UNL     1       2.685   3.231  18.865  0.00  0.00    +0.000 A 
ATOM     23  C   UNL     1       3.616   3.984  18.120  0.00  0.00    +0.000 A 
BRANCH  21  24
ATOM     24  O   UNL     1       0.998   3.274  20.683  0.00  0.00    +0.000 OA
ATOM     25  C   UNL     1       1.511   2.617  21.837  0.00  0.00    +0.000 C 
ENDBRANCH  21  24
BRANCH  22  26
ATOM     26  O   UNL     1       2.524   1.879  18.704  0.00  0.00    +0.000 OA
ATOM     27  C   UNL     1       3.711   1.110  18.557  0.00  0.00    +0.000 C 
ENDBRANCH  22  26
ENDBRANCH  16  18
ENDBRANCH  10  16
TORSDOF 7
ENDMDL
MODEL 3
REMARK VINA RESULT:      -7.7      2.794      5.291
REMARK  Name = 
REMARK  10 active torsions:
REMARK  status: ('A' for Active; 'I' for Inactive)
REMARK    1  A    between atoms: C_1  and  C_2
REMARK    2  A    between atoms: C_2  and  O_3
REMARK    3  A    between atoms: O_3  and  C_4
REMARK    4  A    between atoms: C_4  and  C_6
REMARK    5  A    between atoms: C_15  and  N_16
REMARK    6  A    between atoms: N_16  and  C_17
REMARK    7  A    between atoms: C_20  and  O_21
REMARK    8  A    between atoms: O_21  and  C_22
REMARK    9  A    between atoms: C_23  and  O_24
REMARK   10  A    between atoms: O_24  and  C_25
REMARK                            x       y       z     vdW  Elec       q    Type
REMARK                         _______ _______ _______ _____ _____    ______ ____
ROOT
ATOM      1  C   UNL     1       2.981   4.684  17.944  0.00  0.00    +0.000 A 
ATOM      2  N   UNL     1       3.667   3.977  16.996  0.00  0.00    +0.000 NA
ATOM      3  C   UNL     1       4.878   4.452  16.653  0.00  0.00    +0.000 A 
ATOM      4  C   UNL     1       5.642   3.773  15.712  0.00  0.00    +0.000 A 
ATOM      5  C   UNL     1       6.893   4.250  15.316  0.00  0.00    +0.000 A 
ATOM      6  C   UNL     1       7.387   5.424  15.871  0.00  0.00    +0.000 A 
ATOM      7  C   UNL     1       6.633   6.101  16.830  0.00  0.00    +0.000 A 
ATOM      8  C   UNL     1       5.389   5.631  17.234  0.00  0.00    +0.000 A 
ATOM      9  N   UNL     1       4.700   6.306  18.170  0.00  0.00    +0.000 NA
ATOM     10  C   UNL     1       3.482   5.841  18.552  0.00  0.00    +0.000 A 
ENDROOT
BRANCH   1  11
ATOM     11  C   UNL     1       1.656   4.140  18.349  0.00  0.00    +0.000 C 
ATOM     12  O   UNL     1       0.744   3.908  17.567  0.00  0.00    +0.000 OA
BRANCH  11  13
ATOM     13  O   UNL     1       1.614   4.016  19.699  0.00  0.00    +0.000 OA
BRANCH  13  15
ATOM     14  C   UNL     1       1.611   2.626  21.682  0.00  0.00    +0.000 C 
ATOM     15  C   UNL     1       1.180   2.759  20.235  0.00  0.00    +0.000 C 
ENDBRANCH  13  15
ENDBRANCH  11  13
ENDBRANCH   1  11
BRANCH  10  16
ATOM     16  N   UNL     1       2.822   6.494  19.619  0.00  0.00    +0.000 N 
ATOM     17  H   UNL     1       2.503   5.845  20.337  0.00  0.00    +0.000 HD
BRANCH  16  18
ATOM     18  C   UNL     1       2.103   7.704  19.521  0.00  0.00    +0.000 A 
ATOM     19  C   UNL     1       2.012   8.377  18.296  0.00  0.00    +0.000 A 
ATOM     20  C   UNL     1       1.237   9.526  18.163  0.00  0.00    +0.000 A 
ATOM     21  C   UNL     1       0.503  10.014  19.243  0.00  0.00    +0.000 A 
ATOM     22  C   UNL     1       0.597   9.373  20.490  0.00  0.00    +0.000 A 
ATOM     23  C   UNL     1       1.411   8.229  20.621  0.00  0.00    +0.000 A 
BRANCH  21  24
ATOM     24  O   UNL     1      -0.230  11.135  18.952  0.00  0.00    +0.000 OA
ATOM     25  C   UNL     1       0.489  12.363  18.956  0.00  0.00    +0.000 C 
ENDBRANCH  21  24
BRANCH  22  26
ATOM     26  O   UNL     1      -0.063   9.942  21.548  0.00  0.00    +0.000 OA
ATOM     27  C   UNL     1       0.264   9.449  22.841  0.00  0.00    +0.000 C 
ENDBRANCH  22  26
ENDBRANCH  16  18
ENDBRANCH  10  16
TORSDOF 7
ENDMDL
MODEL 4
REMARK VINA RESULT:      -7.6      2.273      7.454
REMARK  Name = 
REMARK  10 active torsions:
REMARK  status: ('A' for Active; 'I' for Inactive)
REMARK    1  A    between atoms: C_1  and  C_2
REMARK    2  A    between atoms: C_2  and  O_3
REMARK    3  A    between atoms: O_3  and  C_4
REMARK    4  A    between atoms: C_4  and  C_6
REMARK    5  A    between atoms: C_15  and  N_16
REMARK    6  A    between atoms: N_16  and  C_17
REMARK    7  A    between atoms: C_20  and  O_21
REMARK    8  A    between atoms: O_21  and  C_22
REMARK    9  A    between atoms: C_23  and  O_24
REMARK   10  A    between atoms: O_24  and  C_25
REMARK                            x       y       z     vdW  Elec       q    Type
REMARK                         _______ _______ _______ _____ _____    ______ ____
ROOT
ATOM      1  C   UNL     1       2.421   5.978  19.762  0.00  0.00    +0.000 A 
ATOM      2  N   UNL     1       1.842   6.934  20.550  0.00  0.00    +0.000 NA
ATOM      3  C   UNL     1       1.572   8.113  19.963  0.00  0.00    +0.000 A 
ATOM      4  C   UNL     1       0.963   9.124  20.696  0.00  0.00    +0.000 A 
ATOM      5  C   UNL     1       0.689  10.368  20.124  0.00  0.00    +0.000 A 
ATOM      6  C   UNL     1       1.029  10.603  18.799  0.00  0.00    +0.000 A 
ATOM      7  C   UNL     1       1.623   9.587  18.051  0.00  0.00    +0.000 A 
ATOM      8  C   UNL     1       1.896   8.343  18.610  0.00  0.00    +0.000 A 
ATOM      9  N   UNL     1       2.458   7.387  17.851  0.00  0.00    +0.000 NA
ATOM     10  C   UNL     1       2.725   6.178  18.411  0.00  0.00    +0.000 A 
ENDROOT
BRANCH   1  11
ATOM     11  C   UNL     1       2.689   4.662  20.403  0.00  0.00    +0.000 C 
ATOM     12  O   UNL     1       3.741   4.047  20.289  0.00  0.00    +0.000 OA
BRANCH  11  13
ATOM     13  O   UNL     1       1.575   4.244  21.056  0.00  0.00    +0.000 OA
BRANCH  13  15
ATOM     14  C   UNL     1       0.699   2.781  19.337  0.00  0.00    +0.000 C 
ATOM     15  C   UNL     1       1.111   2.914  20.789  0.00  0.00    +0.000 C 
ENDBRANCH  13  15
ENDBRANCH  11  13
ENDBRANCH   1  11
BRANCH  10  16
ATOM     16  N   UNL     1       3.208   5.146  17.573  0.00  0.00    +0.000 N 
ATOM     17  H   UNL     1       2.846   4.230  17.833  0.00  0.00    +0.000 HD
BRANCH  16  18
ATOM     18  C   UNL     1       4.447   5.149  16.898  0.00  0.00    +0.000 A 
ATOM     19  C   UNL     1       4.611   4.417  15.716  0.00  0.00    +0.000 A 
ATOM     20  C   UNL     1       5.800   4.477  14.992  0.00  0.00    +0.000 A 
ATOM     21  C   UNL     1       6.844   5.299  15.413  0.00  0.00    +0.000 A 
ATOM     22  C   UNL     1       6.715   6.024  16.610  0.00  0.00    +0.000 A 
ATOM     23  C   UNL     1       5.519   5.930  17.351  0.00  0.00    +0.000 A 
BRANCH  21  24
ATOM     24  O   UNL     1       7.936   5.272  14.585  0.00  0.00    +0.000 OA
ATOM     25  C   UNL     1       7.655   5.156  13.194  0.00  0.00    +0.000 C 
ENDBRANCH  21  24
BRANCH  22  26
ATOM     26  O   UNL     1       7.801   6.743  17.036  0.00  0.00    +0.000 OA
ATOM     27  C   UNL     1       7.566   8.101  17.386  0.00  0.00    +0.000 C 
ENDBRANCH  22  26
ENDBRANCH  16  18
ENDBRANCH  10  16
TORSDOF 7
ENDMDL
MODEL 5
REMARK VINA RESULT:      -7.5      3.197      5.540
REMARK  Name = 
REMARK  10 active torsions:
REMARK  status: ('A' for Active; 'I' for Inactive)
REMARK    1  A    between atoms: C_1  and  C_2
REMARK    2  A    between atoms: C_2  and  O_3
REMARK    3  A    between atoms: O_3  and  C_4
REMARK    4  A    between atoms: C_4  and  C_6
REMARK    5  A    between atoms: C_15  and  N_16
REMARK    6  A    between atoms: N_16  and  C_17
REMARK    7  A    between atoms: C_20  and  O_21
REMARK    8  A    between atoms: O_21  and  C_22
REMARK    9  A    between atoms: C_23  and  O_24
REMARK   10  A    between atoms: O_24  and  C_25
REMARK                            x       y       z     vdW  Elec       q    Type
REMARK                         _______ _______ _______ _____ _____    ______ ____
ROOT
ATOM      1  C   UNL     1       4.193   5.851  17.255  0.00  0.00    +0.000 A 
ATOM      2  N   UNL     1       4.371   4.498  17.182  0.00  0.00    +0.000 NA
ATOM      3  C   UNL     1       3.476   3.738  17.836  0.00  0.00    +0.000 A 
ATOM      4  C   UNL     1       3.581   2.354  17.788  0.00  0.00    +0.000 A 
ATOM      5  C   UNL     1       2.682   1.535  18.475  0.00  0.00    +0.000 A 
ATOM      6  C   UNL     1       1.661   2.112  19.219  0.00  0.00    +0.000 A 
ATOM      7  C   UNL     1       1.538   3.500  19.258  0.00  0.00    +0.000 A 
ATOM      8  C   UNL     1       2.425   4.324  18.574  0.00  0.00    +0.000 A 
ATOM      9  N   UNL     1       2.264   5.656  18.626  0.00  0.00    +0.000 NA
ATOM     10  C   UNL     1       3.142   6.450  17.959  0.00  0.00    +0.000 A 
ENDROOT
BRANCH   1  11
ATOM     11  C   UNL     1       5.165   6.691  16.503  0.00  0.00    +0.000 C 
ATOM     12  O   UNL     1       5.167   6.810  15.285  0.00  0.00    +0.000 OA
BRANCH  11  13
ATOM     13  O   UNL     1       6.060   7.228  17.369  0.00  0.00    +0.000 OA
BRANCH  13  15
ATOM     14  C   UNL     1       7.757   6.215  18.768  0.00  0.00    +0.000 C 
ATOM     15  C   UNL     1       7.385   6.681  17.375  0.00  0.00    +0.000 C 
ENDBRANCH  13  15
ENDBRANCH  11  13
ENDBRANCH   1  11
BRANCH  10  16
ATOM     16  N   UNL     1       2.893   7.842  17.927  0.00  0.00    +0.000 N 
ATOM     17  H   UNL     1       3.725   8.382  17.692  0.00  0.00    +0.000 HD
BRANCH  16  18
ATOM     18  C   UNL     1       1.913   8.519  18.683  0.00  0.00    +0.000 A 
ATOM     19  C   UNL     1       1.826   8.322  20.067  0.00  0.00    +0.000 A 
ATOM     20  C   UNL     1       0.922   9.046  20.840  0.00  0.00    +0.000 A 
ATOM     21  C   UNL     1       0.104  10.011  20.255  0.00  0.00    +0.000 A 
ATOM     22  C   UNL     1       0.152  10.210  18.865  0.00  0.00    +0.000 A 
ATOM     23  C   UNL     1       1.049   9.449  18.088  0.00  0.00    +0.000 A 
BRANCH  21  24
ATOM     24  O   UNL     1      -0.713  10.658  21.147  0.00  0.00    +0.000 OA
ATOM     25  C   UNL     1      -0.514  10.330  22.518  0.00  0.00    +0.000 C 
ENDBRANCH  21  24
BRANCH  22  26
ATOM     26  O   UNL     1      -0.736  11.099  18.319  0.00  0.00    +0.000 OA
ATOM     27  C   UNL     1      -1.825  10.544  17.593  0.00  0.00    +0.000 C 
ENDBRANCH  22  26
ENDBRANCH  16  18
ENDBRANCH  10  16
TORSDOF 7
ENDMDL
MODEL 6
REMARK VINA RESULT:      -7.5      2.194      7.366
REMARK  Name = 
REMARK  10 active torsions:
REMARK  status: ('A' for Active; 'I' for Inactive)
REMARK    1  A    between atoms: C_1  and  C_2
REMARK    2  A    between atoms: C_2  and  O_3
REMARK    3  A    between atoms: O_3  and  C_4
REMARK    4  A    between atoms: C_4  and  C_6
REMARK    5  A    between atoms: C_15  and  N_16
REMARK    6  A    between atoms: N_16  and  C_17
REMARK    7  A    between atoms: C_20  and  O_21
REMARK    8  A    between atoms: O_21  and  C_22
REMARK    9  A    between atoms: C_23  and  O_24
REMARK   10  A    between atoms: O_24  and  C_25
REMARK                            x       y       z     vdW  Elec       q    Type
REMARK                         _______ _______ _______ _____ _____    ______ ____
ROOT
ATOM      1  C   UNL     1       2.218   5.806  19.959  0.00  0.00    +0.000 A 
ATOM      2  N   UNL     1       1.651   6.724  20.799  0.00  0.00    +0.000 NA
ATOM      3  C   UNL     1       1.461   7.958  20.299  0.00  0.00    +0.000 A 
ATOM      4  C   UNL     1       0.870   8.937  21.088  0.00  0.00    +0.000 A 
ATOM      5  C   UNL     1       0.679  10.235  20.609  0.00  0.00    +0.000 A 
ATOM      6  C   UNL     1       1.085  10.556  19.320  0.00  0.00    +0.000 A 
ATOM      7  C   UNL     1       1.663   9.574  18.516  0.00  0.00    +0.000 A 
ATOM      8  C   UNL     1       1.853   8.278  18.983  0.00  0.00    +0.000 A 
ATOM      9  N   UNL     1       2.402   7.358  18.172  0.00  0.00    +0.000 NA
ATOM     10  C   UNL     1       2.588   6.097  18.641  0.00  0.00    +0.000 A 
ENDROOT
BRANCH   1  11
ATOM     11  C   UNL     1       2.397   4.432  20.501  0.00  0.00    +0.000 C 
ATOM     12  O   UNL     1       1.564   3.852  21.185  0.00  0.00    +0.000 OA
BRANCH  11  13
ATOM     13  O   UNL     1       3.632   3.977  20.173  0.00  0.00    +0.000 OA
BRANCH  13  15
ATOM     14  C   UNL     1       3.760   1.901  18.933  0.00  0.00    +0.000 C 
ATOM     15  C   UNL     1       3.870   2.567  20.289  0.00  0.00    +0.000 C 
ENDBRANCH  13  15
ENDBRANCH  11  13
ENDBRANCH   1  11
BRANCH  10  16
ATOM     16  N   UNL     1       3.058   5.111  17.742  0.00  0.00    +0.000 N 
ATOM     17  H   UNL     1       2.691   4.184  17.952  0.00  0.00    +0.000 HD
BRANCH  16  18
ATOM     18  C   UNL     1       4.291   5.145  17.059  0.00  0.00    +0.000 A 
ATOM     19  C   UNL     1       4.533   4.272  15.991  0.00  0.00    +0.000 A 
ATOM     20  C   UNL     1       5.712   4.350  15.251  0.00  0.00    +0.000 A 
ATOM     21  C   UNL     1       6.664   5.326  15.538  0.00  0.00    +0.000 A 
ATOM     22  C   UNL     1       6.458   6.197  16.621  0.00  0.00    +0.000 A 
ATOM     23  C   UNL     1       5.277   6.088  17.383  0.00  0.00    +0.000 A 
BRANCH  21  24
ATOM     24  O   UNL     1       7.756   5.294  14.709  0.00  0.00    +0.000 OA
ATOM     25  C   UNL     1       7.503   4.880  13.371  0.00  0.00    +0.000 C 
ENDBRANCH  21  24
BRANCH  22  26
ATOM     26  O   UNL     1       7.463   7.078  16.928  0.00  0.00    +0.000 OA
ATOM     27  C   UNL     1       7.938   7.058  18.268  0.00  0.00    +0.000 C 
ENDBRANCH  22  26
ENDBRANCH  16  18
ENDBRANCH  10  16
TORSDOF 7
ENDMDL
MODEL 7
REMARK VINA RESULT:      -7.4      2.735      5.256
REMARK  Name = 
REMARK  10 active torsions:
REMARK  status: ('A' for Active; 'I' for Inactive)
REMARK    1  A    between atoms: C_1  and  C_2
REMARK    2  A    between atoms: C_2  and  O_3
REMARK    3  A    between atoms: O_3  and  C_4
REMARK    4  A    between atoms: C_4  and  C_6
REMARK    5  A    between atoms: C_15  and  N_16
REMARK    6  A    between atoms: N_16  and  C_17
REMARK    7  A    between atoms: C_20  and  O_21
REMARK    8  A    between atoms: O_21  and  C_22
REMARK    9  A    between atoms: C_23  and  O_24
REMARK   10  A    between atoms: O_24  and  C_25
REMARK                            x       y       z     vdW  Elec       q    Type
REMARK                         _______ _______ _______ _____ _____    ______ ____
ROOT
ATOM      1  C   UNL     1       3.193   4.460  17.784  0.00  0.00    +0.000 A 
ATOM      2  N   UNL     1       3.816   3.917  16.695  0.00  0.00    +0.000 NA
ATOM      3  C   UNL     1       5.015   4.432  16.370  0.00  0.00    +0.000 A 
ATOM      4  C   UNL     1       5.716   3.914  15.288  0.00  0.00    +0.000 A 
ATOM      5  C   UNL     1       6.953   4.440  14.909  0.00  0.00    +0.000 A 
ATOM      6  C   UNL     1       7.497   5.498  15.625  0.00  0.00    +0.000 A 
ATOM      7  C   UNL     1       6.808   6.011  16.723  0.00  0.00    +0.000 A 
ATOM      8  C   UNL     1       5.577   5.491  17.111  0.00  0.00    +0.000 A 
ATOM      9  N   UNL     1       4.952   6.006  18.183  0.00  0.00    +0.000 NA
ATOM     10  C   UNL     1       3.747   5.494  18.549  0.00  0.00    +0.000 A 
ENDROOT
BRANCH   1  11
ATOM     11  C   UNL     1       1.882   3.868  18.164  0.00  0.00    +0.000 C 
ATOM     12  O   UNL     1       0.840   4.065  17.553  0.00  0.00    +0.000 OA
BRANCH  11  13
ATOM     13  O   UNL     1       2.026   3.153  19.307  0.00  0.00    +0.000 OA
BRANCH  13  15
ATOM     14  C   UNL     1       1.518   2.804  21.649  0.00  0.00    +0.000 C 
ATOM     15  C   UNL     1       1.009   3.293  20.308  0.00  0.00    +0.000 C 
ENDBRANCH  13  15
ENDBRANCH  11  13
ENDBRANCH   1  11
BRANCH  10  16
ATOM     16  N   UNL     1       3.156   5.964  19.744  0.00  0.00    +0.000 N 
ATOM     17  H   UNL     1       3.029   5.225  20.434  0.00  0.00    +0.000 HD
BRANCH  16  18
ATOM     18  C   UNL     1       2.274   7.061  19.848  0.00  0.00    +0.000 A 
ATOM     19  C   UNL     1       1.504   7.244  21.003  0.00  0.00    +0.000 A 
ATOM     20  C   UNL     1       0.694   8.367  21.156  0.00  0.00    +0.000 A 
ATOM     21  C   UNL     1       0.659   9.354  20.173  0.00  0.00    +0.000 A 
ATOM     22  C   UNL     1       1.402   9.182  18.993  0.00  0.00    +0.000 A 
ATOM     23  C   UNL     1       2.194   8.026  18.834  0.00  0.00    +0.000 A 
BRANCH  21  24
ATOM     24  O   UNL     1      -0.163  10.408  20.478  0.00  0.00    +0.000 OA
ATOM     25  C   UNL     1       0.427  11.450  21.248  0.00  0.00    +0.000 C 
ENDBRANCH  21  24
BRANCH  22  26
ATOM     26  O   UNL     1       1.264  10.130  18.012  0.00  0.00    +0.000 OA
ATOM     27  C   UNL     1       2.210  11.191  18.016  0.00  0.00    +0.000 C 
ENDBRANCH  22  26
ENDBRANCH  16  18
ENDBRANCH  10  16
TORSDOF 7
ENDMDL
MODEL 8
REMARK VINA RESULT:      -7.2      1.270      2.257
REMARK  Name = 
REMARK  10 active torsions:
REMARK  status: ('A' for Active; 'I' for Inactive)
REMARK    1  A    between atoms: C_1  and  C_2
REMARK    2  A    between atoms: C_2  and  O_3
REMARK    3  A    between atoms: O_3  and  C_4
REMARK    4  A    between atoms: C_4  and  C_6
REMARK    5  A    between atoms: C_15  and  N_16
REMARK    6  A    between atoms: N_16  and  C_17
REMARK    7  A    between atoms: C_20  and  O_21
REMARK    8  A    between atoms: O_21  and  C_22
REMARK    9  A    between atoms: C_23  and  O_24
REMARK   10  A    between atoms: O_24  and  C_25
REMARK                            x       y       z     vdW  Elec       q    Type
REMARK                         _______ _______ _______ _____ _____    ______ ____
ROOT
ATOM      1  C   UNL     1       6.826   5.065  16.832  0.00  0.00    +0.000 A 
ATOM      2  N   UNL     1       7.561   5.253  15.694  0.00  0.00    +0.000 NA
ATOM      3  C   UNL     1       7.029   4.785  14.551  0.00  0.00    +0.000 A 
ATOM      4  C   UNL     1       7.709   4.960  13.353  0.00  0.00    +0.000 A 
ATOM      5  C   UNL     1       7.196   4.468  12.151  0.00  0.00    +0.000 A 
ATOM      6  C   UNL     1       5.983   3.791  12.150  0.00  0.00    +0.000 A 
ATOM      7  C   UNL     1       5.285   3.628  13.346  0.00  0.00    +0.000 A 
ATOM      8  C   UNL     1       5.786   4.119  14.547  0.00  0.00    +0.000 A 
ATOM      9  N   UNL     1       5.076   3.952  15.676  0.00  0.00    +0.000 NA
ATOM     10  C   UNL     1       5.579   4.430  16.844  0.00  0.00    +0.000 A 
ENDROOT
BRANCH   1  11
ATOM     11  C   UNL     1       7.400   5.612  18.091  0.00  0.00    +0.000 C 
ATOM     12  O   UNL     1       7.944   4.928  18.949  0.00  0.00    +0.000 OA
BRANCH  11  13
ATOM     13  O   UNL     1       7.161   6.946  18.153  0.00  0.00    +0.000 OA
BRANCH  13  15
ATOM     14  C   UNL     1       8.026   9.175  17.771  0.00  0.00    +0.000 C 
ATOM     15  C   UNL     1       8.283   7.810  18.376  0.00  0.00    +0.000 C 
ENDBRANCH  13  15
ENDBRANCH  11  13
ENDBRANCH   1  11
BRANCH  10  16
ATOM     16  N   UNL     1       4.771   4.351  18.002  0.00  0.00    +0.000 N 
ATOM     17  H   UNL     1       4.525   3.392  18.242  0.00  0.00    +0.000 HD
BRANCH  16  18
ATOM     18  C   UNL     1       3.875   5.345  18.447  0.00  0.00    +0.000 A 
ATOM     19  C   UNL     1       3.244   5.225  19.691  0.00  0.00    +0.000 A 
ATOM     20  C   UNL     1       2.424   6.239  20.183  0.00  0.00    +0.000 A 
ATOM     21  C   UNL     1       2.240   7.415  19.458  0.00  0.00    +0.000 A 
ATOM     22  C   UNL     1       2.840   7.550  18.195  0.00  0.00    +0.000 A 
ATOM     23  C   UNL     1       3.642   6.505  17.693  0.00  0.00    +0.000 A 
BRANCH  21  24
ATOM     24  O   UNL     1       1.429   8.327  20.082  0.00  0.00    +0.000 OA
ATOM     25  C   UNL     1       1.384   8.245  21.502  0.00  0.00    +0.000 C 
ENDBRANCH  21  24
BRANCH  22  26
ATOM     26  O   UNL     1       2.555   8.681  17.475  0.00  0.00    +0.000 OA
ATOM     27  C   UNL     1       1.217   9.157  17.542  0.00  0.00    +0.000 C 
ENDBRANCH  22  26
ENDBRANCH  16  18
ENDBRANCH  10  16
TORSDOF 7
ENDMDL
MODEL 9
REMARK VINA RESULT:      -7.2      3.209      5.504
REMARK  Name = 
REMARK  10 active torsions:
REMARK  status: ('A' for Active; 'I' for Inactive)
REMARK    1  A    between atoms: C_1  and  C_2
REMARK    2  A    between atoms: C_2  and  O_3
REMARK    3  A    between atoms: O_3  and  C_4
REMARK    4  A    between atoms: C_4  and  C_6
REMARK    5  A    between atoms: C_15  and  N_16
REMARK    6  A    between atoms: N_16  and  C_17
REMARK    7  A    between atoms: C_20  and  O_21
REMARK    8  A    between atoms: O_21  and  C_22
REMARK    9  A    between atoms: C_23  and  O_24
REMARK   10  A    between atoms: O_24  and  C_25
REMARK                            x       y       z     vdW  Elec       q    Type
REMARK                         _______ _______ _______ _____ _____    ______ ____
ROOT
ATOM      1  C   UNL     1       4.030   5.938  17.352  0.00  0.00    +0.000 A 
ATOM      2  N   UNL     1       4.019   4.576  17.233  0.00  0.00    +0.000 NA
ATOM      3  C   UNL     1       3.067   3.921  17.922  0.00  0.00    +0.000 A 
ATOM      4  C   UNL     1       2.982   2.537  17.831  0.00  0.00    +0.000 A 
ATOM      5  C   UNL     1       2.021   1.823  18.550  0.00  0.00    +0.000 A 
ATOM      6  C   UNL     1       1.131   2.505  19.370  0.00  0.00    +0.000 A 
ATOM      7  C   UNL     1       1.199   3.896  19.452  0.00  0.00    +0.000 A 
ATOM      8  C   UNL     1       2.149   4.616  18.736  0.00  0.00    +0.000 A 
ATOM      9  N   UNL     1       2.173   5.956  18.833  0.00  0.00    +0.000 NA
ATOM     10  C   UNL     1       3.111   6.648  18.134  0.00  0.00    +0.000 A 
ENDROOT
BRANCH   1  11
ATOM     11  C   UNL     1       5.061   6.666  16.564  0.00  0.00    +0.000 C 
ATOM     12  O   UNL     1       5.135   6.638  15.343  0.00  0.00    +0.000 OA
BRANCH  11  13
ATOM     13  O   UNL     1       5.918   7.288  17.412  0.00  0.00    +0.000 OA
BRANCH  13  15
ATOM     14  C   UNL     1       7.634   6.105  18.645  0.00  0.00    +0.000 C 
ATOM     15  C   UNL     1       7.291   6.876  17.386  0.00  0.00    +0.000 C 
ENDBRANCH  13  15
ENDBRANCH  11  13
ENDBRANCH   1  11
BRANCH  10  16
ATOM     16  N   UNL     1       3.051   8.061  18.152  0.00  0.00    +0.000 N 
ATOM     17  H   UNL     1       3.959   8.488  18.324  0.00  0.00    +0.000 HD
BRANCH  16  18
ATOM     18  C   UNL     1       1.929   8.830  18.527  0.00  0.00    +0.000 A 
ATOM     19  C   UNL     1       0.993   9.232  17.566  0.00  0.00    +0.000 A 
ATOM     20  C   UNL     1      -0.164   9.917  17.931  0.00  0.00    +0.000 A 
ATOM     21  C   UNL     1      -0.432  10.188  19.271  0.00  0.00    +0.000 A 
ATOM     22  C   UNL     1       0.502   9.819  20.253  0.00  0.00    +0.000 A 
ATOM     23  C   UNL     1       1.685   9.154  19.869  0.00  0.00    +0.000 A 
BRANCH  21  24
ATOM     24  O   UNL     1      -1.619  10.845  19.475  0.00  0.00    +0.000 OA
ATOM     25  C   UNL     1      -1.591  12.252  19.263  0.00  0.00    +0.000 C 
ENDBRANCH  21  24
BRANCH  22  26
ATOM     26  O   UNL     1       0.244  10.190  21.547  0.00  0.00    +0.000 OA
ATOM     27  C   UNL     1       0.648   9.279  22.562  0.00  0.00    +0.000 C 
ENDBRANCH  22  26
ENDBRANCH  16  18
ENDBRANCH  10  16
TORSDOF 7
ENDMDL
