MODEL 1
REMARK VINA RESULT:      -8.0      0.000      0.000
REMARK  Name = 
REMARK  7 active torsions:
REMARK  status: ('A' for Active; 'I' for Inactive)
REMARK    1  A    between atoms: C_1  and  C_2
REMARK    2  A    between atoms: C_6  and  N_7
REMARK    3  A    between atoms: C_8  and  C_10
REMARK    4  A    between atoms: C_10  and  C_11
REMARK    5  A    between atoms: C_11  and  N_12
REMARK    6  A    between atoms: N_12  and  S_13
REMARK    7  A    between atoms: S_13  and  C_16
REMARK                            x       y       z     vdW  Elec       q    Type
REMARK                         _______ _______ _______ _____ _____    ______ ____
ROOT
ATOM      1  N   UNL     1       3.524   3.636  19.306  0.00  0.00    +0.000 NA
ATOM      2  H   UNL     1       4.392   4.195  19.398  0.00  0.00    +0.000 HD
ENDROOT
BRANCH   1   3
ATOM      3  S   UNL     1       3.478   2.986  17.738  0.00  0.00    +0.000 S 
ATOM      4  O   UNL     1       3.880   1.604  17.886  0.00  0.00    +0.000 OA
ATOM      5  O   UNL     1       2.221   3.386  17.148  0.00  0.00    +0.000 OA
BRANCH   3   6
ATOM      6  C   UNL     1       4.774   3.815  16.902  0.00  0.00    +0.000 A 
ATOM      7  C   UNL     1       4.870   3.848  15.494  0.00  0.00    +0.000 A 
ATOM      8  C   UNL     1       5.917   4.511  14.812  0.00  0.00    +0.000 A 
ATOM      9  C   UNL     1       6.945   5.199  15.476  0.00  0.00    +0.000 A 
ATOM     10  C   UNL     1       6.890   5.200  16.890  0.00  0.00    +0.000 A 
ATOM     11  N   UNL     1       7.774   5.799  17.702  0.00  0.00    +0.000 NA
ATOM     12  S   UNL     1       7.260   5.506  19.253  0.00  0.00    +0.000 S 
ATOM     13  N   UNL     1       5.900   4.607  18.961  0.00  0.00    +0.000 NA
ATOM     14  C   UNL     1       5.780   4.492  17.628  0.00  0.00    +0.000 A 
ENDBRANCH   3   6
ENDBRANCH   1   3
BRANCH   1  15
ATOM     15  C   UNL     1       3.298   2.706  20.431  0.00  0.00    +0.000 C 
BRANCH  15  16
ATOM     16  C   UNL     1       2.351   3.316  21.470  0.00  0.00    +0.000 C 
BRANCH  16  18
ATOM     17  N   UNL     1       2.198   5.740  21.198  0.00  0.00    +0.000 N 
ATOM     18  C   UNL     1       1.634   4.517  20.886  0.00  0.00    +0.000 C 
ATOM     19  O   UNL     1       0.596   4.353  20.245  0.00  0.00    +0.000 OA
ATOM     20  H   UNL     1       2.908   5.769  21.919  0.00  0.00    +0.000 HD
BRANCH  17  26
ATOM     21  C   UNL     1       2.242   9.090  17.558  0.00  0.00    +0.000 C 
ATOM     22  C   UNL     1       1.763   8.638  18.907  0.00  0.00    +0.000 A 
ATOM     23  C   UNL     1       0.950   9.476  19.677  0.00  0.00    +0.000 A 
ATOM     24  C   UNL     1       0.514   9.068  20.931  0.00  0.00    +0.000 A 
ATOM     25  C   UNL     1       0.907   7.829  21.437  0.00  0.00    +0.000 A 
ATOM     26  C   UNL     1       1.744   6.986  20.700  0.00  0.00    +0.000 A 
ATOM     27  C   UNL     1       2.146   7.386  19.420  0.00  0.00    +0.000 A 
ENDBRANCH  17  26
ENDBRANCH  16  18
ENDBRANCH  15  16
ENDBRANCH   1  15
TORSDOF 6
ENDMDL
MODEL 2
REMARK VINA RESULT:      -7.7      0.688      1.451
REMARK  Name = 
REMARK  7 active torsions:
REMARK  status: ('A' for Active; 'I' for Inactive)
REMARK    1  A    between atoms: C_1  and  C_2
REMARK    2  A    between atoms: C_6  and  N_7
REMARK    3  A    between atoms: C_8  and  C_10
REMARK    4  A    between atoms: C_10  and  C_11
REMARK    5  A    between atoms: C_11  and  N_12
REMARK    6  A    between atoms: N_12  and  S_13
REMARK    7  A    between atoms: S_13  and  C_16
REMARK                            x       y       z     vdW  Elec       q    Type
REMARK                         _______ _______ _______ _____ _____    ______ ____
ROOT
ATOM      1  N   UNL     1       3.743   2.903  19.156  0.00  0.00    +0.000 NA
ATOM      2  H   UNL     1       4.532   2.232  19.122  0.00  0.00    +0.000 HD
ENDROOT
BRANCH   1   3
ATOM      3  S   UNL     1       3.245   3.214  17.563  0.00  0.00    +0.000 S 
ATOM      4  O   UNL     1       2.999   1.914  16.978  0.00  0.00    +0.000 OA
ATOM      5  O   UNL     1       2.245   4.256  17.626  0.00  0.00    +0.000 OA
BRANCH   3   6
ATOM      6  C   UNL     1       4.678   3.864  16.795  0.00  0.00    +0.000 A 
ATOM      7  C   UNL     1       4.927   3.727  15.412  0.00  0.00    +0.000 A 
ATOM      8  C   UNL     1       6.084   4.245  14.786  0.00  0.00    +0.000 A 
ATOM      9  C   UNL     1       7.080   4.947  15.484  0.00  0.00    +0.000 A 
ATOM     10  C   UNL     1       6.874   5.116  16.874  0.00  0.00    +0.000 A 
ATOM     11  N   UNL     1       7.706   5.754  17.712  0.00  0.00    +0.000 NA
ATOM     12  S   UNL     1       7.009   5.674  19.216  0.00  0.00    +0.000 S 
ATOM     13  N   UNL     1       5.629   4.826  18.870  0.00  0.00    +0.000 NA
ATOM     14  C   UNL     1       5.644   4.564  17.553  0.00  0.00    +0.000 A 
ENDBRANCH   3   6
ENDBRANCH   1   3
BRANCH   1  15
ATOM     15  C   UNL     1       2.696   2.536  20.133  0.00  0.00    +0.000 C 
BRANCH  15  16
ATOM     16  C   UNL     1       2.548   3.612  21.213  0.00  0.00    +0.000 C 
BRANCH  16  18
ATOM     17  N   UNL     1       2.727   5.880  20.320  0.00  0.00    +0.000 N 
ATOM     18  C   UNL     1       1.872   4.842  20.640  0.00  0.00    +0.000 C 
ATOM     19  O   UNL     1       0.645   4.877  20.553  0.00  0.00    +0.000 OA
ATOM     20  H   UNL     1       3.684   5.831  20.649  0.00  0.00    +0.000 HD
BRANCH  17  26
ATOM     21  C   UNL     1       0.282  10.168  20.645  0.00  0.00    +0.000 C 
ATOM     22  C   UNL     1       1.125   9.205  19.860  0.00  0.00    +0.000 A 
ATOM     23  C   UNL     1       1.435   9.477  18.524  0.00  0.00    +0.000 A 
ATOM     24  C   UNL     1       2.204   8.582  17.789  0.00  0.00    +0.000 A 
ATOM     25  C   UNL     1       2.650   7.399  18.378  0.00  0.00    +0.000 A 
ATOM     26  C   UNL     1       2.328   7.090  19.702  0.00  0.00    +0.000 A 
ATOM     27  C   UNL     1       1.587   8.015  20.449  0.00  0.00    +0.000 A 
ENDBRANCH  17  26
ENDBRANCH  16  18
ENDBRANCH  15  16
ENDBRANCH   1  15
TORSDOF 6
ENDMDL
MODEL 3
REMARK VINA RESULT:      -7.6      1.084      1.715
REMARK  Name = 
REMARK  7 active torsions:
REMARK  status: ('A' for Active; 'I' for Inactive)
REMARK    1  A    between atoms: C_1  and  C_2
REMARK    2  A    between atoms: C_6  and  N_7
REMARK    3  A    between atoms: C_8  and  C_10
REMARK    4  A    between atoms: C_10  and  C_11
REMARK    5  A    between atoms: C_11  and  N_12
REMARK    6  A    between atoms: N_12  and  S_13
REMARK    7  A    between atoms: S_13  and  C_16
REMARK                            x       y       z     vdW  Elec       q    Type
REMARK                         _______ _______ _______ _____ _____    ______ ____
ROOT
ATOM      1  N   UNL     1       3.666   3.405  20.505  0.00  0.00    +0.000 NA
ATOM      2  H   UNL     1       4.524   3.816  20.915  0.00  0.00    +0.000 HD
ENDROOT
BRANCH   1   3
ATOM      3  S   UNL     1       4.122   2.427  19.195  0.00  0.00    +0.000 S 
ATOM      4  O   UNL     1       5.268   1.675  19.659  0.00  0.00    +0.000 OA
ATOM      5  O   UNL     1       2.919   1.803  18.690  0.00  0.00    +0.000 OA
BRANCH   3   6
ATOM      6  C   UNL     1       4.700   3.568  18.000  0.00  0.00    +0.000 A 
ATOM      7  C   UNL     1       4.148   3.655  16.703  0.00  0.00    +0.000 A 
ATOM      8  C   UNL     1       4.614   4.570  15.731  0.00  0.00    +0.000 A 
ATOM      9  C   UNL     1       5.659   5.476  15.974  0.00  0.00    +0.000 A 
ATOM     10  C   UNL     1       6.243   5.432  17.263  0.00  0.00    +0.000 A 
ATOM     11  N   UNL     1       7.248   6.212  17.689  0.00  0.00    +0.000 NA
ATOM     12  S   UNL     1       7.555   5.767  19.258  0.00  0.00    +0.000 S 
ATOM     13  N   UNL     1       6.432   4.566  19.462  0.00  0.00    +0.000 NA
ATOM     14  C   UNL     1       5.756   4.456  18.307  0.00  0.00    +0.000 A 
ENDBRANCH   3   6
ENDBRANCH   1   3
BRANCH   1  15
ATOM     15  C   UNL     1       2.757   2.813  21.508  0.00  0.00    +0.000 C 
BRANCH  15  16
ATOM     16  C   UNL     1       1.413   3.547  21.538  0.00  0.00    +0.000 C 
BRANCH  16  18
ATOM     17  N   UNL     1       1.946   5.793  20.732  0.00  0.00    +0.000 N 
ATOM     18  C   UNL     1       1.355   4.580  20.429  0.00  0.00    +0.000 C 
ATOM     19  O   UNL     1       0.754   4.320  19.386  0.00  0.00    +0.000 OA
ATOM     20  H   UNL     1       2.201   5.974  21.695  0.00  0.00    +0.000 HD
BRANCH  17  26
ATOM     21  C   UNL     1       0.755  10.436  19.509  0.00  0.00    +0.000 C 
ATOM     22  C   UNL     1       1.494   9.161  19.220  0.00  0.00    +0.000 A 
ATOM     23  C   UNL     1       2.229   9.032  18.038  0.00  0.00    +0.000 A 
ATOM     24  C   UNL     1       2.903   7.850  17.760  0.00  0.00    +0.000 A 
ATOM     25  C   UNL     1       2.830   6.779  18.650  0.00  0.00    +0.000 A 
ATOM     26  C   UNL     1       2.078   6.872  19.825  0.00  0.00    +0.000 A 
ATOM     27  C   UNL     1       1.434   8.081  20.118  0.00  0.00    +0.000 A 
ENDBRANCH  17  26
ENDBRANCH  16  18
ENDBRANCH  15  16
ENDBRANCH   1  15
TORSDOF 6
ENDMDL
MODEL 4
REMARK VINA RESULT:      -7.4      2.427      3.325
REMARK  Name = 
REMARK  7 active torsions:
REMARK  status: ('A' for Active; 'I' for Inactive)
REMARK    1  A    between atoms: C_1  and  C_2
REMARK    2  A    between atoms: C_6  and  N_7
REMARK    3  A    between atoms: C_8  and  C_10
REMARK    4  A    between atoms: C_10  and  C_11
REMARK    5  A    between atoms: C_11  and  N_12
REMARK    6  A    between atoms: N_12  and  S_13
REMARK    7  A    between atoms: S_13  and  C_16
REMARK                            x       y       z     vdW  Elec       q    Type
REMARK                         _______ _______ _______ _____ _____    ______ ____
ROOT
ATOM      1  N   UNL     1       3.203   5.655  20.155  0.00  0.00    +0.000 NA
ATOM      2  H   UNL     1       3.240   5.470  21.173  0.00  0.00    +0.000 HD
ENDROOT
BRANCH   1   3
ATOM      3  S   UNL     1       3.062   4.166  19.352  0.00  0.00    +0.000 S 
ATOM      4  O   UNL     1       3.489   3.172  20.312  0.00  0.00    +0.000 OA
ATOM      5  O   UNL     1       1.764   4.147  18.716  0.00  0.00    +0.000 OA
BRANCH   3   6
ATOM      6  C   UNL     1       4.290   4.243  18.106  0.00  0.00    +0.000 A 
ATOM      7  C   UNL     1       4.054   3.820  16.780  0.00  0.00    +0.000 A 
ATOM      8  C   UNL     1       5.043   3.874  15.770  0.00  0.00    +0.000 A 
ATOM      9  C   UNL     1       6.340   4.360  15.998  0.00  0.00    +0.000 A 
ATOM     10  C   UNL     1       6.625   4.803  17.312  0.00  0.00    +0.000 A 
ATOM     11  N   UNL     1       7.800   5.300  17.728  0.00  0.00    +0.000 NA
ATOM     12  S   UNL     1       7.611   5.668  19.335  0.00  0.00    +0.000 S 
ATOM     13  N   UNL     1       6.037   5.209  19.572  0.00  0.00    +0.000 NA
ATOM     14  C   UNL     1       5.578   4.746  18.398  0.00  0.00    +0.000 A 
ENDBRANCH   3   6
ENDBRANCH   1   3
BRANCH   1  15
ATOM     15  C   UNL     1       2.248   6.719  19.781  0.00  0.00    +0.000 C 
BRANCH  15  16
ATOM     16  C   UNL     1       2.741   7.501  18.560  0.00  0.00    +0.000 C 
BRANCH  16  18
ATOM     17  N   UNL     1       1.050   9.044  19.418  0.00  0.00    +0.000 N 
ATOM     18  C   UNL     1       1.934   8.773  18.389  0.00  0.00    +0.000 C 
ATOM     19  O   UNL     1       2.054   9.436  17.359  0.00  0.00    +0.000 OA
ATOM     20  H   UNL     1       0.868   8.314  20.096  0.00  0.00    +0.000 HD
BRANCH  17  26
ATOM     21  C   UNL     1      -2.967  11.526  17.943  0.00  0.00    +0.000 C 
ATOM     22  C   UNL     1      -1.726  11.437  18.784  0.00  0.00    +0.000 A 
ATOM     23  C   UNL     1      -1.338  12.523  19.574  0.00  0.00    +0.000 A 
ATOM     24  C   UNL     1      -0.184  12.450  20.344  0.00  0.00    +0.000 A 
ATOM     25  C   UNL     1       0.604  11.300  20.313  0.00  0.00    +0.000 A 
ATOM     26  C   UNL     1       0.254  10.211  19.508  0.00  0.00    +0.000 A 
ATOM     27  C   UNL     1      -0.932  10.276  18.766  0.00  0.00    +0.000 A 
ENDBRANCH  17  26
ENDBRANCH  16  18
ENDBRANCH  15  16
ENDBRANCH   1  15
TORSDOF 6
ENDMDL
MODEL 5
REMARK VINA RESULT:      -7.3      2.121      2.960
REMARK  Name = 
REMARK  7 active torsions:
REMARK  status: ('A' for Active; 'I' for Inactive)
REMARK    1  A    between atoms: C_1  and  C_2
REMARK    2  A    between atoms: C_6  and  N_7
REMARK    3  A    between atoms: C_8  and  C_10
REMARK    4  A    between atoms: C_10  and  C_11
REMARK    5  A    between atoms: C_11  and  N_12
REMARK    6  A    between atoms: N_12  and  S_13
REMARK    7  A    between atoms: S_13  and  C_16
REMARK                            x       y       z     vdW  Elec       q    Type
REMARK                         _______ _______ _______ _____ _____    ______ ____
ROOT
ATOM      1  N   UNL     1       2.842   4.563  18.864  0.00  0.00    +0.000 NA
ATOM      2  H   UNL     1       2.222   4.190  19.604  0.00  0.00    +0.000 HD
ENDROOT
BRANCH   1   3
ATOM      3  S   UNL     1       3.400   3.259  17.932  0.00  0.00    +0.000 S 
ATOM      4  O   UNL     1       3.934   2.309  18.885  0.00  0.00    +0.000 OA
ATOM      5  O   UNL     1       2.354   2.930  16.990  0.00  0.00    +0.000 OA
BRANCH   3   6
ATOM      6  C   UNL     1       4.756   3.924  17.048  0.00  0.00    +0.000 A 
ATOM      7  C   UNL     1       4.858   3.846  15.641  0.00  0.00    +0.000 A 
ATOM      8  C   UNL     1       5.953   4.376  14.921  0.00  0.00    +0.000 A 
ATOM      9  C   UNL     1       7.029   5.032  15.541  0.00  0.00    +0.000 A 
ATOM     10  C   UNL     1       6.971   5.141  16.951  0.00  0.00    +0.000 A 
ATOM     11  N   UNL     1       7.896   5.729  17.724  0.00  0.00    +0.000 NA
ATOM     12  S   UNL     1       7.358   5.591  19.288  0.00  0.00    +0.000 S 
ATOM     13  N   UNL     1       5.935   4.777  19.052  0.00  0.00    +0.000 NA
ATOM     14  C   UNL     1       5.809   4.575  17.730  0.00  0.00    +0.000 A 
ENDBRANCH   3   6
ENDBRANCH   1   3
BRANCH   1  15
ATOM     15  C   UNL     1       2.268   5.717  18.139  0.00  0.00    +0.000 C 
BRANCH  15  16
ATOM     16  C   UNL     1       3.032   7.005  18.458  0.00  0.00    +0.000 C 
BRANCH  16  18
ATOM     17  N   UNL     1       1.681   8.991  18.001  0.00  0.00    +0.000 N 
ATOM     18  C   UNL     1       2.077   8.073  18.956  0.00  0.00    +0.000 C 
ATOM     19  O   UNL     1       1.766   8.104  20.147  0.00  0.00    +0.000 OA
ATOM     20  H   UNL     1       2.178   9.007  17.118  0.00  0.00    +0.000 HD
BRANCH  17  26
ATOM     21  C   UNL     1      -2.975  10.602  17.564  0.00  0.00    +0.000 C 
ATOM     22  C   UNL     1      -1.557  10.820  18.007  0.00  0.00    +0.000 A 
ATOM     23  C   UNL     1      -1.176  12.051  18.549  0.00  0.00    +0.000 A 
ATOM     24  C   UNL     1       0.139  12.262  18.948  0.00  0.00    +0.000 A 
ATOM     25  C   UNL     1       1.087  11.253  18.787  0.00  0.00    +0.000 A 
ATOM     26  C   UNL     1       0.738  10.024  18.219  0.00  0.00    +0.000 A 
ATOM     27  C   UNL     1      -0.597   9.804  17.857  0.00  0.00    +0.000 A 
ENDBRANCH  17  26
ENDBRANCH  16  18
ENDBRANCH  15  16
ENDBRANCH   1  15
TORSDOF 6
ENDMDL
MODEL 6
REMARK VINA RESULT:      -7.1      2.549      3.476
REMARK  Name = 
REMARK  7 active torsions:
REMARK  status: ('A' for Active; 'I' for Inactive)
REMARK    1  A    between atoms: C_1  and  C_2
REMARK    2  A    between atoms: C_6  and  N_7
REMARK    3  A    between atoms: C_8  and  C_10
REMARK    4  A    between atoms: C_10  and  C_11
REMARK    5  A    between atoms: C_11  and  N_12
REMARK    6  A    between atoms: N_12  and  S_13
REMARK    7  A    between atoms: S_13  and  C_16
REMARK                            x       y       z     vdW  Elec       q    Type
REMARK                         _______ _______ _______ _____ _____    ______ ____
ROOT
ATOM      1  N   UNL     1       2.575   4.201  17.557  0.00  0.00    +0.000 NA
ATOM      2  H   UNL     1       2.990   4.372  16.623  0.00  0.00    +0.000 HD
ENDROOT
BRANCH   1   3
ATOM      3  S   UNL     1       3.726   3.392  18.507  0.00  0.00    +0.000 S 
ATOM      4  O   UNL     1       3.305   3.598  19.876  0.00  0.00    +0.000 OA
ATOM      5  O   UNL     1       3.913   2.081  17.925  0.00  0.00    +0.000 OA
BRANCH   3   6
ATOM      6  C   UNL     1       5.192   4.319  18.271  0.00  0.00    +0.000 A 
ATOM      7  C   UNL     1       5.897   4.910  19.342  0.00  0.00    +0.000 A 
ATOM      8  C   UNL     1       7.079   5.665  19.159  0.00  0.00    +0.000 A 
ATOM      9  C   UNL     1       7.656   5.885  17.897  0.00  0.00    +0.000 A 
ATOM     10  C   UNL     1       6.989   5.308  16.790  0.00  0.00    +0.000 A 
ATOM     11  N   UNL     1       7.379   5.402  15.511  0.00  0.00    +0.000 NA
ATOM     12  S   UNL     1       6.266   4.556  14.616  0.00  0.00    +0.000 S 
ATOM     13  N   UNL     1       5.242   4.039  15.811  0.00  0.00    +0.000 NA
ATOM     14  C   UNL     1       5.724   4.503  16.975  0.00  0.00    +0.000 A 
ENDBRANCH   3   6
ENDBRANCH   1   3
BRANCH   1  15
ATOM     15  C   UNL     1       1.930   5.394  18.145  0.00  0.00    +0.000 C 
BRANCH  15  16
ATOM     16  C   UNL     1       2.832   6.626  18.023  0.00  0.00    +0.000 C 
BRANCH  16  18
ATOM     17  N   UNL     1       1.803   8.831  17.795  0.00  0.00    +0.000 N 
ATOM     18  C   UNL     1       2.172   7.827  18.671  0.00  0.00    +0.000 C 
ATOM     19  O   UNL     1       2.059   7.873  19.896  0.00  0.00    +0.000 OA
ATOM     20  H   UNL     1       2.152   8.790  16.845  0.00  0.00    +0.000 HD
BRANCH  17  26
ATOM     21  C   UNL     1       1.981  13.556  19.250  0.00  0.00    +0.000 C 
ATOM     22  C   UNL     1       1.189  12.336  18.881  0.00  0.00    +0.000 A 
ATOM     23  C   UNL     1      -0.206  12.351  18.982  0.00  0.00    +0.000 A 
ATOM     24  C   UNL     1      -0.943  11.219  18.654  0.00  0.00    +0.000 A 
ATOM     25  C   UNL     1      -0.290  10.057  18.245  0.00  0.00    +0.000 A 
ATOM     26  C   UNL     1       1.104  10.006  18.165  0.00  0.00    +0.000 A 
ATOM     27  C   UNL     1       1.838  11.162  18.458  0.00  0.00    +0.000 A 
ENDBRANCH  17  26
ENDBRANCH  16  18
ENDBRANCH  15  16
ENDBRANCH   1  15
TORSDOF 6
ENDMDL
MODEL 7
REMARK VINA RESULT:      -7.1      2.577      3.600
REMARK  Name = 
REMARK  7 active torsions:
REMARK  status: ('A' for Active; 'I' for Inactive)
REMARK    1  A    between atoms: C_1  and  C_2
REMARK    2  A    between atoms: C_6  and  N_7
REMARK    3  A    between atoms: C_8  and  C_10
REMARK    4  A    between atoms: C_10  and  C_11
REMARK    5  A    between atoms: C_11  and  N_12
REMARK    6  A    between atoms: N_12  and  S_13
REMARK    7  A    between atoms: S_13  and  C_16
REMARK                            x       y       z     vdW  Elec       q    Type
REMARK                         _______ _______ _______ _____ _____    ______ ____
ROOT
ATOM      1  N   UNL     1       2.535   4.370  17.954  0.00  0.00    +0.000 NA
ATOM      2  H   UNL     1       2.760   4.596  16.968  0.00  0.00    +0.000 HD
ENDROOT
BRANCH   1   3
ATOM      3  S   UNL     1       3.779   3.393  18.569  0.00  0.00    +0.000 S 
ATOM      4  O   UNL     1       3.557   3.346  19.998  0.00  0.00    +0.000 OA
ATOM      5  O   UNL     1       3.843   2.211  17.738  0.00  0.00    +0.000 OA
BRANCH   3   6
ATOM      6  C   UNL     1       5.228   4.339  18.302  0.00  0.00    +0.000 A 
ATOM      7  C   UNL     1       5.952   4.934  19.357  0.00  0.00    +0.000 A 
ATOM      8  C   UNL     1       7.119   5.704  19.148  0.00  0.00    +0.000 A 
ATOM      9  C   UNL     1       7.663   5.937  17.874  0.00  0.00    +0.000 A 
ATOM     10  C   UNL     1       6.975   5.356  16.782  0.00  0.00    +0.000 A 
ATOM     11  N   UNL     1       7.333   5.460  15.493  0.00  0.00    +0.000 NA
ATOM     12  S   UNL     1       6.209   4.604  14.623  0.00  0.00    +0.000 S 
ATOM     13  N   UNL     1       5.221   4.070  15.839  0.00  0.00    +0.000 NA
ATOM     14  C   UNL     1       5.726   4.535  16.993  0.00  0.00    +0.000 A 
ENDBRANCH   3   6
ENDBRANCH   1   3
BRANCH   1  15
ATOM     15  C   UNL     1       2.140   5.548  18.755  0.00  0.00    +0.000 C 
BRANCH  15  16
ATOM     16  C   UNL     1       2.698   6.840  18.151  0.00  0.00    +0.000 C 
BRANCH  16  18
ATOM     17  N   UNL     1       1.719   9.065  17.893  0.00  0.00    +0.000 N 
ATOM     18  C   UNL     1       2.025   8.046  18.776  0.00  0.00    +0.000 C 
ATOM     19  O   UNL     1       1.850   8.082  19.994  0.00  0.00    +0.000 OA
ATOM     20  H   UNL     1       2.117   9.027  16.962  0.00  0.00    +0.000 HD
BRANCH  17  26
ATOM     21  C   UNL     1      -2.612  11.380  18.486  0.00  0.00    +0.000 C 
ATOM     22  C   UNL     1      -1.111  11.392  18.534  0.00  0.00    +0.000 A 
ATOM     23  C   UNL     1      -0.431  12.574  18.839  0.00  0.00    +0.000 A 
ATOM     24  C   UNL     1       0.958  12.593  18.871  0.00  0.00    +0.000 A 
ATOM     25  C   UNL     1       1.678  11.436  18.577  0.00  0.00    +0.000 A 
ATOM     26  C   UNL     1       1.022  10.248  18.239  0.00  0.00    +0.000 A 
ATOM     27  C   UNL     1      -0.378  10.226  18.248  0.00  0.00    +0.000 A 
ENDBRANCH  17  26
ENDBRANCH  16  18
ENDBRANCH  15  16
ENDBRANCH   1  15
TORSDOF 6
ENDMDL
MODEL 8
REMARK VINA RESULT:      -7.1      2.484      3.293
REMARK  Name = 
REMARK  7 active torsions:
REMARK  status: ('A' for Active; 'I' for Inactive)
REMARK    1  A    between atoms: C_1  and  C_2
REMARK    2  A    between atoms: C_6  and  N_7
REMARK    3  A    between atoms: C_8  and  C_10
REMARK    4  A    between atoms: C_10  and  C_11
REMARK    5  A    between atoms: C_11  and  N_12
REMARK    6  A    between atoms: N_12  and  S_13
REMARK    7  A    between atoms: S_13  and  C_16
REMARK                            x       y       z     vdW  Elec       q    Type
REMARK                         _______ _______ _______ _____ _____    ______ ____
ROOT
ATOM      1  N   UNL     1       3.266   5.863  20.072  0.00  0.00    +0.000 NA
ATOM      2  H   UNL     1       3.263   5.670  21.089  0.00  0.00    +0.000 HD
ENDROOT
BRANCH   1   3
ATOM      3  S   UNL     1       3.059   4.389  19.254  0.00  0.00    +0.000 S 
ATOM      4  O   UNL     1       3.381   3.365  20.224  0.00  0.00    +0.000 OA
ATOM      5  O   UNL     1       1.789   4.458  18.568  0.00  0.00    +0.000 OA
BRANCH   3   6
ATOM      6  C   UNL     1       4.338   4.390  18.059  0.00  0.00    +0.000 A 
ATOM      7  C   UNL     1       4.126   3.996  16.719  0.00  0.00    +0.000 A 
ATOM      8  C   UNL     1       5.155   3.989  15.750  0.00  0.00    +0.000 A 
ATOM      9  C   UNL     1       6.474   4.379  16.034  0.00  0.00    +0.000 A 
ATOM     10  C   UNL     1       6.737   4.789  17.363  0.00  0.00    +0.000 A 
ATOM     11  N   UNL     1       7.926   5.196  17.831  0.00  0.00    +0.000 NA
ATOM     12  S   UNL     1       7.700   5.562  19.434  0.00  0.00    +0.000 S 
ATOM     13  N   UNL     1       6.090   5.215  19.603  0.00  0.00    +0.000 NA
ATOM     14  C   UNL     1       5.646   4.796  18.407  0.00  0.00    +0.000 A 
ENDBRANCH   3   6
ENDBRANCH   1   3
BRANCH   1  15
ATOM     15  C   UNL     1       2.387   6.984  19.679  0.00  0.00    +0.000 C 
BRANCH  15  16
ATOM     16  C   UNL     1       1.486   7.412  20.841  0.00  0.00    +0.000 C 
BRANCH  16  18
ATOM     17  N   UNL     1       0.975   9.312  19.391  0.00  0.00    +0.000 N 
ATOM     18  C   UNL     1       1.098   8.871  20.695  0.00  0.00    +0.000 C 
ATOM     19  O   UNL     1       0.979   9.573  21.700  0.00  0.00    +0.000 OA
ATOM     20  H   UNL     1       1.321   8.715  18.649  0.00  0.00    +0.000 HD
BRANCH  17  26
ATOM     21  C   UNL     1       2.156  14.014  18.406  0.00  0.00    +0.000 C 
ATOM     22  C   UNL     1       1.127  12.928  18.530  0.00  0.00    +0.000 A 
ATOM     23  C   UNL     1      -0.228  13.225  18.353  0.00  0.00    +0.000 A 
ATOM     24  C   UNL     1      -1.185  12.225  18.479  0.00  0.00    +0.000 A 
ATOM     25  C   UNL     1      -0.797  10.926  18.806  0.00  0.00    +0.000 A 
ATOM     26  C   UNL     1       0.548  10.610  19.017  0.00  0.00    +0.000 A 
ATOM     27  C   UNL     1       1.510  11.613  18.848  0.00  0.00    +0.000 A 
ENDBRANCH  17  26
ENDBRANCH  16  18
ENDBRANCH  15  16
ENDBRANCH   1  15
TORSDOF 6
ENDMDL
MODEL 9
REMARK VINA RESULT:      -7.0      2.492      6.220
REMARK  Name = 
REMARK  7 active torsions:
REMARK  status: ('A' for Active; 'I' for Inactive)
REMARK    1  A    between atoms: C_1  and  C_2
REMARK    2  A    between atoms: C_6  and  N_7
REMARK    3  A    between atoms: C_8  and  C_10
REMARK    4  A    between atoms: C_10  and  C_11
REMARK    5  A    between atoms: C_11  and  N_12
REMARK    6  A    between atoms: N_12  and  S_13
REMARK    7  A    between atoms: S_13  and  C_16
REMARK                            x       y       z     vdW  Elec       q    Type
REMARK                         _______ _______ _______ _____ _____    ______ ____
ROOT
ATOM      1  N   UNL     1       1.778   4.326  19.163  0.00  0.00    +0.000 NA
ATOM      2  H   UNL     1       0.810   4.689  19.113  0.00  0.00    +0.000 HD
ENDROOT
BRANCH   1   3
ATOM      3  S   UNL     1       2.703   5.410  20.085  0.00  0.00    +0.000 S 
ATOM      4  O   UNL     1       2.132   5.366  21.413  0.00  0.00    +0.000 OA
ATOM      5  O   UNL     1       4.094   5.122  19.812  0.00  0.00    +0.000 OA
BRANCH   3   6
ATOM      6  C   UNL     1       2.315   6.976  19.406  0.00  0.00    +0.000 A 
ATOM      7  C   UNL     1       2.705   7.357  18.103  0.00  0.00    +0.000 A 
ATOM      8  C   UNL     1       2.400   8.622  17.550  0.00  0.00    +0.000 A 
ATOM      9  C   UNL     1       1.677   9.604  18.245  0.00  0.00    +0.000 A 
ATOM     10  C   UNL     1       1.258   9.269  19.555  0.00  0.00    +0.000 A 
ATOM     11  N   UNL     1       0.559  10.066  20.377  0.00  0.00    +0.000 NA
ATOM     12  S   UNL     1       0.324   9.207  21.777  0.00  0.00    +0.000 S 
ATOM     13  N   UNL     1       1.100   7.792  21.403  0.00  0.00    +0.000 NA
ATOM     14  C   UNL     1       1.582   7.922  20.156  0.00  0.00    +0.000 A 
ENDBRANCH   3   6
ENDBRANCH   1   3
BRANCH   1  15
ATOM     15  C   UNL     1       1.855   2.894  19.522  0.00  0.00    +0.000 C 
BRANCH  15  16
ATOM     16  C   UNL     1       2.365   2.056  18.346  0.00  0.00    +0.000 C 
BRANCH  16  18
ATOM     17  N   UNL     1       4.407   3.089  17.486  0.00  0.00    +0.000 N 
ATOM     18  C   UNL     1       3.042   2.945  17.321  0.00  0.00    +0.000 C 
ATOM     19  O   UNL     1       2.362   3.520  16.471  0.00  0.00    +0.000 OA
ATOM     20  H   UNL     1       4.822   2.762  18.351  0.00  0.00    +0.000 HD
BRANCH  17  26
ATOM     21  C   UNL     1       6.263   3.627  12.932  0.00  0.00    +0.000 C 
ATOM     22  C   UNL     1       6.169   4.075  14.362  0.00  0.00    +0.000 A 
ATOM     23  C   UNL     1       6.965   5.130  14.818  0.00  0.00    +0.000 A 
ATOM     24  C   UNL     1       6.891   5.539  16.144  0.00  0.00    +0.000 A 
ATOM     25  C   UNL     1       6.038   4.883  17.029  0.00  0.00    +0.000 A 
ATOM     26  C   UNL     1       5.253   3.806  16.606  0.00  0.00    +0.000 A 
ATOM     27  C   UNL     1       5.303   3.425  15.260  0.00  0.00    +0.000 A 
ENDBRANCH  17  26
ENDBRANCH  16  18
ENDBRANCH  15  16
ENDBRANCH   1  15
TORSDOF 6
ENDMDL
