MODEL 1
REMARK VINA RESULT:      -8.2      0.000      0.000
REMARK  Name = 
REMARK  10 active torsions:
REMARK  status: ('A' for Active; 'I' for Inactive)
REMARK    1  A    between atoms: C_1  and  O_2
REMARK    2  A    between atoms: O_2  and  C_3
REMARK    3  A    between atoms: C_5  and  C_6
REMARK    4  A    between atoms: N_8  and  C_9
REMARK    5  A    between atoms: C_12  and  C_13
REMARK    6  A    between atoms: C_17  and  C_18
REMARK    7  A    between atoms: C_18  and  C_19
REMARK    8  A    between atoms: C_23  and  N_24
REMARK    9  A    between atoms: C_28  and  O_29
REMARK   10  A    between atoms: C_30  and  O_31
REMARK                            x       y       z     vdW  Elec       q    Type
REMARK                         _______ _______ _______ _____ _____    ______ ____
ROOT
ATOM      1  C   UNL     1       0.224   9.748  20.690  0.00  0.00    +0.000 A 
ATOM      2  C   UNL     1       0.721   8.565  21.248  0.00  0.00    +0.000 A 
ATOM      3  C   UNL     1       1.542   7.693  20.532  0.00  0.00    +0.000 A 
ATOM      4  C   UNL     1       1.873   7.922  19.192  0.00  0.00    +0.000 A 
ATOM      5  C   UNL     1       1.361   9.094  18.609  0.00  0.00    +0.000 A 
ATOM      6  C   UNL     1       0.557  10.001  19.343  0.00  0.00    +0.000 A 
ENDROOT
BRANCH   4   7
ATOM      7  C   UNL     1       2.708   6.955  18.442  0.00  0.00    +0.000 A 
ATOM      8  C   UNL     1       3.855   7.352  17.739  0.00  0.00    +0.000 A 
ATOM      9  C   UNL     1       4.624   6.429  17.029  0.00  0.00    +0.000 A 
ATOM     10  C   UNL     1       4.277   5.077  17.015  0.00  0.00    +0.000 A 
ATOM     11  C   UNL     1       3.153   4.639  17.714  0.00  0.00    +0.000 A 
ATOM     12  C   UNL     1       2.380   5.585  18.409  0.00  0.00    +0.000 A 
BRANCH  11  13
ATOM     13  C   UNL     1       2.714   3.208  17.778  0.00  0.00    +0.000 C 
ATOM     14  C   UNL     1       3.709   2.088  17.941  0.00  0.00    +0.000 C 
ATOM     15  O   UNL     1       1.513   2.946  17.692  0.00  0.00    +0.000 OA
ENDBRANCH  11  13
ENDBRANCH   4   7
BRANCH   1  18
ATOM     16  C   UNL     1      -0.187  11.845  21.975  0.00  0.00    +0.000 C 
ATOM     17  O   UNL     1       0.883  12.398  21.741  0.00  0.00    +0.000 OA
ATOM     18  N   UNL     1      -0.592  10.618  21.474  0.00  0.00    +0.000 N 
ATOM     19  H   UNL     1      -1.587  10.396  21.513  0.00  0.00    +0.000 HD
BRANCH  16  22
ATOM     20  C   UNL     1      -1.963  14.617  23.888  0.00  0.00    +0.000 A 
ATOM     21  C   UNL     1      -0.965  13.948  23.165  0.00  0.00    +0.000 A 
ATOM     22  C   UNL     1      -1.150  12.601  22.811  0.00  0.00    +0.000 A 
ATOM     23  C   UNL     1      -2.330  11.925  23.157  0.00  0.00    +0.000 A 
ATOM     24  C   UNL     1      -3.310  12.589  23.869  0.00  0.00    +0.000 A 
ATOM     25  C   UNL     1      -3.129  13.921  24.236  0.00  0.00    +0.000 A 
BRANCH  20  27
ATOM     26  C   UNL     1      -2.043  16.927  23.286  0.00  0.00    +0.000 C 
ATOM     27  O   UNL     1      -1.910  15.926  24.283  0.00  0.00    +0.000 OA
ENDBRANCH  20  27
BRANCH  24  28
ATOM     28  O   UNL     1      -4.480  11.972  24.219  0.00  0.00    +0.000 OA
ATOM     29  H   UNL     1      -4.285  11.323  24.918  0.00  0.00    +0.000 HD
ENDBRANCH  24  28
BRANCH  25  30
ATOM     30  O   UNL     1      -4.131  14.538  24.938  0.00  0.00    +0.000 OA
ATOM     31  H   UNL     1      -3.703  15.309  25.360  0.00  0.00    +0.000 HD
ENDBRANCH  25  30
ENDBRANCH  16  22
ENDBRANCH   1  18
BRANCH   6  32
ATOM     32  N   UNL     1       0.115  11.224  18.651  0.00  0.00    +0.000 N 
ATOM     33  O   UNL     1      -1.076  11.309  18.317  0.00  0.00    +0.000 OA
ATOM     34  O   UNL     1       0.960  12.107  18.436  0.00  0.00    +0.000 OA
ENDBRANCH   6  32
TORSDOF 8
ENDMDL
MODEL 2
REMARK VINA RESULT:      -8.1      0.545      1.811
REMARK  Name = 
REMARK  10 active torsions:
REMARK  status: ('A' for Active; 'I' for Inactive)
REMARK    1  A    between atoms: C_1  and  O_2
REMARK    2  A    between atoms: O_2  and  C_3
REMARK    3  A    between atoms: C_5  and  C_6
REMARK    4  A    between atoms: N_8  and  C_9
REMARK    5  A    between atoms: C_12  and  C_13
REMARK    6  A    between atoms: C_17  and  C_18
REMARK    7  A    between atoms: C_18  and  C_19
REMARK    8  A    between atoms: C_23  and  N_24
REMARK    9  A    between atoms: C_28  and  O_29
REMARK   10  A    between atoms: C_30  and  O_31
REMARK                            x       y       z     vdW  Elec       q    Type
REMARK                         _______ _______ _______ _____ _____    ______ ____
ROOT
ATOM      1  C   UNL     1       0.110   9.865  20.630  0.00  0.00    +0.000 A 
ATOM      2  C   UNL     1       0.634   8.692  21.184  0.00  0.00    +0.000 A 
ATOM      3  C   UNL     1       1.494   7.854  20.472  0.00  0.00    +0.000 A 
ATOM      4  C   UNL     1       1.839   8.107  19.141  0.00  0.00    +0.000 A 
ATOM      5  C   UNL     1       1.300   9.269  18.561  0.00  0.00    +0.000 A 
ATOM      6  C   UNL     1       0.456  10.143  19.292  0.00  0.00    +0.000 A 
ENDROOT
BRANCH   4   7
ATOM      7  C   UNL     1       2.715   7.174  18.395  0.00  0.00    +0.000 A 
ATOM      8  C   UNL     1       3.847   7.618  17.695  0.00  0.00    +0.000 A 
ATOM      9  C   UNL     1       4.656   6.726  16.988  0.00  0.00    +0.000 A 
ATOM     10  C   UNL     1       4.366   5.360  16.975  0.00  0.00    +0.000 A 
ATOM     11  C   UNL     1       3.258   4.877  17.672  0.00  0.00    +0.000 A 
ATOM     12  C   UNL     1       2.444   5.791  18.363  0.00  0.00    +0.000 A 
BRANCH  11  13
ATOM     13  C   UNL     1       2.878   3.429  17.736  0.00  0.00    +0.000 C 
ATOM     14  C   UNL     1       3.808   2.400  18.324  0.00  0.00    +0.000 C 
ATOM     15  O   UNL     1       1.782   3.078  17.295  0.00  0.00    +0.000 OA
ENDBRANCH  11  13
ENDBRANCH   4   7
BRANCH   1  18
ATOM     16  C   UNL     1      -0.378  11.922  21.952  0.00  0.00    +0.000 C 
ATOM     17  O   UNL     1       0.688  12.500  21.762  0.00  0.00    +0.000 OA
ATOM     18  N   UNL     1      -0.745  10.701  21.410  0.00  0.00    +0.000 N 
ATOM     19  H   UNL     1      -1.737  10.460  21.413  0.00  0.00    +0.000 HD
BRANCH  16  22
ATOM     20  C   UNL     1      -3.480  12.801  23.978  0.00  0.00    +0.000 A 
ATOM     21  C   UNL     1      -2.622  12.090  23.126  0.00  0.00    +0.000 A 
ATOM     22  C   UNL     1      -1.379  12.641  22.775  0.00  0.00    +0.000 A 
ATOM     23  C   UNL     1      -0.979  13.888  23.284  0.00  0.00    +0.000 A 
ATOM     24  C   UNL     1      -1.828  14.583  24.123  0.00  0.00    +0.000 A 
ATOM     25  C   UNL     1      -3.068  14.049  24.465  0.00  0.00    +0.000 A 
BRANCH  20  27
ATOM     26  C   UNL     1      -5.848  12.782  23.664  0.00  0.00    +0.000 C 
ATOM     27  O   UNL     1      -4.708  12.371  24.402  0.00  0.00    +0.000 OA
ENDBRANCH  20  27
BRANCH  24  28
ATOM     28  O   UNL     1      -1.475  15.795  24.649  0.00  0.00    +0.000 OA
ATOM     29  H   UNL     1      -0.551  15.979  24.400  0.00  0.00    +0.000 HD
ENDBRANCH  24  28
BRANCH  25  30
ATOM     30  O   UNL     1      -3.874  14.775  25.303  0.00  0.00    +0.000 OA
ATOM     31  H   UNL     1      -3.682  15.710  25.087  0.00  0.00    +0.000 HD
ENDBRANCH  25  30
ENDBRANCH  16  22
ENDBRANCH   1  18
BRANCH   6  32
ATOM     32  N   UNL     1      -0.012  11.359  18.604  0.00  0.00    +0.000 N 
ATOM     33  O   UNL     1      -1.203  11.416  18.266  0.00  0.00    +0.000 OA
ATOM     34  O   UNL     1       0.812  12.263  18.399  0.00  0.00    +0.000 OA
ENDBRANCH   6  32
TORSDOF 8
ENDMDL
MODEL 3
REMARK VINA RESULT:      -8.0      1.882      2.828
REMARK  Name = 
REMARK  10 active torsions:
REMARK  status: ('A' for Active; 'I' for Inactive)
REMARK    1  A    between atoms: C_1  and  O_2
REMARK    2  A    between atoms: O_2  and  C_3
REMARK    3  A    between atoms: C_5  and  C_6
REMARK    4  A    between atoms: N_8  and  C_9
REMARK    5  A    between atoms: C_12  and  C_13
REMARK    6  A    between atoms: C_17  and  C_18
REMARK    7  A    between atoms: C_18  and  C_19
REMARK    8  A    between atoms: C_23  and  N_24
REMARK    9  A    between atoms: C_28  and  O_29
REMARK   10  A    between atoms: C_30  and  O_31
REMARK                            x       y       z     vdW  Elec       q    Type
REMARK                         _______ _______ _______ _____ _____    ______ ____
ROOT
ATOM      1  C   UNL     1       0.739  10.021  19.596  0.00  0.00    +0.000 A 
ATOM      2  C   UNL     1       1.123   9.881  18.258  0.00  0.00    +0.000 A 
ATOM      3  C   UNL     1       1.788   8.747  17.790  0.00  0.00    +0.000 A 
ATOM      4  C   UNL     1       2.161   7.703  18.644  0.00  0.00    +0.000 A 
ATOM      5  C   UNL     1       1.805   7.840  19.996  0.00  0.00    +0.000 A 
ATOM      6  C   UNL     1       1.097   8.973  20.470  0.00  0.00    +0.000 A 
ENDROOT
BRANCH   4   7
ATOM      7  C   UNL     1       2.909   6.533  18.128  0.00  0.00    +0.000 A 
ATOM      8  C   UNL     1       4.137   6.670  17.464  0.00  0.00    +0.000 A 
ATOM      9  C   UNL     1       4.823   5.557  16.975  0.00  0.00    +0.000 A 
ATOM     10  C   UNL     1       4.308   4.271  17.151  0.00  0.00    +0.000 A 
ATOM     11  C   UNL     1       3.098   4.091  17.820  0.00  0.00    +0.000 A 
ATOM     12  C   UNL     1       2.411   5.224  18.290  0.00  0.00    +0.000 A 
BRANCH  11  13
ATOM     13  C   UNL     1       2.477   2.752  18.077  0.00  0.00    +0.000 C 
ATOM     14  C   UNL     1       1.082   2.630  18.634  0.00  0.00    +0.000 C 
ATOM     15  O   UNL     1       3.124   1.734  17.828  0.00  0.00    +0.000 OA
ENDBRANCH  11  13
ENDBRANCH   4   7
BRANCH   1  18
ATOM     16  C   UNL     1       0.601  12.232  20.739  0.00  0.00    +0.000 C 
ATOM     17  O   UNL     1       1.788  12.344  21.032  0.00  0.00    +0.000 OA
ATOM     18  N   UNL     1       0.039  11.191  20.018  0.00  0.00    +0.000 N 
ATOM     19  H   UNL     1      -0.883  11.343  19.607  0.00  0.00    +0.000 HD
BRANCH  16  22
ATOM     20  C   UNL     1      -1.476  14.698  22.764  0.00  0.00    +0.000 A 
ATOM     21  C   UNL     1      -0.709  13.566  22.456  0.00  0.00    +0.000 A 
ATOM     22  C   UNL     1      -0.283  13.354  21.135  0.00  0.00    +0.000 A 
ATOM     23  C   UNL     1      -0.603  14.274  20.123  0.00  0.00    +0.000 A 
ATOM     24  C   UNL     1      -1.358  15.388  20.432  0.00  0.00    +0.000 A 
ATOM     25  C   UNL     1      -1.796  15.598  21.738  0.00  0.00    +0.000 A 
BRANCH  20  27
ATOM     26  C   UNL     1      -3.029  14.275  24.529  0.00  0.00    +0.000 C 
ATOM     27  O   UNL     1      -1.942  15.023  24.009  0.00  0.00    +0.000 OA
ENDBRANCH  20  27
BRANCH  24  28
ATOM     28  O   UNL     1      -1.684  16.315  19.481  0.00  0.00    +0.000 OA
ATOM     29  H   UNL     1      -1.961  17.132  19.933  0.00  0.00    +0.000 HD
ENDBRANCH  24  28
BRANCH  25  30
ATOM     30  O   UNL     1      -2.540  16.720  21.995  0.00  0.00    +0.000 OA
ATOM     31  H   UNL     1      -2.390  17.303  21.225  0.00  0.00    +0.000 HD
ENDBRANCH  25  30
ENDBRANCH  16  22
ENDBRANCH   1  18
BRANCH   6  32
ATOM     32  N   UNL     1       0.728   8.990  21.896  0.00  0.00    +0.000 N 
ATOM     33  O   UNL     1      -0.441   8.709  22.200  0.00  0.00    +0.000 OA
ATOM     34  O   UNL     1       1.607   9.286  22.720  0.00  0.00    +0.000 OA
ENDBRANCH   6  32
TORSDOF 8
ENDMDL
MODEL 4
REMARK VINA RESULT:      -8.0      2.212      3.416
REMARK  Name = 
REMARK  10 active torsions:
REMARK  status: ('A' for Active; 'I' for Inactive)
REMARK    1  A    between atoms: C_1  and  O_2
REMARK    2  A    between atoms: O_2  and  C_3
REMARK    3  A    between atoms: C_5  and  C_6
REMARK    4  A    between atoms: N_8  and  C_9
REMARK    5  A    between atoms: C_12  and  C_13
REMARK    6  A    between atoms: C_17  and  C_18
REMARK    7  A    between atoms: C_18  and  C_19
REMARK    8  A    between atoms: C_23  and  N_24
REMARK    9  A    between atoms: C_28  and  O_29
REMARK   10  A    between atoms: C_30  and  O_31
REMARK                            x       y       z     vdW  Elec       q    Type
REMARK                         _______ _______ _______ _____ _____    ______ ____
ROOT
ATOM      1  C   UNL     1       0.706  10.037  19.617  0.00  0.00    +0.000 A 
ATOM      2  C   UNL     1       1.104   9.938  18.280  0.00  0.00    +0.000 A 
ATOM      3  C   UNL     1       1.814   8.837  17.795  0.00  0.00    +0.000 A 
ATOM      4  C   UNL     1       2.218   7.792  18.632  0.00  0.00    +0.000 A 
ATOM      5  C   UNL     1       1.847   7.889  19.984  0.00  0.00    +0.000 A 
ATOM      6  C   UNL     1       1.095   8.987  20.474  0.00  0.00    +0.000 A 
ENDROOT
BRANCH   4   7
ATOM      7  C   UNL     1       3.012   6.660  18.100  0.00  0.00    +0.000 A 
ATOM      8  C   UNL     1       2.489   5.361  18.018  0.00  0.00    +0.000 A 
ATOM      9  C   UNL     1       3.255   4.303  17.524  0.00  0.00    +0.000 A 
ATOM     10  C   UNL     1       4.562   4.518  17.081  0.00  0.00    +0.000 A 
ATOM     11  C   UNL     1       5.112   5.798  17.131  0.00  0.00    +0.000 A 
ATOM     12  C   UNL     1       4.334   6.848  17.649  0.00  0.00    +0.000 A 
BRANCH  11  13
ATOM     13  C   UNL     1       6.495   6.132  16.660  0.00  0.00    +0.000 C 
ATOM     14  C   UNL     1       7.392   7.048  17.450  0.00  0.00    +0.000 C 
ATOM     15  O   UNL     1       6.900   5.647  15.602  0.00  0.00    +0.000 OA
ENDBRANCH  11  13
ENDBRANCH   4   7
BRANCH   1  18
ATOM     16  C   UNL     1       0.482  12.227  20.788  0.00  0.00    +0.000 C 
ATOM     17  O   UNL     1       1.664  12.384  21.078  0.00  0.00    +0.000 OA
ATOM     18  N   UNL     1      -0.040  11.173  20.055  0.00  0.00    +0.000 N 
ATOM     19  H   UNL     1      -0.969  11.292  19.649  0.00  0.00    +0.000 HD
BRANCH  16  22
ATOM     20  C   UNL     1      -1.708  14.565  22.846  0.00  0.00    +0.000 A 
ATOM     21  C   UNL     1      -0.898  13.468  22.519  0.00  0.00    +0.000 A 
ATOM     22  C   UNL     1      -0.446  13.307  21.200  0.00  0.00    +0.000 A 
ATOM     23  C   UNL     1      -0.781  14.244  20.209  0.00  0.00    +0.000 A 
ATOM     24  C   UNL     1      -1.579  15.323  20.536  0.00  0.00    +0.000 A 
ATOM     25  C   UNL     1      -2.043  15.482  21.840  0.00  0.00    +0.000 A 
BRANCH  20  27
ATOM     26  C   UNL     1      -3.285  14.053  24.566  0.00  0.00    +0.000 C 
ATOM     27  O   UNL     1      -2.204  14.839  24.091  0.00  0.00    +0.000 OA
ENDBRANCH  20  27
BRANCH  24  28
ATOM     28  O   UNL     1      -1.922  16.265  19.605  0.00  0.00    +0.000 OA
ATOM     29  H   UNL     1      -2.239  17.057  20.075  0.00  0.00    +0.000 HD
ENDBRANCH  24  28
BRANCH  25  30
ATOM     30  O   UNL     1      -2.829  16.570  22.116  0.00  0.00    +0.000 OA
ATOM     31  H   UNL     1      -2.658  17.195  21.384  0.00  0.00    +0.000 HD
ENDBRANCH  25  30
ENDBRANCH  16  22
ENDBRANCH   1  18
BRANCH   6  32
ATOM     32  N   UNL     1       0.716   8.963  21.897  0.00  0.00    +0.000 N 
ATOM     33  O   UNL     1       1.577   9.268  22.736  0.00  0.00    +0.000 OA
ATOM     34  O   UNL     1      -0.447   8.639  22.183  0.00  0.00    +0.000 OA
ENDBRANCH   6  32
TORSDOF 8
ENDMDL
MODEL 5
REMARK VINA RESULT:      -8.0      2.274      3.177
REMARK  Name = 
REMARK  10 active torsions:
REMARK  status: ('A' for Active; 'I' for Inactive)
REMARK    1  A    between atoms: C_1  and  O_2
REMARK    2  A    between atoms: O_2  and  C_3
REMARK    3  A    between atoms: C_5  and  C_6
REMARK    4  A    between atoms: N_8  and  C_9
REMARK    5  A    between atoms: C_12  and  C_13
REMARK    6  A    between atoms: C_17  and  C_18
REMARK    7  A    between atoms: C_18  and  C_19
REMARK    8  A    between atoms: C_23  and  N_24
REMARK    9  A    between atoms: C_28  and  O_29
REMARK   10  A    between atoms: C_30  and  O_31
REMARK                            x       y       z     vdW  Elec       q    Type
REMARK                         _______ _______ _______ _____ _____    ______ ____
ROOT
ATOM      1  C   UNL     1       0.659   9.890  19.647  0.00  0.00    +0.000 A 
ATOM      2  C   UNL     1       1.106   9.862  18.322  0.00  0.00    +0.000 A 
ATOM      3  C   UNL     1       1.880   8.814  17.821  0.00  0.00    +0.000 A 
ATOM      4  C   UNL     1       2.302   7.755  18.630  0.00  0.00    +0.000 A 
ATOM      5  C   UNL     1       1.882   7.781  19.971  0.00  0.00    +0.000 A 
ATOM      6  C   UNL     1       1.066   8.824  20.476  0.00  0.00    +0.000 A 
ENDROOT
BRANCH   4   7
ATOM      7  C   UNL     1       3.163   6.680  18.083  0.00  0.00    +0.000 A 
ATOM      8  C   UNL     1       2.694   5.370  17.908  0.00  0.00    +0.000 A 
ATOM      9  C   UNL     1       3.522   4.367  17.401  0.00  0.00    +0.000 A 
ATOM     10  C   UNL     1       4.840   4.650  17.037  0.00  0.00    +0.000 A 
ATOM     11  C   UNL     1       5.339   5.944  17.181  0.00  0.00    +0.000 A 
ATOM     12  C   UNL     1       4.498   6.938  17.710  0.00  0.00    +0.000 A 
BRANCH  11  13
ATOM     13  C   UNL     1       6.730   6.350  16.798  0.00  0.00    +0.000 C 
ATOM     14  C   UNL     1       7.482   7.399  17.576  0.00  0.00    +0.000 C 
ATOM     15  O   UNL     1       7.265   5.814  15.826  0.00  0.00    +0.000 OA
ENDBRANCH  11  13
ENDBRANCH   4   7
BRANCH   1  18
ATOM     16  C   UNL     1       0.299  12.020  20.892  0.00  0.00    +0.000 C 
ATOM     17  O   UNL     1       1.462  12.217  21.229  0.00  0.00    +0.000 OA
ATOM     18  N   UNL     1      -0.151  10.974  20.103  0.00  0.00    +0.000 N 
ATOM     19  H   UNL     1      -1.071  11.068  19.670  0.00  0.00    +0.000 HD
BRANCH  16  22
ATOM     20  C   UNL     1      -1.407  14.941  22.641  0.00  0.00    +0.000 A 
ATOM     21  C   UNL     1      -0.456  13.951  22.358  0.00  0.00    +0.000 A 
ATOM     22  C   UNL     1      -0.690  13.042  21.314  0.00  0.00    +0.000 A 
ATOM     23  C   UNL     1      -1.858  13.126  20.538  0.00  0.00    +0.000 A 
ATOM     24  C   UNL     1      -2.791  14.104  20.821  0.00  0.00    +0.000 A 
ATOM     25  C   UNL     1      -2.572  15.002  21.864  0.00  0.00    +0.000 A 
BRANCH  20  27
ATOM     26  C   UNL     1      -1.239  15.451  24.968  0.00  0.00    +0.000 C 
ATOM     27  O   UNL     1      -1.293  15.890  23.620  0.00  0.00    +0.000 OA
ENDBRANCH  20  27
BRANCH  24  28
ATOM     28  O   UNL     1      -3.938  14.230  20.086  0.00  0.00    +0.000 OA
ATOM     29  H   UNL     1      -4.457  13.412  20.188  0.00  0.00    +0.000 HD
ENDBRANCH  24  28
BRANCH  25  30
ATOM     30  O   UNL     1      -3.526  15.957  22.103  0.00  0.00    +0.000 OA
ATOM     31  H   UNL     1      -3.307  16.313  22.987  0.00  0.00    +0.000 HD
ENDBRANCH  25  30
ENDBRANCH  16  22
ENDBRANCH   1  18
BRANCH   6  32
ATOM     32  N   UNL     1       0.641   8.727  21.883  0.00  0.00    +0.000 N 
ATOM     33  O   UNL     1      -0.474   8.240  22.123  0.00  0.00    +0.000 OA
ATOM     34  O   UNL     1       1.421   9.138  22.755  0.00  0.00    +0.000 OA
ENDBRANCH   6  32
TORSDOF 8
ENDMDL
MODEL 6
REMARK VINA RESULT:      -7.9      2.546      3.820
REMARK  Name = 
REMARK  10 active torsions:
REMARK  status: ('A' for Active; 'I' for Inactive)
REMARK    1  A    between atoms: C_1  and  O_2
REMARK    2  A    between atoms: O_2  and  C_3
REMARK    3  A    between atoms: C_5  and  C_6
REMARK    4  A    between atoms: N_8  and  C_9
REMARK    5  A    between atoms: C_12  and  C_13
REMARK    6  A    between atoms: C_17  and  C_18
REMARK    7  A    between atoms: C_18  and  C_19
REMARK    8  A    between atoms: C_23  and  N_24
REMARK    9  A    between atoms: C_28  and  O_29
REMARK   10  A    between atoms: C_30  and  O_31
REMARK                            x       y       z     vdW  Elec       q    Type
REMARK                         _______ _______ _______ _____ _____    ______ ____
ROOT
ATOM      1  C   UNL     1       0.978   9.943  19.414  0.00  0.00    +0.000 A 
ATOM      2  C   UNL     1       1.455   9.820  18.105  0.00  0.00    +0.000 A 
ATOM      3  C   UNL     1       2.145   8.689  17.668  0.00  0.00    +0.000 A 
ATOM      4  C   UNL     1       2.452   7.631  18.530  0.00  0.00    +0.000 A 
ATOM      5  C   UNL     1       2.002   7.750  19.856  0.00  0.00    +0.000 A 
ATOM      6  C   UNL     1       1.268   8.881  20.295  0.00  0.00    +0.000 A 
ENDROOT
BRANCH   4   7
ATOM      7  C   UNL     1       3.228   6.464  18.051  0.00  0.00    +0.000 A 
ATOM      8  C   UNL     1       2.644   5.198  17.893  0.00  0.00    +0.000 A 
ATOM      9  C   UNL     1       3.394   4.106  17.450  0.00  0.00    +0.000 A 
ATOM     10  C   UNL     1       4.746   4.253  17.136  0.00  0.00    +0.000 A 
ATOM     11  C   UNL     1       5.360   5.499  17.264  0.00  0.00    +0.000 A 
ATOM     12  C   UNL     1       4.595   6.583  17.729  0.00  0.00    +0.000 A 
BRANCH  11  13
ATOM     13  C   UNL     1       6.797   5.760  16.931  0.00  0.00    +0.000 C 
ATOM     14  C   UNL     1       7.492   7.015  17.391  0.00  0.00    +0.000 C 
ATOM     15  O   UNL     1       7.418   4.930  16.266  0.00  0.00    +0.000 OA
ENDBRANCH  11  13
ENDBRANCH   4   7
BRANCH   1  18
ATOM     16  C   UNL     1      -1.055  11.386  19.446  0.00  0.00    +0.000 C 
ATOM     17  O   UNL     1      -1.806  10.632  18.834  0.00  0.00    +0.000 OA
ATOM     18  N   UNL     1       0.256  11.111  19.803  0.00  0.00    +0.000 N 
ATOM     19  H   UNL     1       0.678  11.686  20.533  0.00  0.00    +0.000 HD
BRANCH  16  22
ATOM     20  C   UNL     1      -3.335  14.004  21.009  0.00  0.00    +0.000 A 
ATOM     21  C   UNL     1      -2.889  12.763  20.534  0.00  0.00    +0.000 A 
ATOM     22  C   UNL     1      -1.639  12.670  19.901  0.00  0.00    +0.000 A 
ATOM     23  C   UNL     1      -0.824  13.804  19.756  0.00  0.00    +0.000 A 
ATOM     24  C   UNL     1      -1.268  15.024  20.227  0.00  0.00    +0.000 A 
ATOM     25  C   UNL     1      -2.512  15.127  20.844  0.00  0.00    +0.000 A 
BRANCH  20  27
ATOM     26  C   UNL     1      -4.758  13.538  22.870  0.00  0.00    +0.000 C 
ATOM     27  O   UNL     1      -4.523  14.225  21.651  0.00  0.00    +0.000 OA
ENDBRANCH  20  27
BRANCH  24  28
ATOM     28  O   UNL     1      -0.503  16.153  20.116  0.00  0.00    +0.000 OA
ATOM     29  H   UNL     1      -1.015  16.823  19.628  0.00  0.00    +0.000 HD
ENDBRANCH  24  28
BRANCH  25  30
ATOM     30  O   UNL     1      -2.907  16.359  21.297  0.00  0.00    +0.000 OA
ATOM     31  H   UNL     1      -3.401  16.754  20.552  0.00  0.00    +0.000 HD
ENDBRANCH  25  30
ENDBRANCH  16  22
ENDBRANCH   1  18
BRANCH   6  32
ATOM     32  N   UNL     1       0.800   8.880  21.692  0.00  0.00    +0.000 N 
ATOM     33  O   UNL     1       1.606   9.205  22.578  0.00  0.00    +0.000 OA
ATOM     34  O   UNL     1      -0.376   8.554  21.910  0.00  0.00    +0.000 OA
ENDBRANCH   6  32
TORSDOF 8
ENDMDL
MODEL 7
REMARK VINA RESULT:      -7.9      2.692      3.525
REMARK  Name = 
REMARK  10 active torsions:
REMARK  status: ('A' for Active; 'I' for Inactive)
REMARK    1  A    between atoms: C_1  and  O_2
REMARK    2  A    between atoms: O_2  and  C_3
REMARK    3  A    between atoms: C_5  and  C_6
REMARK    4  A    between atoms: N_8  and  C_9
REMARK    5  A    between atoms: C_12  and  C_13
REMARK    6  A    between atoms: C_17  and  C_18
REMARK    7  A    between atoms: C_18  and  C_19
REMARK    8  A    between atoms: C_23  and  N_24
REMARK    9  A    between atoms: C_28  and  O_29
REMARK   10  A    between atoms: C_30  and  O_31
REMARK                            x       y       z     vdW  Elec       q    Type
REMARK                         _______ _______ _______ _____ _____    ______ ____
ROOT
ATOM      1  C   UNL     1       1.141  10.052  19.416  0.00  0.00    +0.000 A 
ATOM      2  C   UNL     1       1.671   9.900  18.131  0.00  0.00    +0.000 A 
ATOM      3  C   UNL     1       2.229   8.698  17.694  0.00  0.00    +0.000 A 
ATOM      4  C   UNL     1       2.343   7.587  18.536  0.00  0.00    +0.000 A 
ATOM      5  C   UNL     1       1.838   7.730  19.839  0.00  0.00    +0.000 A 
ATOM      6  C   UNL     1       1.237   8.938  20.276  0.00  0.00    +0.000 A 
ENDROOT
BRANCH   4   7
ATOM      7  C   UNL     1       2.983   6.338  18.060  0.00  0.00    +0.000 A 
ATOM      8  C   UNL     1       2.285   5.123  17.996  0.00  0.00    +0.000 A 
ATOM      9  C   UNL     1       2.907   3.954  17.555  0.00  0.00    +0.000 A 
ATOM     10  C   UNL     1       4.243   3.969  17.148  0.00  0.00    +0.000 A 
ATOM     11  C   UNL     1       4.967   5.161  17.181  0.00  0.00    +0.000 A 
ATOM     12  C   UNL     1       4.330   6.325  17.646  0.00  0.00    +0.000 A 
BRANCH  11  13
ATOM     13  C   UNL     1       6.395   5.283  16.746  0.00  0.00    +0.000 C 
ATOM     14  C   UNL     1       7.510   4.629  17.521  0.00  0.00    +0.000 C 
ATOM     15  O   UNL     1       6.659   5.934  15.733  0.00  0.00    +0.000 OA
ENDBRANCH  11  13
ENDBRANCH   4   7
BRANCH   1  18
ATOM     16  C   UNL     1      -0.762  11.653  19.589  0.00  0.00    +0.000 C 
ATOM     17  O   UNL     1      -1.636  10.925  19.128  0.00  0.00    +0.000 OA
ATOM     18  N   UNL     1       0.559  11.296  19.805  0.00  0.00    +0.000 N 
ATOM     19  H   UNL     1       1.110  11.879  20.436  0.00  0.00    +0.000 HD
BRANCH  16  22
ATOM     20  C   UNL     1      -1.063  15.427  19.988  0.00  0.00    +0.000 A 
ATOM     21  C   UNL     1      -0.545  14.182  19.606  0.00  0.00    +0.000 A 
ATOM     22  C   UNL     1      -1.191  13.005  20.018  0.00  0.00    +0.000 A 
ATOM     23  C   UNL     1      -2.361  13.065  20.794  0.00  0.00    +0.000 A 
ATOM     24  C   UNL     1      -2.867  14.294  21.167  0.00  0.00    +0.000 A 
ATOM     25  C   UNL     1      -2.224  15.466  20.773  0.00  0.00    +0.000 A 
BRANCH  20  27
ATOM     26  C   UNL     1      -0.659  17.064  18.296  0.00  0.00    +0.000 C 
ATOM     27  O   UNL     1      -0.535  16.642  19.645  0.00  0.00    +0.000 OA
ENDBRANCH  20  27
BRANCH  24  28
ATOM     28  O   UNL     1      -4.008  14.399  21.913  0.00  0.00    +0.000 OA
ATOM     29  H   UNL     1      -3.753  14.537  22.844  0.00  0.00    +0.000 HD
ENDBRANCH  24  28
BRANCH  25  30
ATOM     30  O   UNL     1      -2.766  16.662  21.166  0.00  0.00    +0.000 OA
ATOM     31  H   UNL     1      -2.900  16.572  22.130  0.00  0.00    +0.000 HD
ENDBRANCH  25  30
ENDBRANCH  16  22
ENDBRANCH   1  18
BRANCH   6  32
ATOM     32  N   UNL     1       0.694   8.964  21.645  0.00  0.00    +0.000 N 
ATOM     33  O   UNL     1       1.354   9.538  22.524  0.00  0.00    +0.000 OA
ATOM     34  O   UNL     1      -0.397   8.409  21.848  0.00  0.00    +0.000 OA
ENDBRANCH   6  32
TORSDOF 8
ENDMDL
MODEL 8
REMARK VINA RESULT:      -7.9      2.313      3.551
REMARK  Name = 
REMARK  10 active torsions:
REMARK  status: ('A' for Active; 'I' for Inactive)
REMARK    1  A    between atoms: C_1  and  O_2
REMARK    2  A    between atoms: O_2  and  C_3
REMARK    3  A    between atoms: C_5  and  C_6
REMARK    4  A    between atoms: N_8  and  C_9
REMARK    5  A    between atoms: C_12  and  C_13
REMARK    6  A    between atoms: C_17  and  C_18
REMARK    7  A    between atoms: C_18  and  C_19
REMARK    8  A    between atoms: C_23  and  N_24
REMARK    9  A    between atoms: C_28  and  O_29
REMARK   10  A    between atoms: C_30  and  O_31
REMARK                            x       y       z     vdW  Elec       q    Type
REMARK                         _______ _______ _______ _____ _____    ______ ____
ROOT
ATOM      1  C   UNL     1       0.737   9.917  19.531  0.00  0.00    +0.000 A 
ATOM      2  C   UNL     1       1.168   9.838  18.203  0.00  0.00    +0.000 A 
ATOM      3  C   UNL     1       1.931   8.768  17.732  0.00  0.00    +0.000 A 
ATOM      4  C   UNL     1       2.359   7.737  18.575  0.00  0.00    +0.000 A 
ATOM      5  C   UNL     1       1.955   7.816  19.919  0.00  0.00    +0.000 A 
ATOM      6  C   UNL     1       1.149   8.881  20.394  0.00  0.00    +0.000 A 
ENDROOT
BRANCH   4   7
ATOM      7  C   UNL     1       3.208   6.639  18.058  0.00  0.00    +0.000 A 
ATOM      8  C   UNL     1       2.726   5.329  17.921  0.00  0.00    +0.000 A 
ATOM      9  C   UNL     1       3.544   4.304  17.442  0.00  0.00    +0.000 A 
ATOM     10  C   UNL     1       4.864   4.563  17.070  0.00  0.00    +0.000 A 
ATOM     11  C   UNL     1       5.377   5.856  17.176  0.00  0.00    +0.000 A 
ATOM     12  C   UNL     1       4.545   6.872  17.678  0.00  0.00    +0.000 A 
BRANCH  11  13
ATOM     13  C   UNL     1       6.771   6.237  16.783  0.00  0.00    +0.000 C 
ATOM     14  C   UNL     1       7.548   7.272  17.553  0.00  0.00    +0.000 C 
ATOM     15  O   UNL     1       7.288   5.690  15.807  0.00  0.00    +0.000 OA
ENDBRANCH  11  13
ENDBRANCH   4   7
BRANCH   1  18
ATOM     16  C   UNL     1       0.388  12.068  20.744  0.00  0.00    +0.000 C 
ATOM     17  O   UNL     1       1.547  12.246  21.106  0.00  0.00    +0.000 OA
ATOM     18  N   UNL     1      -0.063  11.021  19.955  0.00  0.00    +0.000 N 
ATOM     19  H   UNL     1      -0.970  11.128  19.499  0.00  0.00    +0.000 HD
BRANCH  16  22
ATOM     20  C   UNL     1      -2.821  14.061  21.219  0.00  0.00    +0.000 A 
ATOM     21  C   UNL     1      -1.940  13.080  20.743  0.00  0.00    +0.000 A 
ATOM     22  C   UNL     1      -0.591  13.112  21.130  0.00  0.00    +0.000 A 
ATOM     23  C   UNL     1      -0.119  14.106  22.003  0.00  0.00    +0.000 A 
ATOM     24  C   UNL     1      -0.991  15.070  22.469  0.00  0.00    +0.000 A 
ATOM     25  C   UNL     1      -2.329  15.053  22.080  0.00  0.00    +0.000 A 
BRANCH  20  27
ATOM     26  C   UNL     1      -4.735  13.070  20.189  0.00  0.00    +0.000 C 
ATOM     27  O   UNL     1      -4.156  14.135  20.927  0.00  0.00    +0.000 OA
ENDBRANCH  20  27
BRANCH  24  28
ATOM     28  O   UNL     1      -0.578  16.051  23.329  0.00  0.00    +0.000 OA
ATOM     29  H   UNL     1      -1.357  16.573  23.593  0.00  0.00    +0.000 HD
ENDBRANCH  24  28
BRANCH  25  30
ATOM     30  O   UNL     1      -3.156  16.028  22.571  0.00  0.00    +0.000 OA
ATOM     31  H   UNL     1      -3.988  15.930  22.067  0.00  0.00    +0.000 HD
ENDBRANCH  25  30
ENDBRANCH  16  22
ENDBRANCH   1  18
BRANCH   6  32
ATOM     32  N   UNL     1       0.740   8.838  21.808  0.00  0.00    +0.000 N 
ATOM     33  O   UNL     1       1.579   9.144  22.668  0.00  0.00    +0.000 OA
ATOM     34  O   UNL     1      -0.425   8.497  22.066  0.00  0.00    +0.000 OA
ENDBRANCH   6  32
TORSDOF 8
ENDMDL
MODEL 9
REMARK VINA RESULT:      -7.9      2.554      3.818
REMARK  Name = 
REMARK  10 active torsions:
REMARK  status: ('A' for Active; 'I' for Inactive)
REMARK    1  A    between atoms: C_1  and  O_2
REMARK    2  A    between atoms: O_2  and  C_3
REMARK    3  A    between atoms: C_5  and  C_6
REMARK    4  A    between atoms: N_8  and  C_9
REMARK    5  A    between atoms: C_12  and  C_13
REMARK    6  A    between atoms: C_17  and  C_18
REMARK    7  A    between atoms: C_18  and  C_19
REMARK    8  A    between atoms: C_23  and  N_24
REMARK    9  A    between atoms: C_28  and  O_29
REMARK   10  A    between atoms: C_30  and  O_31
REMARK                            x       y       z     vdW  Elec       q    Type
REMARK                         _______ _______ _______ _____ _____    ______ ____
ROOT
ATOM      1  C   UNL     1       1.243   9.911  19.264  0.00  0.00    +0.000 A 
ATOM      2  C   UNL     1       1.754   9.640  17.991  0.00  0.00    +0.000 A 
ATOM      3  C   UNL     1       2.251   8.382  17.641  0.00  0.00    +0.000 A 
ATOM      4  C   UNL     1       2.319   7.333  18.563  0.00  0.00    +0.000 A 
ATOM      5  C   UNL     1       1.833   7.597  19.855  0.00  0.00    +0.000 A 
ATOM      6  C   UNL     1       1.294   8.861  20.204  0.00  0.00    +0.000 A 
ENDROOT
BRANCH   4   7
ATOM      7  C   UNL     1       2.896   6.023  18.178  0.00  0.00    +0.000 A 
ATOM      8  C   UNL     1       2.092   4.896  17.952  0.00  0.00    +0.000 A 
ATOM      9  C   UNL     1       2.652   3.667  17.600  0.00  0.00    +0.000 A 
ATOM     10  C   UNL     1       4.034   3.533  17.447  0.00  0.00    +0.000 A 
ATOM     11  C   UNL     1       4.866   4.635  17.647  0.00  0.00    +0.000 A 
ATOM     12  C   UNL     1       4.286   5.860  18.019  0.00  0.00    +0.000 A 
BRANCH  11  13
ATOM     13  C   UNL     1       6.355   4.597  17.485  0.00  0.00    +0.000 C 
ATOM     14  C   UNL     1       6.998   4.686  16.126  0.00  0.00    +0.000 C 
ATOM     15  O   UNL     1       7.064   4.488  18.488  0.00  0.00    +0.000 OA
ENDBRANCH  11  13
ENDBRANCH   4   7
BRANCH   1  18
ATOM     16  C   UNL     1      -0.589  11.599  19.362  0.00  0.00    +0.000 C 
ATOM     17  O   UNL     1      -1.507  10.871  18.995  0.00  0.00    +0.000 OA
ATOM     18  N   UNL     1       0.725  11.207  19.562  0.00  0.00    +0.000 N 
ATOM     19  H   UNL     1       1.321  11.819  20.121  0.00  0.00    +0.000 HD
BRANCH  16  22
ATOM     20  C   UNL     1      -2.087  14.695  20.996  0.00  0.00    +0.000 A 
ATOM     21  C   UNL     1      -1.862  13.344  20.695  0.00  0.00    +0.000 A 
ATOM     22  C   UNL     1      -0.949  13.000  19.685  0.00  0.00    +0.000 A 
ATOM     23  C   UNL     1      -0.245  13.994  18.987  0.00  0.00    +0.000 A 
ATOM     24  C   UNL     1      -0.470  15.323  19.288  0.00  0.00    +0.000 A 
ATOM     25  C   UNL     1      -1.384  15.673  20.279  0.00  0.00    +0.000 A 
BRANCH  20  27
ATOM     26  C   UNL     1      -4.240  14.596  22.026  0.00  0.00    +0.000 C 
ATOM     27  O   UNL     1      -2.939  15.159  21.960  0.00  0.00    +0.000 OA
ENDBRANCH  20  27
BRANCH  24  28
ATOM     28  O   UNL     1       0.201  16.325  18.640  0.00  0.00    +0.000 OA
ATOM     29  H   UNL     1       1.064  15.977  18.351  0.00  0.00    +0.000 HD
ENDBRANCH  24  28
BRANCH  25  30
ATOM     30  O   UNL     1      -1.569  17.005  20.544  0.00  0.00    +0.000 OA
ATOM     31  H   UNL     1      -2.402  17.045  21.056  0.00  0.00    +0.000 HD
ENDBRANCH  25  30
ENDBRANCH  16  22
ENDBRANCH   1  18
BRANCH   6  32
ATOM     32  N   UNL     1       0.766   9.014  21.570  0.00  0.00    +0.000 N 
ATOM     33  O   UNL     1      -0.344   8.523  21.826  0.00  0.00    +0.000 OA
ATOM     34  O   UNL     1       1.459   9.628  22.396  0.00  0.00    +0.000 OA
ENDBRANCH   6  32
TORSDOF 8
ENDMDL
