MODEL 1
REMARK VINA RESULT:      -8.1      0.000      0.000
REMARK  Name = 
REMARK  4 active torsions:
REMARK  status: ('A' for Active; 'I' for Inactive)
REMARK    1  A    between atoms: C_1  and  C_2
REMARK    2  A    between atoms: C_8  and  C_9
REMARK    3  A    between atoms: C_15  and  N_16
REMARK    4  A    between atoms: C_19  and  C_20
REMARK                            x       y       z     vdW  Elec       q    Type
REMARK                         _______ _______ _______ _____ _____    ______ ____
ROOT
ATOM      1  C   UNL     1       5.273   2.422  11.276  0.00  0.00    +0.000 C 
ATOM      2  C   UNL     1       5.938   3.309  12.260  0.00  0.00    +0.000 A 
ATOM      3  C   UNL     1       7.161   3.996  12.123  0.00  0.00    +0.000 A 
ATOM      4  C   UNL     1       7.292   4.716  13.285  0.00  0.00    +0.000 A 
ATOM      5  N   UNL     1       6.185   4.440  14.058  0.00  0.00    +0.000 N 
ATOM      6  C   UNL     1       5.895   4.984  15.344  0.00  0.00    +0.000 A 
ATOM      7  C   UNL     1       4.761   4.545  16.020  0.00  0.00    +0.000 A 
ATOM      8  C   UNL     1       4.482   5.043  17.299  0.00  0.00    +0.000 A 
ATOM      9  C   UNL     1       5.370   5.974  17.845  0.00  0.00    +0.000 A 
ATOM     10  C   UNL     1       6.469   6.392  17.101  0.00  0.00    +0.000 A 
ATOM     11  N   UNL     1       6.751   5.908  15.862  0.00  0.00    +0.000 NA
ATOM     12  N   UNL     1       5.358   3.552  13.441  0.00  0.00    +0.000 NA
ENDROOT
BRANCH  10  13
ATOM     13  N   UNL     1       7.345   7.371  17.661  0.00  0.00    +0.000 N 
ATOM     14  C   UNL     1       8.226   7.178  18.704  0.00  0.00    +0.000 A 
ATOM     15  C   UNL     1       8.847   8.381  18.933  0.00  0.00    +0.000 A 
ATOM     16  C   UNL     1       8.284   9.264  17.989  0.00  0.00    +0.000 A 
ATOM     17  C   UNL     1       8.555  10.710  17.812  0.00  0.00    +0.000 C 
ATOM     18  N   UNL     1       7.395   8.650  17.201  0.00  0.00    +0.000 NA
ENDBRANCH  10  13
BRANCH   8  19
ATOM     19  C   UNL     1       3.292   4.568  18.029  0.00  0.00    +0.000 A 
ATOM     20  C   UNL     1       2.252   3.776  17.571  0.00  0.00    +0.000 A 
ATOM     21  C   UNL     1       1.256   3.532  18.562  0.00  0.00    +0.000 A 
ATOM     22  C   UNL     1       1.559   4.145  19.754  0.00  0.00    +0.000 A 
ATOM     23  S   UNL     1       3.024   5.016  19.670  0.00  0.00    +0.000 S 
ENDBRANCH   8  19
TORSDOF 2
ENDMDL
MODEL 2
REMARK VINA RESULT:      -7.5      2.325      5.201
REMARK  Name = 
REMARK  4 active torsions:
REMARK  status: ('A' for Active; 'I' for Inactive)
REMARK    1  A    between atoms: C_1  and  C_2
REMARK    2  A    between atoms: C_8  and  C_9
REMARK    3  A    between atoms: C_15  and  N_16
REMARK    4  A    between atoms: C_19  and  C_20
REMARK                            x       y       z     vdW  Elec       q    Type
REMARK                         _______ _______ _______ _____ _____    ______ ____
ROOT
ATOM      1  C   UNL     1       0.820   2.219  18.818  0.00  0.00    +0.000 C 
ATOM      2  C   UNL     1       1.850   3.283  18.893  0.00  0.00    +0.000 A 
ATOM      3  C   UNL     1       2.094   4.183  19.951  0.00  0.00    +0.000 A 
ATOM      4  C   UNL     1       3.182   4.915  19.545  0.00  0.00    +0.000 A 
ATOM      5  N   UNL     1       3.537   4.453  18.296  0.00  0.00    +0.000 N 
ATOM      6  C   UNL     1       4.626   4.918  17.501  0.00  0.00    +0.000 A 
ATOM      7  C   UNL     1       4.804   4.385  16.227  0.00  0.00    +0.000 A 
ATOM      8  C   UNL     1       5.847   4.856  15.420  0.00  0.00    +0.000 A 
ATOM      9  C   UNL     1       6.675   5.855  15.940  0.00  0.00    +0.000 A 
ATOM     10  C   UNL     1       6.458   6.321  17.234  0.00  0.00    +0.000 A 
ATOM     11  N   UNL     1       5.444   5.873  18.021  0.00  0.00    +0.000 NA
ATOM     12  N   UNL     1       2.702   3.463  17.878  0.00  0.00    +0.000 NA
ENDROOT
BRANCH  10  13
ATOM     13  N   UNL     1       7.337   7.315  17.762  0.00  0.00    +0.000 N 
ATOM     14  C   UNL     1       8.232   7.147  18.797  0.00  0.00    +0.000 A 
ATOM     15  C   UNL     1       8.851   8.357  18.993  0.00  0.00    +0.000 A 
ATOM     16  C   UNL     1       8.272   9.219  18.038  0.00  0.00    +0.000 A 
ATOM     17  C   UNL     1       8.535  10.661  17.827  0.00  0.00    +0.000 C 
ATOM     18  N   UNL     1       7.375   8.585  17.275  0.00  0.00    +0.000 NA
ENDBRANCH  10  13
BRANCH   8  19
ATOM     19  C   UNL     1       6.030   4.310  14.062  0.00  0.00    +0.000 A 
ATOM     20  C   UNL     1       5.183   3.490  13.335  0.00  0.00    +0.000 A 
ATOM     21  C   UNL     1       5.702   3.145  12.053  0.00  0.00    +0.000 A 
ATOM     22  C   UNL     1       6.935   3.709  11.832  0.00  0.00    +0.000 A 
ATOM     23  S   UNL     1       7.463   4.634  13.165  0.00  0.00    +0.000 S 
ENDBRANCH   8  19
TORSDOF 2
ENDMDL
MODEL 3
REMARK VINA RESULT:      -7.3      3.405      6.235
REMARK  Name = 
REMARK  4 active torsions:
REMARK  status: ('A' for Active; 'I' for Inactive)
REMARK    1  A    between atoms: C_1  and  C_2
REMARK    2  A    between atoms: C_8  and  C_9
REMARK    3  A    between atoms: C_15  and  N_16
REMARK    4  A    between atoms: C_19  and  C_20
REMARK                            x       y       z     vdW  Elec       q    Type
REMARK                         _______ _______ _______ _____ _____    ______ ____
ROOT
ATOM      1  C   UNL     1       0.165  10.732  20.097  0.00  0.00    +0.000 C 
ATOM      2  C   UNL     1       1.064   9.985  19.186  0.00  0.00    +0.000 A 
ATOM      3  C   UNL     1       1.717  10.456  18.029  0.00  0.00    +0.000 A 
ATOM      4  C   UNL     1       2.468   9.394  17.590  0.00  0.00    +0.000 A 
ATOM      5  N   UNL     1       2.241   8.352  18.464  0.00  0.00    +0.000 N 
ATOM      6  C   UNL     1       2.830   7.054  18.402  0.00  0.00    +0.000 A 
ATOM      7  C   UNL     1       2.439   6.094  19.331  0.00  0.00    +0.000 A 
ATOM      8  C   UNL     1       2.981   4.804  19.261  0.00  0.00    +0.000 A 
ATOM      9  C   UNL     1       3.906   4.538  18.247  0.00  0.00    +0.000 A 
ATOM     10  C   UNL     1       4.274   5.555  17.371  0.00  0.00    +0.000 A 
ATOM     11  N   UNL     1       3.748   6.807  17.428  0.00  0.00    +0.000 NA
ATOM     12  N   UNL     1       1.356   8.703  19.436  0.00  0.00    +0.000 NA
ENDROOT
BRANCH  10  13
ATOM     13  N   UNL     1       5.248   5.275  16.365  0.00  0.00    +0.000 N 
ATOM     14  C   UNL     1       6.544   5.744  16.329  0.00  0.00    +0.000 A 
ATOM     15  C   UNL     1       7.118   5.252  15.183  0.00  0.00    +0.000 A 
ATOM     16  C   UNL     1       6.101   4.494  14.565  0.00  0.00    +0.000 A 
ATOM     17  C   UNL     1       6.154   3.772  13.273  0.00  0.00    +0.000 C 
ATOM     18  N   UNL     1       4.978   4.485  15.291  0.00  0.00    +0.000 NA
ENDBRANCH  10  13
BRANCH   8  19
ATOM     19  C   UNL     1       2.557   3.775  20.229  0.00  0.00    +0.000 A 
ATOM     20  C   UNL     1       1.367   3.685  20.932  0.00  0.00    +0.000 A 
ATOM     21  C   UNL     1       1.315   2.554  21.800  0.00  0.00    +0.000 A 
ATOM     22  C   UNL     1       2.468   1.808  21.739  0.00  0.00    +0.000 A 
ATOM     23  S   UNL     1       3.604   2.477  20.655  0.00  0.00    +0.000 S 
ENDBRANCH   8  19
TORSDOF 2
ENDMDL
MODEL 4
REMARK VINA RESULT:      -7.2      2.255      6.796
REMARK  Name = 
REMARK  4 active torsions:
REMARK  status: ('A' for Active; 'I' for Inactive)
REMARK    1  A    between atoms: C_1  and  C_2
REMARK    2  A    between atoms: C_8  and  C_9
REMARK    3  A    between atoms: C_15  and  N_16
REMARK    4  A    between atoms: C_19  and  C_20
REMARK                            x       y       z     vdW  Elec       q    Type
REMARK                         _______ _______ _______ _____ _____    ______ ____
ROOT
ATOM      1  C   UNL     1       1.651   3.246  21.219  0.00  0.00    +0.000 C 
ATOM      2  C   UNL     1       2.194   3.076  19.850  0.00  0.00    +0.000 A 
ATOM      3  C   UNL     1       1.779   2.166  18.858  0.00  0.00    +0.000 A 
ATOM      4  C   UNL     1       2.559   2.456  17.766  0.00  0.00    +0.000 A 
ATOM      5  N   UNL     1       3.395   3.489  18.131  0.00  0.00    +0.000 N 
ATOM      6  C   UNL     1       4.367   4.123  17.300  0.00  0.00    +0.000 A 
ATOM      7  C   UNL     1       5.178   5.112  17.850  0.00  0.00    +0.000 A 
ATOM      8  C   UNL     1       6.161   5.719  17.058  0.00  0.00    +0.000 A 
ATOM      9  C   UNL     1       6.282   5.298  15.731  0.00  0.00    +0.000 A 
ATOM     10  C   UNL     1       5.416   4.326  15.238  0.00  0.00    +0.000 A 
ATOM     11  N   UNL     1       4.464   3.727  16.002  0.00  0.00    +0.000 NA
ATOM     12  N   UNL     1       3.192   3.859  19.424  0.00  0.00    +0.000 NA
ENDROOT
BRANCH  10  13
ATOM     13  N   UNL     1       5.530   3.935  13.869  0.00  0.00    +0.000 N 
ATOM     14  C   UNL     1       6.700   3.811  13.150  0.00  0.00    +0.000 A 
ATOM     15  C   UNL     1       6.351   3.440  11.875  0.00  0.00    +0.000 A 
ATOM     16  C   UNL     1       4.942   3.365  11.893  0.00  0.00    +0.000 A 
ATOM     17  C   UNL     1       4.027   3.049  10.771  0.00  0.00    +0.000 C 
ATOM     18  N   UNL     1       4.445   3.638  13.104  0.00  0.00    +0.000 NA
ENDBRANCH  10  13
BRANCH   8  19
ATOM     19  C   UNL     1       7.038   6.753  17.639  0.00  0.00    +0.000 A 
ATOM     20  C   UNL     1       7.235   8.058  17.219  0.00  0.00    +0.000 A 
ATOM     21  C   UNL     1       8.179   8.766  18.020  0.00  0.00    +0.000 A 
ATOM     22  C   UNL     1       8.682   7.983  19.032  0.00  0.00    +0.000 A 
ATOM     23  S   UNL     1       8.029   6.407  19.004  0.00  0.00    +0.000 S 
ENDBRANCH   8  19
TORSDOF 2
ENDMDL
MODEL 5
REMARK VINA RESULT:      -7.1      1.005      1.073
REMARK  Name = 
REMARK  4 active torsions:
REMARK  status: ('A' for Active; 'I' for Inactive)
REMARK    1  A    between atoms: C_1  and  C_2
REMARK    2  A    between atoms: C_8  and  C_9
REMARK    3  A    between atoms: C_15  and  N_16
REMARK    4  A    between atoms: C_19  and  C_20
REMARK                            x       y       z     vdW  Elec       q    Type
REMARK                         _______ _______ _______ _____ _____    ______ ____
ROOT
ATOM      1  C   UNL     1       5.489   2.610  11.832  0.00  0.00    +0.000 C 
ATOM      2  C   UNL     1       6.153   3.581  12.735  0.00  0.00    +0.000 A 
ATOM      3  C   UNL     1       7.281   4.383  12.470  0.00  0.00    +0.000 A 
ATOM      4  C   UNL     1       7.450   5.138  13.605  0.00  0.00    +0.000 A 
ATOM      5  N   UNL     1       6.457   4.769  14.486  0.00  0.00    +0.000 N 
ATOM      6  C   UNL     1       6.239   5.310  15.788  0.00  0.00    +0.000 A 
ATOM      7  C   UNL     1       5.225   4.774  16.577  0.00  0.00    +0.000 A 
ATOM      8  C   UNL     1       5.022   5.269  17.872  0.00  0.00    +0.000 A 
ATOM      9  C   UNL     1       5.859   6.296  18.317  0.00  0.00    +0.000 A 
ATOM     10  C   UNL     1       6.834   6.805  17.463  0.00  0.00    +0.000 A 
ATOM     11  N   UNL     1       7.042   6.325  16.208  0.00  0.00    +0.000 NA
ATOM     12  N   UNL     1       5.668   3.790  13.964  0.00  0.00    +0.000 NA
ENDROOT
BRANCH  10  13
ATOM     13  N   UNL     1       7.655   7.879  17.923  0.00  0.00    +0.000 N 
ATOM     14  C   UNL     1       8.537   7.837  18.981  0.00  0.00    +0.000 A 
ATOM     15  C   UNL     1       9.097   9.086  19.089  0.00  0.00    +0.000 A 
ATOM     16  C   UNL     1       8.497   9.841  18.059  0.00  0.00    +0.000 A 
ATOM     17  C   UNL     1       8.696  11.273  17.737  0.00  0.00    +0.000 C 
ATOM     18  N   UNL     1       7.645   9.106  17.336  0.00  0.00    +0.000 NA
ENDBRANCH  10  13
BRANCH   8  19
ATOM     19  C   UNL     1       3.963   4.693  18.721  0.00  0.00    +0.000 A 
ATOM     20  C   UNL     1       2.961   5.346  19.420  0.00  0.00    +0.000 A 
ATOM     21  C   UNL     1       2.121   4.458  20.155  0.00  0.00    +0.000 A 
ATOM     22  C   UNL     1       2.504   3.147  20.000  0.00  0.00    +0.000 A 
ATOM     23  S   UNL     1       3.870   2.995  18.989  0.00  0.00    +0.000 S 
ENDBRANCH   8  19
TORSDOF 2
ENDMDL
MODEL 6
REMARK VINA RESULT:      -6.6      2.317      6.780
REMARK  Name = 
REMARK  4 active torsions:
REMARK  status: ('A' for Active; 'I' for Inactive)
REMARK    1  A    between atoms: C_1  and  C_2
REMARK    2  A    between atoms: C_8  and  C_9
REMARK    3  A    between atoms: C_15  and  N_16
REMARK    4  A    between atoms: C_19  and  C_20
REMARK                            x       y       z     vdW  Elec       q    Type
REMARK                         _______ _______ _______ _____ _____    ______ ____
ROOT
ATOM      1  C   UNL     1       1.538   3.287  21.125  0.00  0.00    +0.000 C 
ATOM      2  C   UNL     1       2.099   3.086  19.768  0.00  0.00    +0.000 A 
ATOM      3  C   UNL     1       1.698   2.153  18.791  0.00  0.00    +0.000 A 
ATOM      4  C   UNL     1       2.492   2.418  17.703  0.00  0.00    +0.000 A 
ATOM      5  N   UNL     1       3.323   3.460  18.055  0.00  0.00    +0.000 N 
ATOM      6  C   UNL     1       4.304   4.076  17.223  0.00  0.00    +0.000 A 
ATOM      7  C   UNL     1       5.108   5.078  17.760  0.00  0.00    +0.000 A 
ATOM      8  C   UNL     1       6.100   5.667  16.967  0.00  0.00    +0.000 A 
ATOM      9  C   UNL     1       6.239   5.216  15.651  0.00  0.00    +0.000 A 
ATOM     10  C   UNL     1       5.381   4.231  15.170  0.00  0.00    +0.000 A 
ATOM     11  N   UNL     1       4.419   3.649  15.936  0.00  0.00    +0.000 NA
ATOM     12  N   UNL     1       3.102   3.859  19.337  0.00  0.00    +0.000 NA
ENDROOT
BRANCH  10  13
ATOM     13  N   UNL     1       5.513   3.809  13.813  0.00  0.00    +0.000 N 
ATOM     14  C   UNL     1       4.508   3.761  12.870  0.00  0.00    +0.000 A 
ATOM     15  C   UNL     1       5.065   3.275  11.713  0.00  0.00    +0.000 A 
ATOM     16  C   UNL     1       6.419   3.042  12.033  0.00  0.00    +0.000 A 
ATOM     17  C   UNL     1       7.479   2.474  11.168  0.00  0.00    +0.000 C 
ATOM     18  N   UNL     1       6.698   3.388  13.294  0.00  0.00    +0.000 NA
ENDBRANCH  10  13
BRANCH   8  19
ATOM     19  C   UNL     1       6.968   6.716  17.535  0.00  0.00    +0.000 A 
ATOM     20  C   UNL     1       7.142   8.022  17.109  0.00  0.00    +0.000 A 
ATOM     21  C   UNL     1       8.085   8.746  17.897  0.00  0.00    +0.000 A 
ATOM     22  C   UNL     1       8.609   7.974  18.906  0.00  0.00    +0.000 A 
ATOM     23  S   UNL     1       7.979   6.389  18.890  0.00  0.00    +0.000 S 
ENDBRANCH   8  19
TORSDOF 2
ENDMDL
MODEL 7
REMARK VINA RESULT:      -6.4      7.910     10.735
REMARK  Name = 
REMARK  4 active torsions:
REMARK  status: ('A' for Active; 'I' for Inactive)
REMARK    1  A    between atoms: C_1  and  C_2
REMARK    2  A    between atoms: C_8  and  C_9
REMARK    3  A    between atoms: C_15  and  N_16
REMARK    4  A    between atoms: C_19  and  C_20
REMARK                            x       y       z     vdW  Elec       q    Type
REMARK                         _______ _______ _______ _____ _____    ______ ____
ROOT
ATOM      1  C   UNL     1       4.755  15.704  18.007  0.00  0.00    +0.000 C 
ATOM      2  C   UNL     1       3.341  15.357  18.287  0.00  0.00    +0.000 A 
ATOM      3  C   UNL     1       2.247  16.231  18.447  0.00  0.00    +0.000 A 
ATOM      4  C   UNL     1       1.163  15.408  18.629  0.00  0.00    +0.000 A 
ATOM      5  N   UNL     1       1.629  14.111  18.584  0.00  0.00    +0.000 N 
ATOM      6  C   UNL     1       0.845  12.927  18.712  0.00  0.00    +0.000 A 
ATOM      7  C   UNL     1       1.487  11.692  18.709  0.00  0.00    +0.000 A 
ATOM      8  C   UNL     1       0.735  10.521  18.870  0.00  0.00    +0.000 A 
ATOM      9  C   UNL     1      -0.648  10.649  19.025  0.00  0.00    +0.000 A 
ATOM     10  C   UNL     1      -1.228  11.915  18.988  0.00  0.00    +0.000 A 
ATOM     11  N   UNL     1      -0.504  13.056  18.839  0.00  0.00    +0.000 NA
ATOM     12  N   UNL     1       2.976  14.074  18.399  0.00  0.00    +0.000 NA
ENDROOT
BRANCH  10  13
ATOM     13  N   UNL     1      -2.647  12.024  19.111  0.00  0.00    +0.000 N 
ATOM     14  C   UNL     1      -3.332  12.652  20.129  0.00  0.00    +0.000 A 
ATOM     15  C   UNL     1      -4.671  12.498  19.868  0.00  0.00    +0.000 A 
ATOM     16  C   UNL     1      -4.722  11.755  18.670  0.00  0.00    +0.000 A 
ATOM     17  C   UNL     1      -5.919  11.262  17.948  0.00  0.00    +0.000 C 
ATOM     18  N   UNL     1      -3.500  11.489  18.197  0.00  0.00    +0.000 NA
ENDBRANCH  10  13
BRANCH   8  19
ATOM     19  C   UNL     1       1.410   9.210  18.888  0.00  0.00    +0.000 A 
ATOM     20  C   UNL     1       1.983   8.515  17.836  0.00  0.00    +0.000 A 
ATOM     21  C   UNL     1       2.532   7.259  18.228  0.00  0.00    +0.000 A 
ATOM     22  C   UNL     1       2.364   7.024  19.572  0.00  0.00    +0.000 A 
ATOM     23  S   UNL     1       1.539   8.302  20.345  0.00  0.00    +0.000 S 
ENDBRANCH   8  19
TORSDOF 2
ENDMDL
MODEL 8
REMARK VINA RESULT:      -6.4      7.815     10.743
REMARK  Name = 
REMARK  4 active torsions:
REMARK  status: ('A' for Active; 'I' for Inactive)
REMARK    1  A    between atoms: C_1  and  C_2
REMARK    2  A    between atoms: C_8  and  C_9
REMARK    3  A    between atoms: C_15  and  N_16
REMARK    4  A    between atoms: C_19  and  C_20
REMARK                            x       y       z     vdW  Elec       q    Type
REMARK                         _______ _______ _______ _____ _____    ______ ____
ROOT
ATOM      1  C   UNL     1       3.628  14.954  21.988  0.00  0.00    +0.000 C 
ATOM      2  C   UNL     1       2.380  14.528  21.311  0.00  0.00    +0.000 A 
ATOM      3  C   UNL     1       1.199  15.274  21.116  0.00  0.00    +0.000 A 
ATOM      4  C   UNL     1       0.377  14.447  20.391  0.00  0.00    +0.000 A 
ATOM      5  N   UNL     1       1.064  13.269  20.191  0.00  0.00    +0.000 N 
ATOM      6  C   UNL     1       0.596  12.129  19.471  0.00  0.00    +0.000 A 
ATOM      7  C   UNL     1       1.396  10.991  19.422  0.00  0.00    +0.000 A 
ATOM      8  C   UNL     1       0.935   9.851  18.750  0.00  0.00    +0.000 A 
ATOM      9  C   UNL     1      -0.325   9.912  18.149  0.00  0.00    +0.000 A 
ATOM     10  C   UNL     1      -1.059  11.094  18.213  0.00  0.00    +0.000 A 
ATOM     11  N   UNL     1      -0.622  12.202  18.869  0.00  0.00    +0.000 NA
ATOM     12  N   UNL     1       2.291  13.304  20.779  0.00  0.00    +0.000 NA
ENDROOT
BRANCH  10  13
ATOM     13  N   UNL     1      -2.329  11.149  17.562  0.00  0.00    +0.000 N 
ATOM     14  C   UNL     1      -2.600  10.765  16.266  0.00  0.00    +0.000 A 
ATOM     15  C   UNL     1      -3.933  11.008  16.045  0.00  0.00    +0.000 A 
ATOM     16  C   UNL     1      -4.408  11.550  17.257  0.00  0.00    +0.000 A 
ATOM     17  C   UNL     1      -5.771  12.038  17.571  0.00  0.00    +0.000 C 
ATOM     18  N   UNL     1      -3.446  11.613  18.184  0.00  0.00    +0.000 NA
ENDBRANCH  10  13
BRANCH   8  19
ATOM     19  C   UNL     1       1.768   8.635  18.710  0.00  0.00    +0.000 A 
ATOM     20  C   UNL     1       2.539   8.146  17.668  0.00  0.00    +0.000 A 
ATOM     21  C   UNL     1       3.199   6.923  17.987  0.00  0.00    +0.000 A 
ATOM     22  C   UNL     1       2.915   6.506  19.266  0.00  0.00    +0.000 A 
ATOM     23  S   UNL     1       1.851   7.575  20.064  0.00  0.00    +0.000 S 
ENDBRANCH   8  19
TORSDOF 2
ENDMDL
MODEL 9
REMARK VINA RESULT:      -6.3      7.432      9.915
REMARK  Name = 
REMARK  4 active torsions:
REMARK  status: ('A' for Active; 'I' for Inactive)
REMARK    1  A    between atoms: C_1  and  C_2
REMARK    2  A    between atoms: C_8  and  C_9
REMARK    3  A    between atoms: C_15  and  N_16
REMARK    4  A    between atoms: C_19  and  C_20
REMARK                            x       y       z     vdW  Elec       q    Type
REMARK                         _______ _______ _______ _____ _____    ______ ____
ROOT
ATOM      1  C   UNL     1       1.869  17.329  18.667  0.00  0.00    +0.000 C 
ATOM      2  C   UNL     1       2.134  15.871  18.632  0.00  0.00    +0.000 A 
ATOM      3  C   UNL     1       3.381  15.215  18.622  0.00  0.00    +0.000 A 
ATOM      4  C   UNL     1       3.075  13.877  18.647  0.00  0.00    +0.000 A 
ATOM      5  N   UNL     1       1.700  13.778  18.660  0.00  0.00    +0.000 N 
ATOM      6  C   UNL     1       0.940  12.572  18.703  0.00  0.00    +0.000 A 
ATOM      7  C   UNL     1      -0.449  12.650  18.643  0.00  0.00    +0.000 A 
ATOM      8  C   UNL     1      -1.208  11.473  18.647  0.00  0.00    +0.000 A 
ATOM      9  C   UNL     1      -0.525  10.255  18.714  0.00  0.00    +0.000 A 
ATOM     10  C   UNL     1       0.864  10.252  18.803  0.00  0.00    +0.000 A 
ATOM     11  N   UNL     1       1.609  11.390  18.792  0.00  0.00    +0.000 NA
ATOM     12  N   UNL     1       1.114  15.006  18.625  0.00  0.00    +0.000 NA
ENDROOT
BRANCH  10  13
ATOM     13  N   UNL     1       1.542   9.000  18.907  0.00  0.00    +0.000 N 
ATOM     14  C   UNL     1       1.531   8.154  19.995  0.00  0.00    +0.000 A 
ATOM     15  C   UNL     1       2.330   7.082  19.680  0.00  0.00    +0.000 A 
ATOM     16  C   UNL     1       2.800   7.353  18.378  0.00  0.00    +0.000 A 
ATOM     17  C   UNL     1       3.738   6.551  17.558  0.00  0.00    +0.000 C 
ATOM     18  N   UNL     1       2.305   8.499  17.899  0.00  0.00    +0.000 NA
ENDBRANCH  10  13
BRANCH   8  19
ATOM     19  C   UNL     1      -2.679  11.547  18.564  0.00  0.00    +0.000 A 
ATOM     20  C   UNL     1      -3.522  10.999  17.612  0.00  0.00    +0.000 A 
ATOM     21  C   UNL     1      -4.897  11.295  17.847  0.00  0.00    +0.000 A 
ATOM     22  C   UNL     1      -5.071  12.063  18.973  0.00  0.00    +0.000 A 
ATOM     23  S   UNL     1      -3.587  12.433  19.728  0.00  0.00    +0.000 S 
ENDBRANCH   8  19
TORSDOF 2
ENDMDL
