MODEL 1
REMARK VINA RESULT:      -8.9      0.000      0.000
REMARK  Name = 
REMARK  5 active torsions:
REMARK  status: ('A' for Active; 'I' for Inactive)
REMARK    1  A    between atoms: C_2  and  C_18
REMARK    2  A    between atoms: N_3  and  C_4
REMARK    3  A    between atoms: C_4  and  C_5
REMARK    4  A    between atoms: C_4  and  C_13
REMARK    5  A    between atoms: N_25  and  C_26
REMARK                            x       y       z     vdW  Elec       q    Type
REMARK                         _______ _______ _______ _____ _____    ______ ____
ROOT
ATOM      1  O   UNL     1       2.499  10.425  17.598  0.00  0.00    +0.000 OA
ATOM      2  C   UNL     1       1.805   9.591  18.158  0.00  0.00    +0.000 C 
ATOM      3  N   UNL     1       0.549   9.867  18.656  0.00  0.00    +0.000 N 
ATOM      4  H   UNL     1       0.036   9.193  19.208  0.00  0.00    +0.000 HD
ENDROOT
BRANCH   2   5
ATOM      5  C   UNL     1       2.333   8.217  18.377  0.00  0.00    +0.000 A 
ATOM      6  C   UNL     1       1.950   7.529  19.536  0.00  0.00    +0.000 A 
ATOM      7  C   UNL     1       2.439   6.242  19.778  0.00  0.00    +0.000 A 
ATOM      8  C   UNL     1       3.332   5.653  18.864  0.00  0.00    +0.000 A 
ATOM      9  C   UNL     1       3.895   4.395  19.009  0.00  0.00    +0.000 A 
ATOM     10  N   UNL     1       4.790   3.864  18.144  0.00  0.00    +0.000 NA
ATOM     11  C   UNL     1       5.120   4.615  17.084  0.00  0.00    +0.000 A 
ATOM     12  N   UNL     1       6.093   4.121  16.250  0.00  0.00    +0.000 N 
ATOM     13  N   UNL     1       4.596   5.826  16.840  0.00  0.00    +0.000 NA
ATOM     14  C   UNL     1       3.733   6.342  17.719  0.00  0.00    +0.000 A 
ATOM     15  C   UNL     1       3.233   7.617  17.489  0.00  0.00    +0.000 A 
ATOM     16  H   UNL     1       6.315   3.162  16.492  0.00  0.00    +0.000 HD
BRANCH  12  17
ATOM     17  C   UNL     1       6.053   4.483  14.838  0.00  0.00    +0.000 C 
ATOM     18  C   UNL     1       5.544   3.320  13.979  0.00  0.00    +0.000 C 
ATOM     19  C   UNL     1       5.731   3.627  12.499  0.00  0.00    +0.000 C 
ATOM     20  O   UNL     1       7.091   3.953  12.216  0.00  0.00    +0.000 OA
ATOM     21  C   UNL     1       7.513   5.128  12.906  0.00  0.00    +0.000 C 
ATOM     22  C   UNL     1       7.457   4.911  14.408  0.00  0.00    +0.000 C 
ENDBRANCH  12  17
ENDBRANCH   2   5
BRANCH   3  23
ATOM     23  C   UNL     1      -0.034  11.202  18.512  0.00  0.00    +0.000 C 
BRANCH  23  24
ATOM     24  C   UNL     1      -1.549  11.108  18.381  0.00  0.00    +0.000 A 
ATOM     25  C   UNL     1      -2.126  10.077  17.617  0.00  0.00    +0.000 A 
ATOM     26  C   UNL     1      -3.516   9.960  17.503  0.00  0.00    +0.000 A 
ATOM     27  C   UNL     1      -4.345  10.875  18.148  0.00  0.00    +0.000 A 
ATOM     28 CL   UNL     1      -6.054  10.715  18.012  0.00  0.00    +0.000 Cl
ATOM     29  C   UNL     1      -3.785  11.904  18.899  0.00  0.00    +0.000 A 
ATOM     30  F   UNL     1      -4.563  12.800  19.523  0.00  0.00    +0.000 F 
ATOM     31  C   UNL     1      -2.401  12.024  19.021  0.00  0.00    +0.000 A 
ENDBRANCH  23  24
BRANCH  23  32
ATOM     32  C   UNL     1       0.393  12.059  19.664  0.00  0.00    +0.000 A 
ATOM     33  N   UNL     1       0.861  13.294  19.684  0.00  0.00    +0.000 NA
ATOM     34  C   UNL     1       1.043  13.495  21.026  0.00  0.00    +0.000 A 
ATOM     35  N   UNL     1       0.714  12.468  21.813  0.00  0.00    +0.000 NA
ATOM     36  O   UNL     1       0.278  11.502  20.907  0.00  0.00    +0.000 OA
ENDBRANCH  23  32
ENDBRANCH   3  23
TORSDOF 5
ENDMDL
MODEL 2
REMARK VINA RESULT:      -8.7      2.149      2.524
REMARK  Name = 
REMARK  5 active torsions:
REMARK  status: ('A' for Active; 'I' for Inactive)
REMARK    1  A    between atoms: C_2  and  C_18
REMARK    2  A    between atoms: N_3  and  C_4
REMARK    3  A    between atoms: C_4  and  C_5
REMARK    4  A    between atoms: C_4  and  C_13
REMARK    5  A    between atoms: N_25  and  C_26
REMARK                            x       y       z     vdW  Elec       q    Type
REMARK                         _______ _______ _______ _____ _____    ______ ____
ROOT
ATOM      1  O   UNL     1       1.160   9.859  17.821  0.00  0.00    +0.000 OA
ATOM      2  C   UNL     1       1.284   9.424  18.955  0.00  0.00    +0.000 C 
ATOM      3  N   UNL     1       0.933  10.140  20.080  0.00  0.00    +0.000 N 
ATOM      4  H   UNL     1       1.143   9.805  21.011  0.00  0.00    +0.000 HD
ENDROOT
BRANCH   2   5
ATOM      5  C   UNL     1       1.891   8.082  19.169  0.00  0.00    +0.000 A 
ATOM      6  C   UNL     1       1.524   7.355  20.309  0.00  0.00    +0.000 A 
ATOM      7  C   UNL     1       2.085   6.097  20.546  0.00  0.00    +0.000 A 
ATOM      8  C   UNL     1       3.035   5.578  19.647  0.00  0.00    +0.000 A 
ATOM      9  C   UNL     1       3.671   4.355  19.790  0.00  0.00    +0.000 A 
ATOM     10  N   UNL     1       4.618   3.893  18.941  0.00  0.00    +0.000 NA
ATOM     11  C   UNL     1       4.926   4.678  17.899  0.00  0.00    +0.000 A 
ATOM     12  N   UNL     1       5.948   4.257  17.083  0.00  0.00    +0.000 N 
ATOM     13  N   UNL     1       4.334   5.858  17.658  0.00  0.00    +0.000 NA
ATOM     14  C   UNL     1       3.420   6.307  18.522  0.00  0.00    +0.000 A 
ATOM     15  C   UNL     1       2.848   7.552  18.296  0.00  0.00    +0.000 A 
ATOM     16  H   UNL     1       6.223   3.311  17.318  0.00  0.00    +0.000 HD
BRANCH  12  17
ATOM     17  C   UNL     1       5.920   4.637  15.675  0.00  0.00    +0.000 C 
ATOM     18  C   UNL     1       5.230   3.566  14.824  0.00  0.00    +0.000 C 
ATOM     19  C   UNL     1       5.416   3.860  13.340  0.00  0.00    +0.000 C 
ATOM     20  O   UNL     1       6.800   3.997  13.021  0.00  0.00    +0.000 OA
ATOM     21  C   UNL     1       7.400   5.094  13.706  0.00  0.00    +0.000 C 
ATOM     22  C   UNL     1       7.357   4.870  15.208  0.00  0.00    +0.000 C 
ENDBRANCH  12  17
ENDBRANCH   2   5
BRANCH   3  23
ATOM     23  C   UNL     1       0.359  11.481  19.962  0.00  0.00    +0.000 C 
BRANCH  23  24
ATOM     24  C   UNL     1      -0.720  11.692  21.017  0.00  0.00    +0.000 A 
ATOM     25  C   UNL     1      -0.628  11.034  22.256  0.00  0.00    +0.000 A 
ATOM     26  C   UNL     1      -1.597  11.231  23.248  0.00  0.00    +0.000 A 
ATOM     27  C   UNL     1      -2.670  12.086  23.008  0.00  0.00    +0.000 A 
ATOM     28 CL   UNL     1      -3.849  12.332  24.239  0.00  0.00    +0.000 Cl
ATOM     29  C   UNL     1      -2.775  12.735  21.782  0.00  0.00    +0.000 A 
ATOM     30  F   UNL     1      -3.803  13.558  21.527  0.00  0.00    +0.000 F 
ATOM     31  C   UNL     1      -1.813  12.546  20.792  0.00  0.00    +0.000 A 
ENDBRANCH  23  24
BRANCH  23  32
ATOM     32  C   UNL     1       1.452  12.502  20.043  0.00  0.00    +0.000 A 
ATOM     33  N   UNL     1       2.107  12.974  21.089  0.00  0.00    +0.000 NA
ATOM     34  C   UNL     1       2.972  13.853  20.495  0.00  0.00    +0.000 A 
ATOM     35  N   UNL     1       2.885  13.939  19.166  0.00  0.00    +0.000 NA
ATOM     36  O   UNL     1       1.869  13.037  18.856  0.00  0.00    +0.000 OA
ENDBRANCH  23  32
ENDBRANCH   3  23
TORSDOF 5
ENDMDL
MODEL 3
REMARK VINA RESULT:      -8.6      2.313      2.645
REMARK  Name = 
REMARK  5 active torsions:
REMARK  status: ('A' for Active; 'I' for Inactive)
REMARK    1  A    between atoms: C_2  and  C_18
REMARK    2  A    between atoms: N_3  and  C_4
REMARK    3  A    between atoms: C_4  and  C_5
REMARK    4  A    between atoms: C_4  and  C_13
REMARK    5  A    between atoms: N_25  and  C_26
REMARK                            x       y       z     vdW  Elec       q    Type
REMARK                         _______ _______ _______ _____ _____    ______ ____
ROOT
ATOM      1  O   UNL     1       1.319   9.636  17.249  0.00  0.00    +0.000 OA
ATOM      2  C   UNL     1       1.620   9.296  18.382  0.00  0.00    +0.000 C 
ATOM      3  N   UNL     1       1.390  10.082  19.492  0.00  0.00    +0.000 N 
ATOM      4  H   UNL     1       1.742   9.828  20.405  0.00  0.00    +0.000 HD
ENDROOT
BRANCH   2   5
ATOM      5  C   UNL     1       2.317   8.000  18.604  0.00  0.00    +0.000 A 
ATOM      6  C   UNL     1       2.085   7.310  19.801  0.00  0.00    +0.000 A 
ATOM      7  C   UNL     1       2.735   6.097  20.045  0.00  0.00    +0.000 A 
ATOM      8  C   UNL     1       3.637   5.585  19.094  0.00  0.00    +0.000 A 
ATOM      9  C   UNL     1       4.351   4.407  19.236  0.00  0.00    +0.000 A 
ATOM     10  N   UNL     1       5.250   3.955  18.332  0.00  0.00    +0.000 NA
ATOM     11  C   UNL     1       5.428   4.704  17.235  0.00  0.00    +0.000 A 
ATOM     12  N   UNL     1       6.402   4.299  16.355  0.00  0.00    +0.000 N 
ATOM     13  N   UNL     1       4.752   5.838  16.993  0.00  0.00    +0.000 NA
ATOM     14  C   UNL     1       3.887   6.279  17.909  0.00  0.00    +0.000 A 
ATOM     15  C   UNL     1       3.228   7.479  17.678  0.00  0.00    +0.000 A 
ATOM     16  H   UNL     1       6.749   3.380  16.608  0.00  0.00    +0.000 HD
BRANCH  12  17
ATOM     17  C   UNL     1       6.238   4.608  14.940  0.00  0.00    +0.000 C 
ATOM     18  C   UNL     1       5.632   3.424  14.178  0.00  0.00    +0.000 C 
ATOM     19  C   UNL     1       5.686   3.671  12.676  0.00  0.00    +0.000 C 
ATOM     20  O   UNL     1       7.020   3.957  12.257  0.00  0.00    +0.000 OA
ATOM     21  C   UNL     1       7.524   5.148  12.858  0.00  0.00    +0.000 C 
ATOM     22  C   UNL     1       7.604   4.989  14.366  0.00  0.00    +0.000 C 
ENDBRANCH  12  17
ENDBRANCH   2   5
BRANCH   3  23
ATOM     23  C   UNL     1       0.738  11.386  19.361  0.00  0.00    +0.000 C 
BRANCH  23  24
ATOM     24  C   UNL     1      -0.263  11.594  20.489  0.00  0.00    +0.000 A 
ATOM     25  C   UNL     1      -1.266  12.573  20.367  0.00  0.00    +0.000 A 
ATOM     26  C   UNL     1      -2.210  12.765  21.383  0.00  0.00    +0.000 A 
ATOM     27  C   UNL     1      -2.158  11.983  22.535  0.00  0.00    +0.000 A 
ATOM     28 CL   UNL     1      -3.332  12.219  23.773  0.00  0.00    +0.000 Cl
ATOM     29  C   UNL     1      -1.165  11.018  22.670  0.00  0.00    +0.000 A 
ATOM     30  F   UNL     1      -1.093  10.258  23.772  0.00  0.00    +0.000 F 
ATOM     31  C   UNL     1      -0.225  10.819  21.661  0.00  0.00    +0.000 A 
ENDBRANCH  23  24
BRANCH  23  32
ATOM     32  C   UNL     1       1.779  12.461  19.307  0.00  0.00    +0.000 A 
ATOM     33  N   UNL     1       2.302  13.196  20.272  0.00  0.00    +0.000 NA
ATOM     34  C   UNL     1       3.193  13.968  19.576  0.00  0.00    +0.000 A 
ATOM     35  N   UNL     1       3.243  13.746  18.260  0.00  0.00    +0.000 NA
ATOM     36  O   UNL     1       2.299  12.738  18.072  0.00  0.00    +0.000 OA
ENDBRANCH  23  32
ENDBRANCH   3  23
TORSDOF 5
ENDMDL
MODEL 4
REMARK VINA RESULT:      -8.5      1.160      1.318
REMARK  Name = 
REMARK  5 active torsions:
REMARK  status: ('A' for Active; 'I' for Inactive)
REMARK    1  A    between atoms: C_2  and  C_18
REMARK    2  A    between atoms: N_3  and  C_4
REMARK    3  A    between atoms: C_4  and  C_5
REMARK    4  A    between atoms: C_4  and  C_13
REMARK    5  A    between atoms: N_25  and  C_26
REMARK                            x       y       z     vdW  Elec       q    Type
REMARK                         _______ _______ _______ _____ _____    ______ ____
ROOT
ATOM      1  O   UNL     1       2.216   9.851  17.822  0.00  0.00    +0.000 OA
ATOM      2  C   UNL     1       1.793   9.053  18.644  0.00  0.00    +0.000 C 
ATOM      3  N   UNL     1       0.800   9.360  19.551  0.00  0.00    +0.000 N 
ATOM      4  H   UNL     1       0.540   8.721  20.290  0.00  0.00    +0.000 HD
ENDROOT
BRANCH   2   5
ATOM      5  C   UNL     1       2.394   7.694  18.732  0.00  0.00    +0.000 A 
ATOM      6  C   UNL     1       2.085   6.896  19.842  0.00  0.00    +0.000 A 
ATOM      7  C   UNL     1       2.643   5.620  19.960  0.00  0.00    +0.000 A 
ATOM      8  C   UNL     1       3.531   5.153  18.974  0.00  0.00    +0.000 A 
ATOM      9  C   UNL     1       4.159   3.918  18.997  0.00  0.00    +0.000 A 
ATOM     10  N   UNL     1       5.047   3.505  18.064  0.00  0.00    +0.000 NA
ATOM     11  C   UNL     1       5.303   4.355  17.060  0.00  0.00    +0.000 A 
ATOM     12  N   UNL     1       6.269   3.980  16.158  0.00  0.00    +0.000 N 
ATOM     13  N   UNL     1       4.713   5.554  16.933  0.00  0.00    +0.000 NA
ATOM     14  C   UNL     1       3.858   5.953  17.878  0.00  0.00    +0.000 A 
ATOM     15  C   UNL     1       3.290   7.214  17.770  0.00  0.00    +0.000 A 
ATOM     16  H   UNL     1       6.546   3.017  16.313  0.00  0.00    +0.000 HD
BRANCH  12  17
ATOM     17  C   UNL     1       6.163   4.454  14.783  0.00  0.00    +0.000 C 
ATOM     18  C   UNL     1       5.577   3.374  13.866  0.00  0.00    +0.000 C 
ATOM     19  C   UNL     1       5.692   3.792  12.406  0.00  0.00    +0.000 C 
ATOM     20  O   UNL     1       7.042   4.109  12.074  0.00  0.00    +0.000 OA
ATOM     21  C   UNL     1       7.532   5.216  12.828  0.00  0.00    +0.000 C 
ATOM     22  C   UNL     1       7.553   4.882  14.309  0.00  0.00    +0.000 C 
ENDBRANCH  12  17
ENDBRANCH   2   5
BRANCH   3  23
ATOM     23  C   UNL     1       0.177  10.684  19.555  0.00  0.00    +0.000 C 
BRANCH  23  24
ATOM     24  C   UNL     1      -1.017  10.712  18.609  0.00  0.00    +0.000 A 
ATOM     25  C   UNL     1      -1.012   9.916  17.449  0.00  0.00    +0.000 A 
ATOM     26  C   UNL     1      -2.108   9.910  16.578  0.00  0.00    +0.000 A 
ATOM     27  C   UNL     1      -3.219  10.703  16.855  0.00  0.00    +0.000 A 
ATOM     28 CL   UNL     1      -4.567  10.679  15.784  0.00  0.00    +0.000 Cl
ATOM     29  C   UNL     1      -3.230  11.501  17.995  0.00  0.00    +0.000 A 
ATOM     30  F   UNL     1      -4.286  12.277  18.279  0.00  0.00    +0.000 F 
ATOM     31  C   UNL     1      -2.144  11.509  18.869  0.00  0.00    +0.000 A 
ENDBRANCH  23  24
BRANCH  23  32
ATOM     32  C   UNL     1      -0.191  11.057  20.959  0.00  0.00    +0.000 A 
ATOM     33  N   UNL     1      -0.729  10.335  21.924  0.00  0.00    +0.000 NA
ATOM     34  C   UNL     1      -0.796  11.246  22.943  0.00  0.00    +0.000 A 
ATOM     35  N   UNL     1      -0.332  12.465  22.658  0.00  0.00    +0.000 NA
ATOM     36  O   UNL     1       0.074  12.347  21.330  0.00  0.00    +0.000 OA
ENDBRANCH  23  32
ENDBRANCH   3  23
TORSDOF 5
ENDMDL
MODEL 5
REMARK VINA RESULT:      -8.4      4.860     10.206
REMARK  Name = 
REMARK  5 active torsions:
REMARK  status: ('A' for Active; 'I' for Inactive)
REMARK    1  A    between atoms: C_2  and  C_18
REMARK    2  A    between atoms: N_3  and  C_4
REMARK    3  A    between atoms: C_4  and  C_5
REMARK    4  A    between atoms: C_4  and  C_13
REMARK    5  A    between atoms: N_25  and  C_26
REMARK                            x       y       z     vdW  Elec       q    Type
REMARK                         _______ _______ _______ _____ _____    ______ ____
ROOT
ATOM      1  O   UNL     1       2.159   8.771  17.355  0.00  0.00    +0.000 OA
ATOM      2  C   UNL     1       1.853   8.443  18.490  0.00  0.00    +0.000 C 
ATOM      3  N   UNL     1       1.988   7.155  18.965  0.00  0.00    +0.000 N 
ATOM      4  H   UNL     1       1.630   6.881  19.870  0.00  0.00    +0.000 HD
ENDROOT
BRANCH   2   5
ATOM      5  C   UNL     1       1.251   9.444  19.412  0.00  0.00    +0.000 A 
ATOM      6  C   UNL     1       0.845   9.023  20.686  0.00  0.00    +0.000 A 
ATOM      7  C   UNL     1       0.265   9.936  21.571  0.00  0.00    +0.000 A 
ATOM      8  C   UNL     1       0.072  11.271  21.168  0.00  0.00    +0.000 A 
ATOM      9  C   UNL     1      -0.509  12.255  21.951  0.00  0.00    +0.000 A 
ATOM     10  N   UNL     1      -0.730  13.522  21.529  0.00  0.00    +0.000 NA
ATOM     11  C   UNL     1      -0.337  13.818  20.282  0.00  0.00    +0.000 A 
ATOM     12  N   UNL     1      -0.638  15.075  19.816  0.00  0.00    +0.000 N 
ATOM     13  N   UNL     1       0.270  12.941  19.467  0.00  0.00    +0.000 NA
ATOM     14  C   UNL     1       0.456  11.689  19.894  0.00  0.00    +0.000 A 
ATOM     15  C   UNL     1       1.038  10.773  19.029  0.00  0.00    +0.000 A 
ATOM     16  H   UNL     1      -0.994  15.656  20.567  0.00  0.00    +0.000 HD
BRANCH  12  17
ATOM     17  C   UNL     1       0.247  15.685  18.832  0.00  0.00    +0.000 C 
ATOM     18  C   UNL     1       1.619  16.001  19.438  0.00  0.00    +0.000 C 
ATOM     19  C   UNL     1       2.446  16.847  18.477  0.00  0.00    +0.000 C 
ATOM     20  O   UNL     1       1.736  18.026  18.101  0.00  0.00    +0.000 OA
ATOM     21  C   UNL     1       0.530  17.724  17.403  0.00  0.00    +0.000 C 
ATOM     22  C   UNL     1      -0.423  16.953  18.298  0.00  0.00    +0.000 C 
ENDBRANCH  12  17
ENDBRANCH   2   5
BRANCH   3  23
ATOM     23  C   UNL     1       2.541   6.100  18.114  0.00  0.00    +0.000 C 
BRANCH  23  24
ATOM     24  C   UNL     1       4.048   5.995  18.310  0.00  0.00    +0.000 A 
ATOM     25  C   UNL     1       4.567   5.215  19.358  0.00  0.00    +0.000 A 
ATOM     26  C   UNL     1       5.949   5.087  19.542  0.00  0.00    +0.000 A 
ATOM     27  C   UNL     1       6.827   5.741  18.680  0.00  0.00    +0.000 A 
ATOM     28 CL   UNL     1       8.525   5.567  18.907  0.00  0.00    +0.000 Cl
ATOM     29  C   UNL     1       6.323   6.523  17.645  0.00  0.00    +0.000 A 
ATOM     30  F   UNL     1       7.149   7.166  16.808  0.00  0.00    +0.000 F 
ATOM     31  C   UNL     1       4.949   6.651  17.454  0.00  0.00    +0.000 A 
ENDBRANCH  23  24
BRANCH  23  32
ATOM     32  C   UNL     1       1.831   4.810  18.393  0.00  0.00    +0.000 A 
ATOM     33  N   UNL     1       1.592   3.777  17.607  0.00  0.00    +0.000 NA
ATOM     34  C   UNL     1       0.927   2.935  18.457  0.00  0.00    +0.000 A 
ATOM     35  N   UNL     1       0.754   3.389  19.701  0.00  0.00    +0.000 NA
ATOM     36  O   UNL     1       1.357   4.646  19.666  0.00  0.00    +0.000 OA
ENDBRANCH  23  32
ENDBRANCH   3  23
TORSDOF 5
ENDMDL
MODEL 6
REMARK VINA RESULT:      -8.4      2.786      4.467
REMARK  Name = 
REMARK  5 active torsions:
REMARK  status: ('A' for Active; 'I' for Inactive)
REMARK    1  A    between atoms: C_2  and  C_18
REMARK    2  A    between atoms: N_3  and  C_4
REMARK    3  A    between atoms: C_4  and  C_5
REMARK    4  A    between atoms: C_4  and  C_13
REMARK    5  A    between atoms: N_25  and  C_26
REMARK                            x       y       z     vdW  Elec       q    Type
REMARK                         _______ _______ _______ _____ _____    ______ ____
ROOT
ATOM      1  O   UNL     1       2.432  10.397  17.737  0.00  0.00    +0.000 OA
ATOM      2  C   UNL     1       2.180   9.302  18.214  0.00  0.00    +0.000 C 
ATOM      3  N   UNL     1       1.232   9.107  19.197  0.00  0.00    +0.000 N 
ATOM      4  H   UNL     1       1.115   8.212  19.652  0.00  0.00    +0.000 HD
ENDROOT
BRANCH   2   5
ATOM      5  C   UNL     1       2.953   8.109  17.773  0.00  0.00    +0.000 A 
ATOM      6  C   UNL     1       4.040   8.297  16.909  0.00  0.00    +0.000 A 
ATOM      7  C   UNL     1       4.779   7.196  16.467  0.00  0.00    +0.000 A 
ATOM      8  C   UNL     1       4.411   5.901  16.875  0.00  0.00    +0.000 A 
ATOM      9  C   UNL     1       5.055   4.737  16.486  0.00  0.00    +0.000 A 
ATOM     10  N   UNL     1       4.658   3.496  16.850  0.00  0.00    +0.000 NA
ATOM     11  C   UNL     1       3.586   3.419  17.650  0.00  0.00    +0.000 A 
ATOM     12  N   UNL     1       3.123   2.161  17.953  0.00  0.00    +0.000 N 
ATOM     13  N   UNL     1       2.924   4.492  18.111  0.00  0.00    +0.000 NA
ATOM     14  C   UNL     1       3.317   5.707  17.719  0.00  0.00    +0.000 A 
ATOM     15  C   UNL     1       2.598   6.811  18.156  0.00  0.00    +0.000 A 
ATOM     16  H   UNL     1       3.777   1.456  17.632  0.00  0.00    +0.000 HD
BRANCH  12  17
ATOM     17  C   UNL     1       2.456   1.950  19.232  0.00  0.00    +0.000 C 
ATOM     18  C   UNL     1       1.121   2.701  19.293  0.00  0.00    +0.000 C 
ATOM     19  C   UNL     1       0.554   2.668  20.707  0.00  0.00    +0.000 C 
ATOM     20  O   UNL     1       1.502   3.173  21.646  0.00  0.00    +0.000 OA
ATOM     21  C   UNL     1       2.684   2.377  21.690  0.00  0.00    +0.000 C 
ATOM     22  C   UNL     1       3.396   2.407  20.349  0.00  0.00    +0.000 C 
ENDBRANCH  12  17
ENDBRANCH   2   5
BRANCH   3  23
ATOM     23  C   UNL     1       0.449  10.231  19.711  0.00  0.00    +0.000 C 
BRANCH  23  24
ATOM     24  C   UNL     1      -0.786  10.456  18.848  0.00  0.00    +0.000 A 
ATOM     25  C   UNL     1      -1.745  11.413  19.228  0.00  0.00    +0.000 A 
ATOM     26  C   UNL     1      -2.875  11.651  18.437  0.00  0.00    +0.000 A 
ATOM     27  C   UNL     1      -3.061  10.932  17.259  0.00  0.00    +0.000 A 
ATOM     28 CL   UNL     1      -4.448  11.242  16.286  0.00  0.00    +0.000 Cl
ATOM     29  C   UNL     1      -2.123   9.978  16.877  0.00  0.00    +0.000 A 
ATOM     30  F   UNL     1      -2.285   9.270  15.750  0.00  0.00    +0.000 F 
ATOM     31  C   UNL     1      -0.993   9.738  17.658  0.00  0.00    +0.000 A 
ENDBRANCH  23  24
BRANCH  23  32
ATOM     32  C   UNL     1       0.110   9.987  21.150  0.00  0.00    +0.000 A 
ATOM     33  N   UNL     1      -0.312   8.892  21.756  0.00  0.00    +0.000 NA
ATOM     34  C   UNL     1      -0.420   9.322  23.051  0.00  0.00    +0.000 A 
ATOM     35  N   UNL     1      -0.089  10.597  23.266  0.00  0.00    +0.000 NA
ATOM     36  O   UNL     1       0.267  11.050  21.996  0.00  0.00    +0.000 OA
ENDBRANCH  23  32
ENDBRANCH   3  23
TORSDOF 5
ENDMDL
MODEL 7
REMARK VINA RESULT:      -8.3      2.134      2.380
REMARK  Name = 
REMARK  5 active torsions:
REMARK  status: ('A' for Active; 'I' for Inactive)
REMARK    1  A    between atoms: C_2  and  C_18
REMARK    2  A    between atoms: N_3  and  C_4
REMARK    3  A    between atoms: C_4  and  C_5
REMARK    4  A    between atoms: C_4  and  C_13
REMARK    5  A    between atoms: N_25  and  C_26
REMARK                            x       y       z     vdW  Elec       q    Type
REMARK                         _______ _______ _______ _____ _____    ______ ____
ROOT
ATOM      1  O   UNL     1       0.744   9.158  17.381  0.00  0.00    +0.000 OA
ATOM      2  C   UNL     1       1.496   9.096  18.341  0.00  0.00    +0.000 C 
ATOM      3  N   UNL     1       1.669  10.136  19.231  0.00  0.00    +0.000 N 
ATOM      4  H   UNL     1       2.374  10.103  19.955  0.00  0.00    +0.000 HD
ENDROOT
BRANCH   2   5
ATOM      5  C   UNL     1       2.318   7.875  18.558  0.00  0.00    +0.000 A 
ATOM      6  C   UNL     1       2.197   7.193  19.777  0.00  0.00    +0.000 A 
ATOM      7  C   UNL     1       2.965   6.051  20.017  0.00  0.00    +0.000 A 
ATOM      8  C   UNL     1       3.874   5.604  19.040  0.00  0.00    +0.000 A 
ATOM      9  C   UNL     1       4.699   4.499  19.175  0.00  0.00    +0.000 A 
ATOM     10  N   UNL     1       5.602   4.112  18.244  0.00  0.00    +0.000 NA
ATOM     11  C   UNL     1       5.667   4.850  17.127  0.00  0.00    +0.000 A 
ATOM     12  N   UNL     1       6.641   4.517  16.217  0.00  0.00    +0.000 N 
ATOM     13  N   UNL     1       4.880   5.912  16.891  0.00  0.00    +0.000 NA
ATOM     14  C   UNL     1       4.013   6.291  17.833  0.00  0.00    +0.000 A 
ATOM     15  C   UNL     1       3.238   7.420  17.606  0.00  0.00    +0.000 A 
ATOM     16  H   UNL     1       7.081   3.641  16.472  0.00  0.00    +0.000 HD
BRANCH  12  17
ATOM     17  C   UNL     1       6.395   4.779  14.803  0.00  0.00    +0.000 C 
ATOM     18  C   UNL     1       5.697   3.592  14.131  0.00  0.00    +0.000 C 
ATOM     19  C   UNL     1       5.661   3.779  12.619  0.00  0.00    +0.000 C 
ATOM     20  O   UNL     1       6.973   3.997  12.104  0.00  0.00    +0.000 OA
ATOM     21  C   UNL     1       7.559   5.189  12.623  0.00  0.00    +0.000 C 
ATOM     22  C   UNL     1       7.733   5.085  14.128  0.00  0.00    +0.000 C 
ENDBRANCH  12  17
ENDBRANCH   2   5
BRANCH   3  23
ATOM     23  C   UNL     1       0.923  11.385  19.073  0.00  0.00    +0.000 C 
BRANCH  23  24
ATOM     24  C   UNL     1      -0.085  11.548  20.203  0.00  0.00    +0.000 A 
ATOM     25  C   UNL     1       0.068  10.812  21.392  0.00  0.00    +0.000 A 
ATOM     26  C   UNL     1      -0.835  10.964  22.452  0.00  0.00    +0.000 A 
ATOM     27  C   UNL     1      -1.903  11.850  22.332  0.00  0.00    +0.000 A 
ATOM     28 CL   UNL     1      -3.000  12.039  23.646  0.00  0.00    +0.000 Cl
ATOM     29  C   UNL     1      -2.068  12.576  21.157  0.00  0.00    +0.000 A 
ATOM     30  F   UNL     1      -3.092  13.430  21.017  0.00  0.00    +0.000 F 
ATOM     31  C   UNL     1      -1.171  12.433  20.099  0.00  0.00    +0.000 A 
ENDBRANCH  23  24
BRANCH  23  32
ATOM     32  C   UNL     1       1.883  12.532  18.987  0.00  0.00    +0.000 A 
ATOM     33  N   UNL     1       2.393  13.144  17.934  0.00  0.00    +0.000 NA
ATOM     34  C   UNL     1       3.176  14.099  18.526  0.00  0.00    +0.000 A 
ATOM     35  N   UNL     1       3.169  14.105  19.861  0.00  0.00    +0.000 NA
ATOM     36  O   UNL     1       2.305  13.057  20.177  0.00  0.00    +0.000 OA
ENDBRANCH  23  32
ENDBRANCH   3  23
TORSDOF 5
ENDMDL
MODEL 8
REMARK VINA RESULT:      -8.3      1.054      1.370
REMARK  Name = 
REMARK  5 active torsions:
REMARK  status: ('A' for Active; 'I' for Inactive)
REMARK    1  A    between atoms: C_2  and  C_18
REMARK    2  A    between atoms: N_3  and  C_4
REMARK    3  A    between atoms: C_4  and  C_5
REMARK    4  A    between atoms: C_4  and  C_13
REMARK    5  A    between atoms: N_25  and  C_26
REMARK                            x       y       z     vdW  Elec       q    Type
REMARK                         _______ _______ _______ _____ _____    ______ ____
ROOT
ATOM      1  O   UNL     1       2.307  10.631  17.484  0.00  0.00    +0.000 OA
ATOM      2  C   UNL     1       1.654   9.880  18.191  0.00  0.00    +0.000 C 
ATOM      3  N   UNL     1       0.462  10.246  18.782  0.00  0.00    +0.000 N 
ATOM      4  H   UNL     1      -0.007   9.648  19.447  0.00  0.00    +0.000 HD
ENDROOT
BRANCH   2   5
ATOM      5  C   UNL     1       2.168   8.517  18.494  0.00  0.00    +0.000 A 
ATOM      6  C   UNL     1       1.759   7.895  19.682  0.00  0.00    +0.000 A 
ATOM      7  C   UNL     1       2.234   6.620  20.002  0.00  0.00    +0.000 A 
ATOM      8  C   UNL     1       3.140   5.977  19.138  0.00  0.00    +0.000 A 
ATOM      9  C   UNL     1       3.691   4.725  19.361  0.00  0.00    +0.000 A 
ATOM     10  N   UNL     1       4.597   4.143  18.543  0.00  0.00    +0.000 NA
ATOM     11  C   UNL     1       4.951   4.833  17.450  0.00  0.00    +0.000 A 
ATOM     12  N   UNL     1       5.936   4.288  16.661  0.00  0.00    +0.000 N 
ATOM     13  N   UNL     1       4.441   6.032  17.131  0.00  0.00    +0.000 NA
ATOM     14  C   UNL     1       3.566   6.601  17.965  0.00  0.00    +0.000 A 
ATOM     15  C   UNL     1       3.080   7.864  17.657  0.00  0.00    +0.000 A 
ATOM     16  H   UNL     1       6.147   3.342  16.959  0.00  0.00    +0.000 HD
BRANCH  12  17
ATOM     17  C   UNL     1       5.924   4.574  15.232  0.00  0.00    +0.000 C 
ATOM     18  C   UNL     1       5.418   3.371  14.428  0.00  0.00    +0.000 C 
ATOM     19  C   UNL     1       5.633   3.595  12.937  0.00  0.00    +0.000 C 
ATOM     20  O   UNL     1       7.001   3.892  12.661  0.00  0.00    +0.000 OA
ATOM     21  C   UNL     1       7.424   5.098  13.294  0.00  0.00    +0.000 C 
ATOM     22  C   UNL     1       7.341   4.963  14.804  0.00  0.00    +0.000 C 
ENDBRANCH  12  17
ENDBRANCH   2   5
BRANCH   3  23
ATOM     23  C   UNL     1      -0.100  11.580  18.563  0.00  0.00    +0.000 C 
BRANCH  23  24
ATOM     24  C   UNL     1      -1.604  11.492  18.340  0.00  0.00    +0.000 A 
ATOM     25  C   UNL     1      -2.489  12.003  19.306  0.00  0.00    +0.000 A 
ATOM     26  C   UNL     1      -3.874  11.953  19.110  0.00  0.00    +0.000 A 
ATOM     27  C   UNL     1      -4.390  11.386  17.947  0.00  0.00    +0.000 A 
ATOM     28 CL   UNL     1      -6.095  11.341  17.709  0.00  0.00    +0.000 Cl
ATOM     29  C   UNL     1      -3.524  10.869  16.988  0.00  0.00    +0.000 A 
ATOM     30  F   UNL     1      -3.998  10.313  15.864  0.00  0.00    +0.000 F 
ATOM     31  C   UNL     1      -2.143  10.920  17.175  0.00  0.00    +0.000 A 
ENDBRANCH  23  24
BRANCH  23  32
ATOM     32  C   UNL     1       0.262  12.469  19.713  0.00  0.00    +0.000 A 
ATOM     33  N   UNL     1       0.466  12.182  20.986  0.00  0.00    +0.000 NA
ATOM     34  C   UNL     1       0.770  13.414  21.499  0.00  0.00    +0.000 A 
ATOM     35  N   UNL     1       0.766  14.421  20.622  0.00  0.00    +0.000 NA
ATOM     36  O   UNL     1       0.426  13.795  19.423  0.00  0.00    +0.000 OA
ENDBRANCH  23  32
ENDBRANCH   3  23
TORSDOF 5
ENDMDL
MODEL 9
REMARK VINA RESULT:      -8.2      5.545      8.121
REMARK  Name = 
REMARK  5 active torsions:
REMARK  status: ('A' for Active; 'I' for Inactive)
REMARK    1  A    between atoms: C_2  and  C_18
REMARK    2  A    between atoms: N_3  and  C_4
REMARK    3  A    between atoms: C_4  and  C_5
REMARK    4  A    between atoms: C_4  and  C_13
REMARK    5  A    between atoms: N_25  and  C_26
REMARK                            x       y       z     vdW  Elec       q    Type
REMARK                         _______ _______ _______ _____ _____    ______ ____
ROOT
ATOM      1  O   UNL     1       0.675  14.038  18.081  0.00  0.00    +0.000 OA
ATOM      2  C   UNL     1       1.716  13.663  18.599  0.00  0.00    +0.000 C 
ATOM      3  N   UNL     1       1.855  12.432  19.204  0.00  0.00    +0.000 N 
ATOM      4  H   UNL     1       2.689  12.184  19.719  0.00  0.00    +0.000 HD
ENDROOT
BRANCH   2   5
ATOM      5  C   UNL     1       2.890  14.576  18.644  0.00  0.00    +0.000 A 
ATOM      6  C   UNL     1       2.671  15.938  18.889  0.00  0.00    +0.000 A 
ATOM      7  C   UNL     1       3.751  16.824  18.925  0.00  0.00    +0.000 A 
ATOM      8  C   UNL     1       5.053  16.345  18.692  0.00  0.00    +0.000 A 
ATOM      9  C   UNL     1       6.194  17.131  18.682  0.00  0.00    +0.000 A 
ATOM     10  N   UNL     1       7.433  16.660  18.409  0.00  0.00    +0.000 NA
ATOM     11  C   UNL     1       7.534  15.349  18.152  0.00  0.00    +0.000 A 
ATOM     12  N   UNL     1       8.773  14.880  17.787  0.00  0.00    +0.000 N 
ATOM     13  N   UNL     1       6.492  14.504  18.179  0.00  0.00    +0.000 NA
ATOM     14  C   UNL     1       5.274  14.993  18.427  0.00  0.00    +0.000 A 
ATOM     15  C   UNL     1       4.192  14.124  18.402  0.00  0.00    +0.000 A 
ATOM     16  H   UNL     1       9.477  15.598  17.915  0.00  0.00    +0.000 HD
BRANCH  12  17
ATOM     17  C   UNL     1       9.125  13.504  18.117  0.00  0.00    +0.000 C 
ATOM     18  C   UNL     1       9.398  13.344  19.617  0.00  0.00    +0.000 C 
ATOM     19  C   UNL     1       9.990  11.971  19.909  0.00  0.00    +0.000 C 
ATOM     20  O   UNL     1      11.157  11.744  19.119  0.00  0.00    +0.000 OA
ATOM     21  C   UNL     1      10.865  11.744  17.723  0.00  0.00    +0.000 C 
ATOM     22  C   UNL     1      10.348  13.105  17.289  0.00  0.00    +0.000 C 
ENDBRANCH  12  17
ENDBRANCH   2   5
BRANCH   3  23
ATOM     23  C   UNL     1       0.740  11.484  19.233  0.00  0.00    +0.000 C 
BRANCH  23  24
ATOM     24  C   UNL     1       1.253  10.055  19.111  0.00  0.00    +0.000 A 
ATOM     25  C   UNL     1       1.839   9.620  17.909  0.00  0.00    +0.000 A 
ATOM     26  C   UNL     1       2.338   8.318  17.783  0.00  0.00    +0.000 A 
ATOM     27  C   UNL     1       2.253   7.435  18.858  0.00  0.00    +0.000 A 
ATOM     28 CL   UNL     1       2.881   5.840  18.698  0.00  0.00    +0.000 Cl
ATOM     29  C   UNL     1       1.667   7.853  20.049  0.00  0.00    +0.000 A 
ATOM     30  F   UNL     1       1.568   7.019  21.094  0.00  0.00    +0.000 F 
ATOM     31  C   UNL     1       1.172   9.149  20.182  0.00  0.00    +0.000 A 
ENDBRANCH  23  24
BRANCH  23  32
ATOM     32  C   UNL     1      -0.068  11.702  20.476  0.00  0.00    +0.000 A 
ATOM     33  N   UNL     1      -1.360  11.543  20.697  0.00  0.00    +0.000 NA
ATOM     34  C   UNL     1      -1.456  11.892  22.018  0.00  0.00    +0.000 A 
ATOM     35  N   UNL     1      -0.312  12.246  22.606  0.00  0.00    +0.000 NA
ATOM     36  O   UNL     1       0.624  12.122  21.579  0.00  0.00    +0.000 OA
ENDBRANCH  23  32
ENDBRANCH   3  23
TORSDOF 5
ENDMDL
