MODEL 1
REMARK VINA RESULT:      -8.9      0.000      0.000
REMARK  Name = 
REMARK  6 active torsions:
REMARK  status: ('A' for Active; 'I' for Inactive)
REMARK    1  A    between atoms: C_1  and  C_2
REMARK    2  A    between atoms: C_8  and  C_9
REMARK    3  A    between atoms: C_12  and  C_13
REMARK    4  A    between atoms: C_17  and  N_18
REMARK    5  A    between atoms: C_19  and  C_21
REMARK    6  A    between atoms: N_25  and  C_26
REMARK                            x       y       z     vdW  Elec       q    Type
REMARK                         _______ _______ _______ _____ _____    ______ ____
ROOT
ATOM      1  C   UNL     1       2.125   8.223  18.669  0.00  0.00    +0.000 A 
ATOM      2  C   UNL     1       1.726   8.056  19.996  0.00  0.00    +0.000 A 
ATOM      3  C   UNL     1       0.918   9.006  20.622  0.00  0.00    +0.000 A 
ATOM      4  C   UNL     1       0.447  10.138  19.935  0.00  0.00    +0.000 A 
ATOM      5  C   UNL     1       0.851  10.288  18.595  0.00  0.00    +0.000 A 
ATOM      6  C   UNL     1       1.685   9.351  17.972  0.00  0.00    +0.000 A 
ENDROOT
BRANCH   1  14
ATOM      7  C   UNL     1       3.003   2.751  17.695  0.00  0.00    +0.000 C 
ATOM      8  C   UNL     1       3.900   3.829  17.173  0.00  0.00    +0.000 A 
ATOM      9  C   UNL     1       5.032   3.527  16.393  0.00  0.00    +0.000 A 
ATOM     10  C   UNL     1       5.879   4.526  15.900  0.00  0.00    +0.000 A 
ATOM     11  C   UNL     1       5.624   5.875  16.160  0.00  0.00    +0.000 A 
ATOM     12  C   UNL     1       4.502   6.204  16.932  0.00  0.00    +0.000 A 
ATOM     13  N   UNL     1       4.037   7.435  17.311  0.00  0.00    +0.000 NA
ATOM     14  C   UNL     1       2.968   7.206  18.048  0.00  0.00    +0.000 A 
ATOM     15  N   UNL     1       2.718   5.860  18.123  0.00  0.00    +0.000 N 
ATOM     16  C   UNL     1       3.686   5.192  17.416  0.00  0.00    +0.000 A 
ATOM     17  H   UNL     1       1.938   5.435  18.597  0.00  0.00    +0.000 HD
ENDBRANCH   1  14
BRANCH   4  18
ATOM     18  C   UNL     1      -0.443  11.120  20.598  0.00  0.00    +0.000 A 
ATOM     19  C   UNL     1      -0.135  11.655  21.858  0.00  0.00    +0.000 A 
ATOM     20  C   UNL     1      -0.980  12.575  22.477  0.00  0.00    +0.000 A 
ATOM     21  C   UNL     1      -2.156  12.979  21.851  0.00  0.00    +0.000 A 
ATOM     22  C   UNL     1      -2.494  12.483  20.594  0.00  0.00    +0.000 A 
ATOM     23  C   UNL     1      -1.638  11.556  19.984  0.00  0.00    +0.000 A 
BRANCH  22  24
ATOM     24  N   UNL     1      -3.661  12.861  19.890  0.00  0.00    +0.000 N 
ATOM     25  C   UNL     1      -4.969  12.703  20.308  0.00  0.00    +0.000 C 
ATOM     26  O   UNL     1      -5.301  12.192  21.376  0.00  0.00    +0.000 OA
ATOM     27  H   UNL     1      -3.509  13.314  18.999  0.00  0.00    +0.000 HD
BRANCH  25  28
ATOM     28  C   UNL     1      -5.967  13.200  19.384  0.00  0.00    +0.000 A 
ATOM     29  C   UNL     1      -6.463  14.474  19.168  0.00  0.00    +0.000 A 
ATOM     30  N   UNL     1      -7.420  14.488  18.187  0.00  0.00    +0.000 NA
ATOM     31  C   UNL     1      -7.541  13.238  17.810  0.00  0.00    +0.000 A 
ATOM     32  N   UNL     1      -6.697  12.421  18.507  0.00  0.00    +0.000 N 
ATOM     33  C   UNL     1      -6.600  10.991  18.328  0.00  0.00    +0.000 C 
ENDBRANCH  25  28
ENDBRANCH  22  24
ENDBRANCH   4  18
TORSDOF 4
ENDMDL
MODEL 2
REMARK VINA RESULT:      -8.7      0.758      1.451
REMARK  Name = 
REMARK  6 active torsions:
REMARK  status: ('A' for Active; 'I' for Inactive)
REMARK    1  A    between atoms: C_1  and  C_2
REMARK    2  A    between atoms: C_8  and  C_9
REMARK    3  A    between atoms: C_12  and  C_13
REMARK    4  A    between atoms: C_17  and  N_18
REMARK    5  A    between atoms: C_19  and  C_21
REMARK    6  A    between atoms: N_25  and  C_26
REMARK                            x       y       z     vdW  Elec       q    Type
REMARK                         _______ _______ _______ _____ _____    ______ ____
ROOT
ATOM      1  C   UNL     1       1.894   8.204  18.844  0.00  0.00    +0.000 A 
ATOM      2  C   UNL     1       1.316   9.227  18.090  0.00  0.00    +0.000 A 
ATOM      3  C   UNL     1       0.443  10.142  18.680  0.00  0.00    +0.000 A 
ATOM      4  C   UNL     1       0.143  10.092  20.053  0.00  0.00    +0.000 A 
ATOM      5  C   UNL     1       0.739   9.060  20.801  0.00  0.00    +0.000 A 
ATOM      6  C   UNL     1       1.595   8.123  20.207  0.00  0.00    +0.000 A 
ENDROOT
BRANCH   1  14
ATOM      7  C   UNL     1       3.173   2.840  17.729  0.00  0.00    +0.000 C 
ATOM      8  C   UNL     1       3.981   3.995  17.227  0.00  0.00    +0.000 A 
ATOM      9  C   UNL     1       5.126   3.799  16.432  0.00  0.00    +0.000 A 
ATOM     10  C   UNL     1       5.890   4.870  15.958  0.00  0.00    +0.000 A 
ATOM     11  C   UNL     1       5.537   6.189  16.252  0.00  0.00    +0.000 A 
ATOM     12  C   UNL     1       4.400   6.414  17.041  0.00  0.00    +0.000 A 
ATOM     13  N   UNL     1       3.847   7.596  17.454  0.00  0.00    +0.000 NA
ATOM     14  C   UNL     1       2.805   7.269  18.192  0.00  0.00    +0.000 A 
ATOM     15  N   UNL     1       2.658   5.907  18.236  0.00  0.00    +0.000 N 
ATOM     16  C   UNL     1       3.667   5.331  17.506  0.00  0.00    +0.000 A 
ATOM     17  H   UNL     1       1.917   5.413  18.705  0.00  0.00    +0.000 HD
ENDBRANCH   1  14
BRANCH   4  18
ATOM     18  C   UNL     1      -0.755  11.092  20.677  0.00  0.00    +0.000 A 
ATOM     19  C   UNL     1      -0.563  11.528  21.997  0.00  0.00    +0.000 A 
ATOM     20  C   UNL     1      -1.415  12.465  22.579  0.00  0.00    +0.000 A 
ATOM     21  C   UNL     1      -2.481  12.989  21.852  0.00  0.00    +0.000 A 
ATOM     22  C   UNL     1      -2.701  12.594  20.535  0.00  0.00    +0.000 A 
ATOM     23  C   UNL     1      -1.839  11.648  19.963  0.00  0.00    +0.000 A 
BRANCH  22  24
ATOM     24  N   UNL     1      -3.751  13.095  19.732  0.00  0.00    +0.000 N 
ATOM     25  C   UNL     1      -5.095  12.786  19.836  0.00  0.00    +0.000 C 
ATOM     26  O   UNL     1      -5.567  12.008  20.662  0.00  0.00    +0.000 OA
ATOM     27  H   UNL     1      -3.482  13.766  19.025  0.00  0.00    +0.000 HD
BRANCH  25  28
ATOM     28  C   UNL     1      -5.950  13.464  18.885  0.00  0.00    +0.000 A 
ATOM     29  C   UNL     1      -6.357  13.116  17.608  0.00  0.00    +0.000 A 
ATOM     30  N   UNL     1      -7.171  14.070  17.056  0.00  0.00    +0.000 NA
ATOM     31  C   UNL     1      -7.254  15.015  17.962  0.00  0.00    +0.000 A 
ATOM     32  N   UNL     1      -6.529  14.704  19.076  0.00  0.00    +0.000 N 
ATOM     33  C   UNL     1      -6.413  15.545  20.245  0.00  0.00    +0.000 C 
ENDBRANCH  25  28
ENDBRANCH  22  24
ENDBRANCH   4  18
TORSDOF 4
ENDMDL
MODEL 3
REMARK VINA RESULT:      -8.5      0.482      1.704
REMARK  Name = 
REMARK  6 active torsions:
REMARK  status: ('A' for Active; 'I' for Inactive)
REMARK    1  A    between atoms: C_1  and  C_2
REMARK    2  A    between atoms: C_8  and  C_9
REMARK    3  A    between atoms: C_12  and  C_13
REMARK    4  A    between atoms: C_17  and  N_18
REMARK    5  A    between atoms: C_19  and  C_21
REMARK    6  A    between atoms: N_25  and  C_26
REMARK                            x       y       z     vdW  Elec       q    Type
REMARK                         _______ _______ _______ _____ _____    ______ ____
ROOT
ATOM      1  C   UNL     1       2.020   8.046  18.908  0.00  0.00    +0.000 A 
ATOM      2  C   UNL     1       1.493   9.056  18.102  0.00  0.00    +0.000 A 
ATOM      3  C   UNL     1       0.675  10.047  18.646  0.00  0.00    +0.000 A 
ATOM      4  C   UNL     1       0.383  10.088  20.020  0.00  0.00    +0.000 A 
ATOM      5  C   UNL     1       0.928   9.067  20.821  0.00  0.00    +0.000 A 
ATOM      6  C   UNL     1       1.728   8.055  20.274  0.00  0.00    +0.000 A 
ENDROOT
BRANCH   1  14
ATOM      7  C   UNL     1       7.149   6.666  17.051  0.00  0.00    +0.000 C 
ATOM      8  C   UNL     1       5.987   5.723  17.021  0.00  0.00    +0.000 A 
ATOM      9  C   UNL     1       6.117   4.415  16.519  0.00  0.00    +0.000 A 
ATOM     10  C   UNL     1       5.038   3.525  16.484  0.00  0.00    +0.000 A 
ATOM     11  C   UNL     1       3.780   3.904  16.960  0.00  0.00    +0.000 A 
ATOM     12  C   UNL     1       3.623   5.200  17.467  0.00  0.00    +0.000 A 
ATOM     13  N   UNL     1       2.511   5.800  17.995  0.00  0.00    +0.000 NA
ATOM     14  C   UNL     1       2.875   7.029  18.304  0.00  0.00    +0.000 A 
ATOM     15  N   UNL     1       4.202   7.221  18.017  0.00  0.00    +0.000 N 
ATOM     16  C   UNL     1       4.708   6.065  17.479  0.00  0.00    +0.000 A 
ATOM     17  H   UNL     1       4.723   8.063  18.197  0.00  0.00    +0.000 HD
ENDBRANCH   1  14
BRANCH   4  18
ATOM     18  C   UNL     1      -0.454  11.168  20.593  0.00  0.00    +0.000 A 
ATOM     19  C   UNL     1      -0.073  11.854  21.756  0.00  0.00    +0.000 A 
ATOM     20  C   UNL     1      -0.869  12.865  22.292  0.00  0.00    +0.000 A 
ATOM     21  C   UNL     1      -2.068  13.213  21.675  0.00  0.00    +0.000 A 
ATOM     22  C   UNL     1      -2.479  12.568  20.512  0.00  0.00    +0.000 A 
ATOM     23  C   UNL     1      -1.671  11.550  19.986  0.00  0.00    +0.000 A 
BRANCH  22  24
ATOM     24  N   UNL     1      -3.673  12.880  19.822  0.00  0.00    +0.000 N 
ATOM     25  C   UNL     1      -4.964  12.759  20.302  0.00  0.00    +0.000 C 
ATOM     26  O   UNL     1      -5.253  12.345  21.423  0.00  0.00    +0.000 OA
ATOM     27  H   UNL     1      -3.557  13.252  18.889  0.00  0.00    +0.000 HD
BRANCH  25  28
ATOM     28  C   UNL     1      -5.998  13.169  19.376  0.00  0.00    +0.000 A 
ATOM     29  C   UNL     1      -6.561  14.409  19.121  0.00  0.00    +0.000 A 
ATOM     30  N   UNL     1      -7.531  14.337  18.155  0.00  0.00    +0.000 NA
ATOM     31  C   UNL     1      -7.594  13.069  17.827  0.00  0.00    +0.000 A 
ATOM     32  N   UNL     1      -6.700  12.323  18.540  0.00  0.00    +0.000 N 
ATOM     33  C   UNL     1      -6.534  10.893  18.414  0.00  0.00    +0.000 C 
ENDBRANCH  25  28
ENDBRANCH  22  24
ENDBRANCH   4  18
TORSDOF 4
ENDMDL
MODEL 4
REMARK VINA RESULT:      -8.5      1.982      2.780
REMARK  Name = 
REMARK  6 active torsions:
REMARK  status: ('A' for Active; 'I' for Inactive)
REMARK    1  A    between atoms: C_1  and  C_2
REMARK    2  A    between atoms: C_8  and  C_9
REMARK    3  A    between atoms: C_12  and  C_13
REMARK    4  A    between atoms: C_17  and  N_18
REMARK    5  A    between atoms: C_19  and  C_21
REMARK    6  A    between atoms: N_25  and  C_26
REMARK                            x       y       z     vdW  Elec       q    Type
REMARK                         _______ _______ _______ _____ _____    ______ ____
ROOT
ATOM      1  C   UNL     1       1.755   8.146  19.535  0.00  0.00    +0.000 A 
ATOM      2  C   UNL     1       1.410   9.224  18.720  0.00  0.00    +0.000 A 
ATOM      3  C   UNL     1       0.773  10.346  19.253  0.00  0.00    +0.000 A 
ATOM      4  C   UNL     1       0.491  10.448  20.627  0.00  0.00    +0.000 A 
ATOM      5  C   UNL     1       0.852   9.355  21.437  0.00  0.00    +0.000 A 
ATOM      6  C   UNL     1       1.467   8.216  20.900  0.00  0.00    +0.000 A 
ENDROOT
BRANCH   1  14
ATOM      7  C   UNL     1       5.345   6.241  15.644  0.00  0.00    +0.000 C 
ATOM      8  C   UNL     1       4.653   5.347  16.626  0.00  0.00    +0.000 A 
ATOM      9  C   UNL     1       4.869   3.957  16.632  0.00  0.00    +0.000 A 
ATOM     10  C   UNL     1       4.228   3.112  17.544  0.00  0.00    +0.000 A 
ATOM     11  C   UNL     1       3.346   3.624  18.499  0.00  0.00    +0.000 A 
ATOM     12  C   UNL     1       3.114   5.006  18.518  0.00  0.00    +0.000 A 
ATOM     13  N   UNL     1       2.315   5.743  19.350  0.00  0.00    +0.000 NA
ATOM     14  C   UNL     1       2.423   6.993  18.941  0.00  0.00    +0.000 A 
ATOM     15  N   UNL     1       3.297   7.077  17.888  0.00  0.00    +0.000 N 
ATOM     16  C   UNL     1       3.757   5.819  17.594  0.00  0.00    +0.000 A 
ATOM     17  H   UNL     1       3.574   7.927  17.425  0.00  0.00    +0.000 HD
ENDBRANCH   1  14
BRANCH   4  18
ATOM     18  C   UNL     1      -0.150  11.660  21.188  0.00  0.00    +0.000 A 
ATOM     19  C   UNL     1       0.546  12.873  21.299  0.00  0.00    +0.000 A 
ATOM     20  C   UNL     1      -0.062  14.008  21.833  0.00  0.00    +0.000 A 
ATOM     21  C   UNL     1      -1.383  13.955  22.271  0.00  0.00    +0.000 A 
ATOM     22  C   UNL     1      -2.115  12.775  22.169  0.00  0.00    +0.000 A 
ATOM     23  C   UNL     1      -1.490  11.640  21.633  0.00  0.00    +0.000 A 
BRANCH  22  24
ATOM     24  N   UNL     1      -3.463  12.651  22.576  0.00  0.00    +0.000 N 
ATOM     25  C   UNL     1      -4.573  13.174  21.940  0.00  0.00    +0.000 C 
ATOM     26  O   UNL     1      -4.533  13.843  20.909  0.00  0.00    +0.000 OA
ATOM     27  H   UNL     1      -3.621  12.099  23.409  0.00  0.00    +0.000 HD
BRANCH  25  28
ATOM     28  C   UNL     1      -5.838  12.874  22.578  0.00  0.00    +0.000 A 
ATOM     29  C   UNL     1      -6.303  13.131  23.857  0.00  0.00    +0.000 A 
ATOM     30  N   UNL     1      -7.576  12.655  24.040  0.00  0.00    +0.000 NA
ATOM     31  C   UNL     1      -7.894  12.086  22.902  0.00  0.00    +0.000 A 
ATOM     32  N   UNL     1      -6.880  12.181  21.994  0.00  0.00    +0.000 N 
ATOM     33  C   UNL     1      -6.922  11.645  20.653  0.00  0.00    +0.000 C 
ENDBRANCH  25  28
ENDBRANCH  22  24
ENDBRANCH   4  18
TORSDOF 4
ENDMDL
MODEL 5
REMARK VINA RESULT:      -8.4      1.986      2.453
REMARK  Name = 
REMARK  6 active torsions:
REMARK  status: ('A' for Active; 'I' for Inactive)
REMARK    1  A    between atoms: C_1  and  C_2
REMARK    2  A    between atoms: C_8  and  C_9
REMARK    3  A    between atoms: C_12  and  C_13
REMARK    4  A    between atoms: C_17  and  N_18
REMARK    5  A    between atoms: C_19  and  C_21
REMARK    6  A    between atoms: N_25  and  C_26
REMARK                            x       y       z     vdW  Elec       q    Type
REMARK                         _______ _______ _______ _____ _____    ______ ____
ROOT
ATOM      1  C   UNL     1       1.799   8.121  19.397  0.00  0.00    +0.000 A 
ATOM      2  C   UNL     1       1.467   9.241  18.634  0.00  0.00    +0.000 A 
ATOM      3  C   UNL     1       0.801  10.324  19.210  0.00  0.00    +0.000 A 
ATOM      4  C   UNL     1       0.475  10.344  20.578  0.00  0.00    +0.000 A 
ATOM      5  C   UNL     1       0.824   9.210  21.335  0.00  0.00    +0.000 A 
ATOM      6  C   UNL     1       1.468   8.110  20.755  0.00  0.00    +0.000 A 
ENDROOT
BRANCH   1  14
ATOM      7  C   UNL     1       2.360   2.546  18.889  0.00  0.00    +0.000 C 
ATOM      8  C   UNL     1       3.185   3.525  18.113  0.00  0.00    +0.000 A 
ATOM      9  C   UNL     1       4.162   3.096  17.195  0.00  0.00    +0.000 A 
ATOM     10  C   UNL     1       4.939   4.002  16.465  0.00  0.00    +0.000 A 
ATOM     11  C   UNL     1       4.766   5.380  16.616  0.00  0.00    +0.000 A 
ATOM     12  C   UNL     1       3.799   5.835  17.522  0.00  0.00    +0.000 A 
ATOM     13  N   UNL     1       3.435   7.117  17.837  0.00  0.00    +0.000 NA
ATOM     14  C   UNL     1       2.499   7.011  18.760  0.00  0.00    +0.000 A 
ATOM     15  N   UNL     1       2.232   5.691  19.019  0.00  0.00    +0.000 N 
ATOM     16  C   UNL     1       3.049   4.913  18.240  0.00  0.00    +0.000 A 
ATOM     17  H   UNL     1       1.531   5.351  19.658  0.00  0.00    +0.000 HD
ENDBRANCH   1  14
BRANCH   4  18
ATOM     18  C   UNL     1      -0.197  11.515  21.187  0.00  0.00    +0.000 A 
ATOM     19  C   UNL     1       0.480  12.728  21.387  0.00  0.00    +0.000 A 
ATOM     20  C   UNL     1      -0.158  13.824  21.965  0.00  0.00    +0.000 A 
ATOM     21  C   UNL     1      -1.490  13.732  22.359  0.00  0.00    +0.000 A 
ATOM     22  C   UNL     1      -2.204  12.552  22.168  0.00  0.00    +0.000 A 
ATOM     23  C   UNL     1      -1.550  11.456  21.589  0.00  0.00    +0.000 A 
BRANCH  22  24
ATOM     24  N   UNL     1      -3.562  12.390  22.527  0.00  0.00    +0.000 N 
ATOM     25  C   UNL     1      -4.598  13.269  22.270  0.00  0.00    +0.000 C 
ATOM     26  O   UNL     1      -4.470  14.342  21.684  0.00  0.00    +0.000 OA
ATOM     27  H   UNL     1      -3.792  11.526  23.000  0.00  0.00    +0.000 HD
BRANCH  25  28
ATOM     28  C   UNL     1      -5.896  12.834  22.742  0.00  0.00    +0.000 A 
ATOM     29  C   UNL     1      -6.500  12.936  23.984  0.00  0.00    +0.000 A 
ATOM     30  N   UNL     1      -7.750  12.373  23.989  0.00  0.00    +0.000 NA
ATOM     31  C   UNL     1      -7.916  11.901  22.776  0.00  0.00    +0.000 A 
ATOM     32  N   UNL     1      -6.826  12.144  21.991  0.00  0.00    +0.000 N 
ATOM     33  C   UNL     1      -6.700  11.741  20.609  0.00  0.00    +0.000 C 
ENDBRANCH  25  28
ENDBRANCH  22  24
ENDBRANCH   4  18
TORSDOF 4
ENDMDL
MODEL 6
REMARK VINA RESULT:      -8.4      1.592      2.038
REMARK  Name = 
REMARK  6 active torsions:
REMARK  status: ('A' for Active; 'I' for Inactive)
REMARK    1  A    between atoms: C_1  and  C_2
REMARK    2  A    between atoms: C_8  and  C_9
REMARK    3  A    between atoms: C_12  and  C_13
REMARK    4  A    between atoms: C_17  and  N_18
REMARK    5  A    between atoms: C_19  and  C_21
REMARK    6  A    between atoms: N_25  and  C_26
REMARK                            x       y       z     vdW  Elec       q    Type
REMARK                         _______ _______ _______ _____ _____    ______ ____
ROOT
ATOM      1  C   UNL     1       1.185   8.377  20.467  0.00  0.00    +0.000 A 
ATOM      2  C   UNL     1       0.597   8.448  21.730  0.00  0.00    +0.000 A 
ATOM      3  C   UNL     1      -0.151   9.564  22.107  0.00  0.00    +0.000 A 
ATOM      4  C   UNL     1      -0.371  10.634  21.222  0.00  0.00    +0.000 A 
ATOM      5  C   UNL     1       0.222  10.545  19.949  0.00  0.00    +0.000 A 
ATOM      6  C   UNL     1       0.996   9.438  19.577  0.00  0.00    +0.000 A 
ENDROOT
BRANCH   1  14
ATOM      7  C   UNL     1       2.305   2.964  21.515  0.00  0.00    +0.000 C 
ATOM      8  C   UNL     1       2.967   3.739  20.419  0.00  0.00    +0.000 A 
ATOM      9  C   UNL     1       3.922   3.144  19.574  0.00  0.00    +0.000 A 
ATOM     10  C   UNL     1       4.548   3.858  18.546  0.00  0.00    +0.000 A 
ATOM     11  C   UNL     1       4.239   5.200  18.314  0.00  0.00    +0.000 A 
ATOM     12  C   UNL     1       3.290   5.818  19.140  0.00  0.00    +0.000 A 
ATOM     13  N   UNL     1       2.813   7.101  19.110  0.00  0.00    +0.000 NA
ATOM     14  C   UNL     1       1.956   7.191  20.109  0.00  0.00    +0.000 A 
ATOM     15  N   UNL     1       1.849   5.988  20.757  0.00  0.00    +0.000 N 
ATOM     16  C   UNL     1       2.693   5.087  20.158  0.00  0.00    +0.000 A 
ATOM     17  H   UNL     1       1.233   5.792  21.529  0.00  0.00    +0.000 HD
ENDBRANCH   1  14
BRANCH   4  18
ATOM     18  C   UNL     1      -1.200  11.797  21.618  0.00  0.00    +0.000 A 
ATOM     19  C   UNL     1      -0.989  12.468  22.833  0.00  0.00    +0.000 A 
ATOM     20  C   UNL     1      -1.776  13.558  23.201  0.00  0.00    +0.000 A 
ATOM     21  C   UNL     1      -2.795  14.002  22.362  0.00  0.00    +0.000 A 
ATOM     22  C   UNL     1      -3.031  13.374  21.142  0.00  0.00    +0.000 A 
ATOM     23  C   UNL     1      -2.234  12.277  20.785  0.00  0.00    +0.000 A 
BRANCH  22  24
ATOM     24  N   UNL     1      -4.034  13.780  20.233  0.00  0.00    +0.000 N 
ATOM     25  C   UNL     1      -5.331  13.306  20.163  0.00  0.00    +0.000 C 
ATOM     26  O   UNL     1      -5.795  12.439  20.901  0.00  0.00    +0.000 OA
ATOM     27  H   UNL     1      -3.770  14.510  19.585  0.00  0.00    +0.000 HD
BRANCH  25  28
ATOM     28  C   UNL     1      -6.148  13.918  19.136  0.00  0.00    +0.000 A 
ATOM     29  C   UNL     1      -6.936  15.057  19.149  0.00  0.00    +0.000 A 
ATOM     30  N   UNL     1      -7.551  15.263  17.941  0.00  0.00    +0.000 NA
ATOM     31  C   UNL     1      -7.176  14.255  17.191  0.00  0.00    +0.000 A 
ATOM     32  N   UNL     1      -6.340  13.412  17.865  0.00  0.00    +0.000 N 
ATOM     33  C   UNL     1      -5.764  12.207  17.314  0.00  0.00    +0.000 C 
ENDBRANCH  25  28
ENDBRANCH  22  24
ENDBRANCH   4  18
TORSDOF 4
ENDMDL
MODEL 7
REMARK VINA RESULT:      -8.4      3.376     11.320
REMARK  Name = 
REMARK  6 active torsions:
REMARK  status: ('A' for Active; 'I' for Inactive)
REMARK    1  A    between atoms: C_1  and  C_2
REMARK    2  A    between atoms: C_8  and  C_9
REMARK    3  A    between atoms: C_12  and  C_13
REMARK    4  A    between atoms: C_17  and  N_18
REMARK    5  A    between atoms: C_19  and  C_21
REMARK    6  A    between atoms: N_25  and  C_26
REMARK                            x       y       z     vdW  Elec       q    Type
REMARK                         _______ _______ _______ _____ _____    ______ ____
ROOT
ATOM      1  C   UNL     1      -2.152  12.249  21.548  0.00  0.00    +0.000 A 
ATOM      2  C   UNL     1      -2.065  12.216  20.156  0.00  0.00    +0.000 A 
ATOM      3  C   UNL     1      -1.100  11.432  19.520  0.00  0.00    +0.000 A 
ATOM      4  C   UNL     1      -0.212  10.623  20.251  0.00  0.00    +0.000 A 
ATOM      5  C   UNL     1      -0.318  10.662  21.654  0.00  0.00    +0.000 A 
ATOM      6  C   UNL     1      -1.267  11.468  22.296  0.00  0.00    +0.000 A 
ENDROOT
BRANCH   1  14
ATOM      7  C   UNL     1      -7.324  12.531  23.745  0.00  0.00    +0.000 C 
ATOM      8  C   UNL     1      -6.400  13.706  23.676  0.00  0.00    +0.000 A 
ATOM      9  C   UNL     1      -6.780  14.968  24.168  0.00  0.00    +0.000 A 
ATOM     10  C   UNL     1      -5.925  16.074  24.109  0.00  0.00    +0.000 A 
ATOM     11  C   UNL     1      -4.645  15.962  23.560  0.00  0.00    +0.000 A 
ATOM     12  C   UNL     1      -4.239  14.716  23.064  0.00  0.00    +0.000 A 
ATOM     13  N   UNL     1      -3.048  14.351  22.496  0.00  0.00    +0.000 NA
ATOM     14  C   UNL     1      -3.176  13.078  22.175  0.00  0.00    +0.000 A 
ATOM     15  N   UNL     1      -4.408  12.611  22.553  0.00  0.00    +0.000 N 
ATOM     16  C   UNL     1      -5.113  13.639  23.127  0.00  0.00    +0.000 A 
ATOM     17  H   UNL     1      -4.732  11.663  22.451  0.00  0.00    +0.000 HD
ENDBRANCH   1  14
BRANCH   4  18
ATOM     18  C   UNL     1       0.781   9.764  19.565  0.00  0.00    +0.000 A 
ATOM     19  C   UNL     1       1.424  10.182  18.389  0.00  0.00    +0.000 A 
ATOM     20  C   UNL     1       2.354   9.367  17.747  0.00  0.00    +0.000 A 
ATOM     21  C   UNL     1       2.663   8.112  18.266  0.00  0.00    +0.000 A 
ATOM     22  C   UNL     1       2.059   7.663  19.437  0.00  0.00    +0.000 A 
ATOM     23  C   UNL     1       1.123   8.491  20.072  0.00  0.00    +0.000 A 
BRANCH  22  24
ATOM     24  N   UNL     1       2.336   6.410  20.032  0.00  0.00    +0.000 N 
ATOM     25  C   UNL     1       2.120   5.163  19.476  0.00  0.00    +0.000 C 
ATOM     26  O   UNL     1       1.639   4.972  18.361  0.00  0.00    +0.000 OA
ATOM     27  H   UNL     1       2.757   6.443  20.950  0.00  0.00    +0.000 HD
BRANCH  25  28
ATOM     28  C   UNL     1       2.515   4.048  20.312  0.00  0.00    +0.000 A 
ATOM     29  C   UNL     1       1.980   3.550  21.488  0.00  0.00    +0.000 A 
ATOM     30  N   UNL     1       2.687   2.470  21.950  0.00  0.00    +0.000 NA
ATOM     31  C   UNL     1       3.665   2.309  21.092  0.00  0.00    +0.000 A 
ATOM     32  N   UNL     1       3.613   3.239  20.093  0.00  0.00    +0.000 N 
ATOM     33  C   UNL     1       4.555   3.330  19.002  0.00  0.00    +0.000 C 
ENDBRANCH  25  28
ENDBRANCH  22  24
ENDBRANCH   4  18
TORSDOF 4
ENDMDL
MODEL 8
REMARK VINA RESULT:      -8.4      2.867      3.322
REMARK  Name = 
REMARK  6 active torsions:
REMARK  status: ('A' for Active; 'I' for Inactive)
REMARK    1  A    between atoms: C_1  and  C_2
REMARK    2  A    between atoms: C_8  and  C_9
REMARK    3  A    between atoms: C_12  and  C_13
REMARK    4  A    between atoms: C_17  and  N_18
REMARK    5  A    between atoms: C_19  and  C_21
REMARK    6  A    between atoms: N_25  and  C_26
REMARK                            x       y       z     vdW  Elec       q    Type
REMARK                         _______ _______ _______ _____ _____    ______ ____
ROOT
ATOM      1  C   UNL     1       2.210   8.007  18.929  0.00  0.00    +0.000 A 
ATOM      2  C   UNL     1       1.897   7.738  20.263  0.00  0.00    +0.000 A 
ATOM      3  C   UNL     1       1.111   8.622  21.003  0.00  0.00    +0.000 A 
ATOM      4  C   UNL     1       0.576   9.788  20.428  0.00  0.00    +0.000 A 
ATOM      5  C   UNL     1       0.894  10.041  19.080  0.00  0.00    +0.000 A 
ATOM      6  C   UNL     1       1.705   9.170  18.342  0.00  0.00    +0.000 A 
ENDROOT
BRANCH   1  14
ATOM      7  C   UNL     1       3.312   2.618  17.743  0.00  0.00    +0.000 C 
ATOM      8  C   UNL     1       4.065   3.760  17.135  0.00  0.00    +0.000 A 
ATOM      9  C   UNL     1       5.107   3.544  16.214  0.00  0.00    +0.000 A 
ATOM     10  C   UNL     1       5.818   4.604  15.640  0.00  0.00    +0.000 A 
ATOM     11  C   UNL     1       5.511   5.929  15.957  0.00  0.00    +0.000 A 
ATOM     12  C   UNL     1       4.476   6.173  16.869  0.00  0.00    +0.000 A 
ATOM     13  N   UNL     1       3.983   7.365  17.328  0.00  0.00    +0.000 NA
ATOM     14  C   UNL     1       3.032   7.056  18.188  0.00  0.00    +0.000 A 
ATOM     15  N   UNL     1       2.882   5.695  18.266  0.00  0.00    +0.000 N 
ATOM     16  C   UNL     1       3.794   5.102  17.431  0.00  0.00    +0.000 A 
ATOM     17  H   UNL     1       2.197   5.214  18.824  0.00  0.00    +0.000 HD
ENDBRANCH   1  14
BRANCH   4  18
ATOM     18  C   UNL     1      -0.290  10.699  21.211  0.00  0.00    +0.000 A 
ATOM     19  C   UNL     1      -0.748  10.355  22.492  0.00  0.00    +0.000 A 
ATOM     20  C   UNL     1      -1.567  11.215  23.222  0.00  0.00    +0.000 A 
ATOM     21  C   UNL     1      -1.949  12.442  22.685  0.00  0.00    +0.000 A 
ATOM     22  C   UNL     1      -1.508  12.830  21.423  0.00  0.00    +0.000 A 
ATOM     23  C   UNL     1      -0.687  11.954  20.698  0.00  0.00    +0.000 A 
BRANCH  22  24
ATOM     24  N   UNL     1      -1.839  14.066  20.821  0.00  0.00    +0.000 N 
ATOM     25  C   UNL     1      -1.175  15.268  20.976  0.00  0.00    +0.000 C 
ATOM     26  O   UNL     1      -0.182  15.428  21.683  0.00  0.00    +0.000 OA
ATOM     27  H   UNL     1      -2.634  14.051  20.197  0.00  0.00    +0.000 HD
BRANCH  25  28
ATOM     28  C   UNL     1      -1.732  16.372  20.223  0.00  0.00    +0.000 A 
ATOM     29  C   UNL     1      -2.937  17.046  20.339  0.00  0.00    +0.000 A 
ATOM     30  N   UNL     1      -3.059  18.035  19.398  0.00  0.00    +0.000 NA
ATOM     31  C   UNL     1      -1.960  17.966  18.686  0.00  0.00    +0.000 A 
ATOM     32  N   UNL     1      -1.134  16.976  19.134  0.00  0.00    +0.000 N 
ATOM     33  C   UNL     1       0.147  16.645  18.553  0.00  0.00    +0.000 C 
ENDBRANCH  25  28
ENDBRANCH  22  24
ENDBRANCH   4  18
TORSDOF 4
ENDMDL
MODEL 9
REMARK VINA RESULT:      -8.3      4.833      6.955
REMARK  Name = 
REMARK  6 active torsions:
REMARK  status: ('A' for Active; 'I' for Inactive)
REMARK    1  A    between atoms: C_1  and  C_2
REMARK    2  A    between atoms: C_8  and  C_9
REMARK    3  A    between atoms: C_12  and  C_13
REMARK    4  A    between atoms: C_17  and  N_18
REMARK    5  A    between atoms: C_19  and  C_21
REMARK    6  A    between atoms: N_25  and  C_26
REMARK                            x       y       z     vdW  Elec       q    Type
REMARK                         _______ _______ _______ _____ _____    ______ ____
ROOT
ATOM      1  C   UNL     1       1.990   7.647  18.909  0.00  0.00    +0.000 A 
ATOM      2  C   UNL     1       2.195   8.440  17.779  0.00  0.00    +0.000 A 
ATOM      3  C   UNL     1       1.880   9.800  17.796  0.00  0.00    +0.000 A 
ATOM      4  C   UNL     1       1.385  10.426  18.953  0.00  0.00    +0.000 A 
ATOM      5  C   UNL     1       1.190   9.615  20.086  0.00  0.00    +0.000 A 
ATOM      6  C   UNL     1       1.480   8.244  20.065  0.00  0.00    +0.000 A 
ENDROOT
BRANCH   1  14
ATOM      7  C   UNL     1       1.858   2.640  21.472  0.00  0.00    +0.000 C 
ATOM      8  C   UNL     1       2.455   2.849  20.115  0.00  0.00    +0.000 A 
ATOM      9  C   UNL     1       3.025   1.785  19.393  0.00  0.00    +0.000 A 
ATOM     10  C   UNL     1       3.587   1.968  18.125  0.00  0.00    +0.000 A 
ATOM     11  C   UNL     1       3.596   3.227  17.519  0.00  0.00    +0.000 A 
ATOM     12  C   UNL     1       3.033   4.305  18.216  0.00  0.00    +0.000 A 
ATOM     13  N   UNL     1       2.911   5.616  17.840  0.00  0.00    +0.000 NA
ATOM     14  C   UNL     1       2.335   6.231  18.854  0.00  0.00    +0.000 A 
ATOM     15  N   UNL     1       2.056   5.339  19.857  0.00  0.00    +0.000 N 
ATOM     16  C   UNL     1       2.492   4.095  19.477  0.00  0.00    +0.000 A 
ATOM     17  H   UNL     1       1.585   5.557  20.720  0.00  0.00    +0.000 HD
ENDBRANCH   1  14
BRANCH   4  18
ATOM     18  C   UNL     1       1.091  11.878  18.971  0.00  0.00    +0.000 A 
ATOM     19  C   UNL     1      -0.226  12.360  19.012  0.00  0.00    +0.000 A 
ATOM     20  C   UNL     1      -0.495  13.727  19.023  0.00  0.00    +0.000 A 
ATOM     21  C   UNL     1       0.550  14.647  18.993  0.00  0.00    +0.000 A 
ATOM     22  C   UNL     1       1.873  14.213  18.965  0.00  0.00    +0.000 A 
ATOM     23  C   UNL     1       2.129  12.835  18.951  0.00  0.00    +0.000 A 
BRANCH  22  24
ATOM     24  N   UNL     1       2.984  15.087  18.952  0.00  0.00    +0.000 N 
ATOM     25  C   UNL     1       3.999  15.154  19.888  0.00  0.00    +0.000 C 
ATOM     26  O   UNL     1       4.067  14.445  20.890  0.00  0.00    +0.000 OA
ATOM     27  H   UNL     1       3.045  15.709  18.156  0.00  0.00    +0.000 HD
BRANCH  25  28
ATOM     28  C   UNL     1       5.022  16.140  19.609  0.00  0.00    +0.000 A 
ATOM     29  C   UNL     1       5.185  17.441  20.053  0.00  0.00    +0.000 A 
ATOM     30  N   UNL     1       6.307  18.023  19.520  0.00  0.00    +0.000 NA
ATOM     31  C   UNL     1       6.823  17.109  18.733  0.00  0.00    +0.000 A 
ATOM     32  N   UNL     1       6.083  15.963  18.742  0.00  0.00    +0.000 N 
ATOM     33  C   UNL     1       6.387  14.779  17.973  0.00  0.00    +0.000 C 
ENDBRANCH  25  28
ENDBRANCH  22  24
ENDBRANCH   4  18
TORSDOF 4
ENDMDL
