MODEL 1
REMARK VINA RESULT:      -7.9      0.000      0.000
REMARK  Name = 
REMARK  13 active torsions:
REMARK  status: ('A' for Active; 'I' for Inactive)
REMARK    1  A    between atoms: C_1  and  C_2
REMARK    2  A    between atoms: C_8  and  N_9
REMARK    3  A    between atoms: N_12  and  C_13
REMARK    4  A    between atoms: C_13  and  C_14
REMARK    5  A    between atoms: C_14  and  C_15
REMARK    6  A    between atoms: C_15  and  N_16
REMARK    7  A    between atoms: C_17  and  C_19
REMARK    8  A    between atoms: C_21  and  C_22
REMARK    9  A    between atoms: N_23  and  C_24
REMARK   10  A    between atoms: C_24  and  C_25
REMARK   11  A    between atoms: C_25  and  C_26
REMARK   12  A    between atoms: C_25  and  C_27
REMARK   13  A    between atoms: C_28  and  C_29
REMARK                            x       y       z     vdW  Elec       q    Type
REMARK                         _______ _______ _______ _____ _____    ______ ____
ROOT
ATOM      1  C   UNL     1       7.622   8.435  17.644  0.00  0.00    +0.000 C 
ENDROOT
BRANCH   1   2
ATOM      2  C   UNL     1       7.691   6.902  17.620  0.00  0.00    +0.000 C 
BRANCH   2   6
ATOM      3  N   UNL     1       4.313   5.464  18.101  0.00  0.00    +0.000 N 
ATOM      4  C   UNL     1       5.548   4.689  18.290  0.00  0.00    +0.000 C 
ATOM      5  C   UNL     1       6.433   4.863  17.036  0.00  0.00    +0.000 C 
ATOM      6  N   UNL     1       6.761   6.266  16.678  0.00  0.00    +0.000 NA
ATOM      7  C   UNL     1       5.481   7.022  16.595  0.00  0.00    +0.000 C 
ATOM      8  C   UNL     1       4.568   6.892  17.845  0.00  0.00    +0.000 C 
BRANCH   3  16
ATOM      9  C   UNL     1       2.867   3.165  17.062  0.00  0.00    +0.000 C 
ATOM     10  C   UNL     1       2.432   3.907  18.303  0.00  0.00    +0.000 A 
ATOM     11  C   UNL     1       1.336   3.445  19.065  0.00  0.00    +0.000 A 
ATOM     12 CL   UNL     1       0.402   2.058  18.612  0.00  0.00    +0.000 Cl
ATOM     13  C   UNL     1       0.966   4.075  20.256  0.00  0.00    +0.000 A 
ATOM     14  C   UNL     1       1.655   5.196  20.690  0.00  0.00    +0.000 A 
ATOM     15  C   UNL     1       2.725   5.683  19.939  0.00  0.00    +0.000 A 
ATOM     16  C   UNL     1       3.150   5.053  18.748  0.00  0.00    +0.000 A 
ENDBRANCH   3  16
ENDBRANCH   2   6
ENDBRANCH   1   2
BRANCH   1  17
ATOM     17  C   UNL     1       8.713   9.067  18.503  0.00  0.00    +0.000 C 
BRANCH  17  18
ATOM     18  N   UNL     1       8.778  10.497  18.277  0.00  0.00    +0.000 N 
ATOM     19  C   UNL     1       9.466  11.359  19.103  0.00  0.00    +0.000 C 
ATOM     20  O   UNL     1      10.101  10.992  20.088  0.00  0.00    +0.000 OA
ATOM     21  H   UNL     1       8.260  10.931  17.527  0.00  0.00    +0.000 HD
BRANCH  19  22
ATOM     22  C   UNL     1       9.378  12.761  18.674  0.00  0.00    +0.000 A 
ATOM     23  N   UNL     1       8.180  13.450  18.571  0.00  0.00    +0.000 NA
ATOM     24  C   UNL     1       8.489  14.658  18.145  0.00  0.00    +0.000 A 
ATOM     25  C   UNL     1       7.508  15.751  17.908  0.00  0.00    +0.000 C 
ATOM     26  N   UNL     1       9.851  14.777  17.933  0.00  0.00    +0.000 N 
ATOM     27  C   UNL     1      10.432  13.578  18.299  0.00  0.00    +0.000 A 
ATOM     28  C   UNL     1      11.881  13.253  18.275  0.00  0.00    +0.000 C 
BRANCH  26  29
ATOM     29  C   UNL     1      10.511  15.928  17.319  0.00  0.00    +0.000 C 
BRANCH  29  30
ATOM     30  C   UNL     1      11.333  16.795  18.290  0.00  0.00    +0.000 C 
ATOM     31  C   UNL     1      12.317  17.715  17.567  0.00  0.00    +0.000 C 
ATOM     32  C   UNL     1      10.407  17.645  19.168  0.00  0.00    +0.000 C 
ENDBRANCH  29  30
ENDBRANCH  26  29
ENDBRANCH  19  22
ENDBRANCH  17  18
ENDBRANCH   1  17
TORSDOF 8
ENDMDL
MODEL 2
REMARK VINA RESULT:      -7.7      4.050     11.801
REMARK  Name = 
REMARK  13 active torsions:
REMARK  status: ('A' for Active; 'I' for Inactive)
REMARK    1  A    between atoms: C_1  and  C_2
REMARK    2  A    between atoms: C_8  and  N_9
REMARK    3  A    between atoms: N_12  and  C_13
REMARK    4  A    between atoms: C_13  and  C_14
REMARK    5  A    between atoms: C_14  and  C_15
REMARK    6  A    between atoms: C_15  and  N_16
REMARK    7  A    between atoms: C_17  and  C_19
REMARK    8  A    between atoms: C_21  and  C_22
REMARK    9  A    between atoms: N_23  and  C_24
REMARK   10  A    between atoms: C_24  and  C_25
REMARK   11  A    between atoms: C_25  and  C_26
REMARK   12  A    between atoms: C_25  and  C_27
REMARK   13  A    between atoms: C_28  and  C_29
REMARK                            x       y       z     vdW  Elec       q    Type
REMARK                         _______ _______ _______ _____ _____    ______ ____
ROOT
ATOM      1  C   UNL     1       8.487   8.383  18.568  0.00  0.00    +0.000 C 
ENDROOT
BRANCH   1   2
ATOM      2  C   UNL     1       8.575   9.915  18.546  0.00  0.00    +0.000 C 
BRANCH   2   6
ATOM      3  N   UNL     1       9.804  13.395  18.840  0.00  0.00    +0.000 N 
ATOM      4  C   UNL     1       9.847  12.633  17.582  0.00  0.00    +0.000 C 
ATOM      5  C   UNL     1      10.517  11.270  17.858  0.00  0.00    +0.000 C 
ATOM      6  N   UNL     1       9.887  10.455  18.926  0.00  0.00    +0.000 NA
ATOM      7  C   UNL     1       9.783  11.308  20.143  0.00  0.00    +0.000 C 
ATOM      8  C   UNL     1       9.096  12.682  19.916  0.00  0.00    +0.000 C 
BRANCH   3  16
ATOM      9  C   UNL     1      12.192  14.829  19.676  0.00  0.00    +0.000 C 
ATOM     10  C   UNL     1      10.965  15.532  19.145  0.00  0.00    +0.000 A 
ATOM     11  C   UNL     1      10.969  16.931  18.952  0.00  0.00    +0.000 A 
ATOM     12 CL   UNL     1      12.332  17.924  19.350  0.00  0.00    +0.000 Cl
ATOM     13  C   UNL     1       9.871  17.587  18.393  0.00  0.00    +0.000 A 
ATOM     14  C   UNL     1       8.735  16.870  18.051  0.00  0.00    +0.000 A 
ATOM     15  C   UNL     1       8.701  15.491  18.257  0.00  0.00    +0.000 A 
ATOM     16  C   UNL     1       9.805  14.787  18.788  0.00  0.00    +0.000 A 
ENDBRANCH   3  16
ENDBRANCH   2   6
ENDBRANCH   1   2
BRANCH   1  17
ATOM     17  C   UNL     1       7.667   7.817  17.414  0.00  0.00    +0.000 C 
BRANCH  17  18
ATOM     18  N   UNL     1       6.717   6.834  17.894  0.00  0.00    +0.000 N 
ATOM     19  C   UNL     1       5.726   6.296  17.102  0.00  0.00    +0.000 C 
ATOM     20  O   UNL     1       5.573   6.582  15.918  0.00  0.00    +0.000 OA
ATOM     21  H   UNL     1       6.706   6.548  18.862  0.00  0.00    +0.000 HD
BRANCH  19  22
ATOM     22  C   UNL     1       4.881   5.328  17.815  0.00  0.00    +0.000 A 
ATOM     23  N   UNL     1       5.370   4.152  18.363  0.00  0.00    +0.000 NA
ATOM     24  C   UNL     1       4.333   3.540  18.898  0.00  0.00    +0.000 A 
ATOM     25  C   UNL     1       4.395   2.240  19.618  0.00  0.00    +0.000 C 
ATOM     26  N   UNL     1       3.170   4.259  18.691  0.00  0.00    +0.000 N 
ATOM     27  C   UNL     1       3.516   5.420  18.027  0.00  0.00    +0.000 A 
ATOM     28  C   UNL     1       2.598   6.517  17.625  0.00  0.00    +0.000 C 
BRANCH  26  29
ATOM     29  C   UNL     1       1.823   3.796  19.018  0.00  0.00    +0.000 C 
BRANCH  29  30
ATOM     30  C   UNL     1       1.335   4.170  20.429  0.00  0.00    +0.000 C 
ATOM     31  C   UNL     1       1.526   3.036  21.437  0.00  0.00    +0.000 C 
ATOM     32  C   UNL     1       2.066   5.418  20.938  0.00  0.00    +0.000 C 
ENDBRANCH  29  30
ENDBRANCH  26  29
ENDBRANCH  19  22
ENDBRANCH  17  18
ENDBRANCH   1  17
TORSDOF 8
ENDMDL
MODEL 3
REMARK VINA RESULT:      -7.4      5.971     10.943
REMARK  Name = 
REMARK  13 active torsions:
REMARK  status: ('A' for Active; 'I' for Inactive)
REMARK    1  A    between atoms: C_1  and  C_2
REMARK    2  A    between atoms: C_8  and  N_9
REMARK    3  A    between atoms: N_12  and  C_13
REMARK    4  A    between atoms: C_13  and  C_14
REMARK    5  A    between atoms: C_14  and  C_15
REMARK    6  A    between atoms: C_15  and  N_16
REMARK    7  A    between atoms: C_17  and  C_19
REMARK    8  A    between atoms: C_21  and  C_22
REMARK    9  A    between atoms: N_23  and  C_24
REMARK   10  A    between atoms: C_24  and  C_25
REMARK   11  A    between atoms: C_25  and  C_26
REMARK   12  A    between atoms: C_25  and  C_27
REMARK   13  A    between atoms: C_28  and  C_29
REMARK                            x       y       z     vdW  Elec       q    Type
REMARK                         _______ _______ _______ _____ _____    ______ ____
ROOT
ATOM      1  C   UNL     1       0.742   8.849  20.400  0.00  0.00    +0.000 C 
ENDROOT
BRANCH   1   2
ATOM      2  C   UNL     1       0.988  10.197  21.090  0.00  0.00    +0.000 C 
BRANCH   2   6
ATOM      3  N   UNL     1       1.196  13.454  19.341  0.00  0.00    +0.000 N 
ATOM      4  C   UNL     1       1.463  13.298  20.779  0.00  0.00    +0.000 C 
ATOM      5  C   UNL     1       0.281  12.537  21.417  0.00  0.00    +0.000 C 
ATOM      6  N   UNL     1      -0.030  11.219  20.811  0.00  0.00    +0.000 NA
ATOM      7  C   UNL     1      -0.195  11.424  19.345  0.00  0.00    +0.000 C 
ATOM      8  C   UNL     1       0.982  12.168  18.656  0.00  0.00    +0.000 C 
BRANCH   3  16
ATOM      9  C   UNL     1      -0.269  15.966  19.278  0.00  0.00    +0.000 C 
ATOM     10  C   UNL     1       1.091  15.801  18.642  0.00  0.00    +0.000 A 
ATOM     11  C   UNL     1       1.747  16.907  18.059  0.00  0.00    +0.000 A 
ATOM     12 CL   UNL     1       1.034  18.485  17.988  0.00  0.00    +0.000 Cl
ATOM     13  C   UNL     1       3.035  16.789  17.533  0.00  0.00    +0.000 A 
ATOM     14  C   UNL     1       3.678  15.562  17.543  0.00  0.00    +0.000 A 
ATOM     15  C   UNL     1       3.038  14.451  18.091  0.00  0.00    +0.000 A 
ATOM     16  C   UNL     1       1.749  14.538  18.663  0.00  0.00    +0.000 A 
ENDBRANCH   3  16
ENDBRANCH   2   6
ENDBRANCH   1   2
BRANCH   1  17
ATOM     17  C   UNL     1       1.372   7.675  21.144  0.00  0.00    +0.000 C 
BRANCH  17  18
ATOM     18  N   UNL     1       2.367   7.021  20.319  0.00  0.00    +0.000 N 
ATOM     19  C   UNL     1       2.611   5.666  20.367  0.00  0.00    +0.000 C 
ATOM     20  O   UNL     1       1.995   4.891  21.094  0.00  0.00    +0.000 OA
ATOM     21  H   UNL     1       2.974   7.553  19.712  0.00  0.00    +0.000 HD
BRANCH  19  22
ATOM     22  C   UNL     1       3.672   5.239  19.445  0.00  0.00    +0.000 A 
ATOM     23  N   UNL     1       5.021   5.444  19.691  0.00  0.00    +0.000 NA
ATOM     24  C   UNL     1       5.661   4.952  18.650  0.00  0.00    +0.000 A 
ATOM     25  C   UNL     1       7.140   4.939  18.493  0.00  0.00    +0.000 C 
ATOM     26  N   UNL     1       4.775   4.458  17.709  0.00  0.00    +0.000 N 
ATOM     27  C   UNL     1       3.501   4.609  18.223  0.00  0.00    +0.000 A 
ATOM     28  C   UNL     1       2.231   4.187  17.579  0.00  0.00    +0.000 C 
BRANCH  26  29
ATOM     29  C   UNL     1       5.139   3.983  16.376  0.00  0.00    +0.000 C 
BRANCH  29  30
ATOM     30  C   UNL     1       5.928   4.993  15.523  0.00  0.00    +0.000 C 
ATOM     31  C   UNL     1       6.294   4.440  14.145  0.00  0.00    +0.000 C 
ATOM     32  C   UNL     1       5.127   6.289  15.345  0.00  0.00    +0.000 C 
ENDBRANCH  29  30
ENDBRANCH  26  29
ENDBRANCH  19  22
ENDBRANCH  17  18
ENDBRANCH   1  17
TORSDOF 8
ENDMDL
MODEL 4
REMARK VINA RESULT:      -7.1      3.787     11.830
REMARK  Name = 
REMARK  13 active torsions:
REMARK  status: ('A' for Active; 'I' for Inactive)
REMARK    1  A    between atoms: C_1  and  C_2
REMARK    2  A    between atoms: C_8  and  N_9
REMARK    3  A    between atoms: N_12  and  C_13
REMARK    4  A    between atoms: C_13  and  C_14
REMARK    5  A    between atoms: C_14  and  C_15
REMARK    6  A    between atoms: C_15  and  N_16
REMARK    7  A    between atoms: C_17  and  C_19
REMARK    8  A    between atoms: C_21  and  C_22
REMARK    9  A    between atoms: N_23  and  C_24
REMARK   10  A    between atoms: C_24  and  C_25
REMARK   11  A    between atoms: C_25  and  C_26
REMARK   12  A    between atoms: C_25  and  C_27
REMARK   13  A    between atoms: C_28  and  C_29
REMARK                            x       y       z     vdW  Elec       q    Type
REMARK                         _______ _______ _______ _____ _____    ______ ____
ROOT
ATOM      1  C   UNL     1       8.644   8.824  18.531  0.00  0.00    +0.000 C 
ENDROOT
BRANCH   1   2
ATOM      2  C   UNL     1       8.996  10.317  18.474  0.00  0.00    +0.000 C 
BRANCH   2   6
ATOM      3  N   UNL     1      10.592  13.593  19.128  0.00  0.00    +0.000 N 
ATOM      4  C   UNL     1      10.793  12.838  17.882  0.00  0.00    +0.000 C 
ATOM      5  C   UNL     1      11.202  11.394  18.244  0.00  0.00    +0.000 C 
ATOM      6  N   UNL     1      10.261  10.669  19.133  0.00  0.00    +0.000 NA
ATOM      7  C   UNL     1      10.022  11.523  20.330  0.00  0.00    +0.000 C 
ATOM      8  C   UNL     1       9.587  12.980  20.012  0.00  0.00    +0.000 C 
BRANCH   3  16
ATOM      9  C   UNL     1       8.547  15.299  17.961  0.00  0.00    +0.000 C 
ATOM     10  C   UNL     1       9.798  15.851  18.602  0.00  0.00    +0.000 A 
ATOM     11  C   UNL     1       9.977  17.246  18.737  0.00  0.00    +0.000 A 
ATOM     12 CL   UNL     1       8.827  18.397  18.143  0.00  0.00    +0.000 Cl
ATOM     13  C   UNL     1      11.091  17.771  19.395  0.00  0.00    +0.000 A 
ATOM     14  C   UNL     1      12.065  16.922  19.896  0.00  0.00    +0.000 A 
ATOM     15  C   UNL     1      11.920  15.543  19.751  0.00  0.00    +0.000 A 
ATOM     16  C   UNL     1      10.790  14.972  19.123  0.00  0.00    +0.000 A 
ENDBRANCH   3  16
ENDBRANCH   2   6
ENDBRANCH   1   2
BRANCH   1  17
ATOM     17  C   UNL     1       7.646   8.407  17.455  0.00  0.00    +0.000 C 
BRANCH  17  18
ATOM     18  N   UNL     1       6.693   7.452  17.984  0.00  0.00    +0.000 N 
ATOM     19  C   UNL     1       6.684   6.121  17.626  0.00  0.00    +0.000 C 
ATOM     20  O   UNL     1       7.493   5.623  16.847  0.00  0.00    +0.000 OA
ATOM     21  H   UNL     1       5.947   7.744  18.597  0.00  0.00    +0.000 HD
BRANCH  19  22
ATOM     22  C   UNL     1       5.619   5.355  18.286  0.00  0.00    +0.000 A 
ATOM     23  N   UNL     1       5.833   4.131  18.900  0.00  0.00    +0.000 NA
ATOM     24  C   UNL     1       4.660   3.742  19.358  0.00  0.00    +0.000 A 
ATOM     25  C   UNL     1       4.419   2.482  20.110  0.00  0.00    +0.000 C 
ATOM     26  N   UNL     1       3.673   4.656  19.037  0.00  0.00    +0.000 N 
ATOM     27  C   UNL     1       4.283   5.707  18.379  0.00  0.00    +0.000 A 
ATOM     28  C   UNL     1       3.622   6.939  17.875  0.00  0.00    +0.000 C 
BRANCH  26  29
ATOM     29  C   UNL     1       2.242   4.464  19.258  0.00  0.00    +0.000 C 
BRANCH  29  30
ATOM     30  C   UNL     1       1.518   3.673  18.154  0.00  0.00    +0.000 C 
ATOM     31  C   UNL     1       2.448   3.278  17.006  0.00  0.00    +0.000 C 
ATOM     32  C   UNL     1       0.872   2.408  18.732  0.00  0.00    +0.000 C 
ENDBRANCH  29  30
ENDBRANCH  26  29
ENDBRANCH  19  22
ENDBRANCH  17  18
ENDBRANCH   1  17
TORSDOF 8
ENDMDL
MODEL 5
REMARK VINA RESULT:      -7.1      1.610      2.202
REMARK  Name = 
REMARK  13 active torsions:
REMARK  status: ('A' for Active; 'I' for Inactive)
REMARK    1  A    between atoms: C_1  and  C_2
REMARK    2  A    between atoms: C_8  and  N_9
REMARK    3  A    between atoms: N_12  and  C_13
REMARK    4  A    between atoms: C_13  and  C_14
REMARK    5  A    between atoms: C_14  and  C_15
REMARK    6  A    between atoms: C_15  and  N_16
REMARK    7  A    between atoms: C_17  and  C_19
REMARK    8  A    between atoms: C_21  and  C_22
REMARK    9  A    between atoms: N_23  and  C_24
REMARK   10  A    between atoms: C_24  and  C_25
REMARK   11  A    between atoms: C_25  and  C_26
REMARK   12  A    between atoms: C_25  and  C_27
REMARK   13  A    between atoms: C_28  and  C_29
REMARK                            x       y       z     vdW  Elec       q    Type
REMARK                         _______ _______ _______ _____ _____    ______ ____
ROOT
ATOM      1  C   UNL     1       7.556   8.497  17.784  0.00  0.00    +0.000 C 
ENDROOT
BRANCH   1   2
ATOM      2  C   UNL     1       7.828   7.019  18.097  0.00  0.00    +0.000 C 
BRANCH   2   6
ATOM      3  N   UNL     1       4.522   5.381  18.406  0.00  0.00    +0.000 N 
ATOM      4  C   UNL     1       5.753   4.817  18.980  0.00  0.00    +0.000 C 
ATOM      5  C   UNL     1       6.833   4.774  17.878  0.00  0.00    +0.000 C 
ATOM      6  N   UNL     1       7.126   6.072  17.222  0.00  0.00    +0.000 NA
ATOM      7  C   UNL     1       5.833   6.640  16.747  0.00  0.00    +0.000 C 
ATOM      8  C   UNL     1       4.723   6.721  17.830  0.00  0.00    +0.000 C 
BRANCH   3  16
ATOM      9  C   UNL     1       3.130   3.077  17.306  0.00  0.00    +0.000 C 
ATOM     10  C   UNL     1       2.594   3.870  18.474  0.00  0.00    +0.000 A 
ATOM     11  C   UNL     1       1.419   3.457  19.140  0.00  0.00    +0.000 A 
ATOM     12 CL   UNL     1       0.500   2.075  18.644  0.00  0.00    +0.000 Cl
ATOM     13  C   UNL     1       0.950   4.136  20.268  0.00  0.00    +0.000 A 
ATOM     14  C   UNL     1       1.619   5.257  20.730  0.00  0.00    +0.000 A 
ATOM     15  C   UNL     1       2.768   5.696  20.072  0.00  0.00    +0.000 A 
ATOM     16  C   UNL     1       3.292   5.017  18.950  0.00  0.00    +0.000 A 
ENDBRANCH   3  16
ENDBRANCH   2   6
ENDBRANCH   1   2
BRANCH   1  17
ATOM     17  C   UNL     1       8.820   9.352  17.803  0.00  0.00    +0.000 C 
BRANCH  17  18
ATOM     18  N   UNL     1       8.644  10.506  18.661  0.00  0.00    +0.000 N 
ATOM     19  C   UNL     1       9.562  11.530  18.741  0.00  0.00    +0.000 C 
ATOM     20  O   UNL     1      10.596  11.568  18.080  0.00  0.00    +0.000 OA
ATOM     21  H   UNL     1       7.858  10.574  19.290  0.00  0.00    +0.000 HD
BRANCH  19  22
ATOM     22  C   UNL     1       9.168  12.584  19.686  0.00  0.00    +0.000 A 
ATOM     23  N   UNL     1       9.379  12.497  21.053  0.00  0.00    +0.000 NA
ATOM     24  C   UNL     1       8.885  13.603  21.571  0.00  0.00    +0.000 A 
ATOM     25  C   UNL     1       8.910  13.947  23.017  0.00  0.00    +0.000 C 
ATOM     26  N   UNL     1       8.325  14.403  20.591  0.00  0.00    +0.000 N 
ATOM     27  C   UNL     1       8.530  13.774  19.378  0.00  0.00    +0.000 A 
ATOM     28  C   UNL     1       8.130  14.280  18.040  0.00  0.00    +0.000 C 
BRANCH  26  29
ATOM     29  C   UNL     1       7.559  15.623  20.836  0.00  0.00    +0.000 C 
BRANCH  29  30
ATOM     30  C   UNL     1       8.354  16.930  20.669  0.00  0.00    +0.000 C 
ATOM     31  C   UNL     1       9.866  16.703  20.663  0.00  0.00    +0.000 C 
ATOM     32  C   UNL     1       7.952  17.644  19.372  0.00  0.00    +0.000 C 
ENDBRANCH  29  30
ENDBRANCH  26  29
ENDBRANCH  19  22
ENDBRANCH  17  18
ENDBRANCH   1  17
TORSDOF 8
ENDMDL
MODEL 6
REMARK VINA RESULT:      -7.1      6.978     10.100
REMARK  Name = 
REMARK  13 active torsions:
REMARK  status: ('A' for Active; 'I' for Inactive)
REMARK    1  A    between atoms: C_1  and  C_2
REMARK    2  A    between atoms: C_8  and  N_9
REMARK    3  A    between atoms: N_12  and  C_13
REMARK    4  A    between atoms: C_13  and  C_14
REMARK    5  A    between atoms: C_14  and  C_15
REMARK    6  A    between atoms: C_15  and  N_16
REMARK    7  A    between atoms: C_17  and  C_19
REMARK    8  A    between atoms: C_21  and  C_22
REMARK    9  A    between atoms: N_23  and  C_24
REMARK   10  A    between atoms: C_24  and  C_25
REMARK   11  A    between atoms: C_25  and  C_26
REMARK   12  A    between atoms: C_25  and  C_27
REMARK   13  A    between atoms: C_28  and  C_29
REMARK                            x       y       z     vdW  Elec       q    Type
REMARK                         _______ _______ _______ _____ _____    ______ ____
ROOT
ATOM      1  C   UNL     1       1.756   8.655  21.504  0.00  0.00    +0.000 C 
ENDROOT
BRANCH   1   2
ATOM      2  C   UNL     1       1.768   9.804  20.487  0.00  0.00    +0.000 C 
BRANCH   2   6
ATOM      3  N   UNL     1      -1.351  10.824  18.774  0.00  0.00    +0.000 N 
ATOM      4  C   UNL     1      -0.025  11.333  18.393  0.00  0.00    +0.000 C 
ATOM      5  C   UNL     1       0.681  11.858  19.662  0.00  0.00    +0.000 C 
ATOM      6  N   UNL     1       0.809  10.879  20.770  0.00  0.00    +0.000 NA
ATOM      7  C   UNL     1      -0.547  10.328  21.046  0.00  0.00    +0.000 C 
ATOM      8  C   UNL     1      -1.286   9.770  19.799  0.00  0.00    +0.000 C 
BRANCH   3  16
ATOM      9  C   UNL     1      -3.802  12.262  19.392  0.00  0.00    +0.000 C 
ATOM     10  C   UNL     1      -3.579  11.566  18.070  0.00  0.00    +0.000 A 
ATOM     11  C   UNL     1      -4.537  11.666  17.038  0.00  0.00    +0.000 A 
ATOM     12 CL   UNL     1      -6.026  12.531  17.227  0.00  0.00    +0.000 Cl
ATOM     13  C   UNL     1      -4.313  11.091  15.785  0.00  0.00    +0.000 A 
ATOM     14  C   UNL     1      -3.151  10.376  15.548  0.00  0.00    +0.000 A 
ATOM     15  C   UNL     1      -2.202  10.243  16.562  0.00  0.00    +0.000 A 
ATOM     16  C   UNL     1      -2.377  10.839  17.831  0.00  0.00    +0.000 A 
ENDBRANCH   3  16
ENDBRANCH   2   6
ENDBRANCH   1   2
BRANCH   1  17
ATOM     17  C   UNL     1       1.294   7.331  20.903  0.00  0.00    +0.000 C 
BRANCH  17  18
ATOM     18  N   UNL     1       2.349   6.733  20.110  0.00  0.00    +0.000 N 
ATOM     19  C   UNL     1       2.795   5.444  20.301  0.00  0.00    +0.000 C 
ATOM     20  O   UNL     1       2.326   4.681  21.141  0.00  0.00    +0.000 OA
ATOM     21  H   UNL     1       2.849   7.270  19.417  0.00  0.00    +0.000 HD
BRANCH  19  22
ATOM     22  C   UNL     1       3.878   5.067  19.382  0.00  0.00    +0.000 A 
ATOM     23  N   UNL     1       5.207   5.399  19.597  0.00  0.00    +0.000 NA
ATOM     24  C   UNL     1       5.875   4.916  18.570  0.00  0.00    +0.000 A 
ATOM     25  C   UNL     1       7.347   5.022  18.390  0.00  0.00    +0.000 C 
ATOM     26  N   UNL     1       5.023   4.305  17.666  0.00  0.00    +0.000 N 
ATOM     27  C   UNL     1       3.748   4.369  18.193  0.00  0.00    +0.000 A 
ATOM     28  C   UNL     1       2.511   3.810  17.589  0.00  0.00    +0.000 C 
BRANCH  26  29
ATOM     29  C   UNL     1       5.412   3.801  16.350  0.00  0.00    +0.000 C 
BRANCH  29  30
ATOM     30  C   UNL     1       5.496   4.872  15.248  0.00  0.00    +0.000 C 
ATOM     31  C   UNL     1       5.136   6.269  15.755  0.00  0.00    +0.000 C 
ATOM     32  C   UNL     1       6.903   4.909  14.640  0.00  0.00    +0.000 C 
ENDBRANCH  29  30
ENDBRANCH  26  29
ENDBRANCH  19  22
ENDBRANCH  17  18
ENDBRANCH   1  17
TORSDOF 8
ENDMDL
MODEL 7
REMARK VINA RESULT:      -7.1      7.490     11.645
REMARK  Name = 
REMARK  13 active torsions:
REMARK  status: ('A' for Active; 'I' for Inactive)
REMARK    1  A    between atoms: C_1  and  C_2
REMARK    2  A    between atoms: C_8  and  N_9
REMARK    3  A    between atoms: N_12  and  C_13
REMARK    4  A    between atoms: C_13  and  C_14
REMARK    5  A    between atoms: C_14  and  C_15
REMARK    6  A    between atoms: C_15  and  N_16
REMARK    7  A    between atoms: C_17  and  C_19
REMARK    8  A    between atoms: C_21  and  C_22
REMARK    9  A    between atoms: N_23  and  C_24
REMARK   10  A    between atoms: C_24  and  C_25
REMARK   11  A    between atoms: C_25  and  C_26
REMARK   12  A    between atoms: C_25  and  C_27
REMARK   13  A    between atoms: C_28  and  C_29
REMARK                            x       y       z     vdW  Elec       q    Type
REMARK                         _______ _______ _______ _____ _____    ______ ____
ROOT
ATOM      1  C   UNL     1       0.303   9.678  17.888  0.00  0.00    +0.000 C 
ENDROOT
BRANCH   1   2
ATOM      2  C   UNL     1      -0.433  10.292  19.087  0.00  0.00    +0.000 C 
BRANCH   2   6
ATOM      3  N   UNL     1      -1.387  12.507  21.896  0.00  0.00    +0.000 N 
ATOM      4  C   UNL     1      -2.025  12.571  20.572  0.00  0.00    +0.000 C 
ATOM      5  C   UNL     1      -0.918  12.674  19.500  0.00  0.00    +0.000 C 
ATOM      6  N   UNL     1       0.095  11.590  19.525  0.00  0.00    +0.000 NA
ATOM      7  C   UNL     1       0.635  11.509  20.911  0.00  0.00    +0.000 C 
ATOM      8  C   UNL     1      -0.444  11.383  22.021  0.00  0.00    +0.000 C 
BRANCH   3  16
ATOM      9  C   UNL     1      -0.591  15.042  23.076  0.00  0.00    +0.000 C 
ATOM     10  C   UNL     1      -1.759  14.236  23.592  0.00  0.00    +0.000 A 
ATOM     11  C   UNL     1      -2.573  14.740  24.630  0.00  0.00    +0.000 A 
ATOM     12 CL   UNL     1      -2.266  16.260  25.404  0.00  0.00    +0.000 Cl
ATOM     13  C   UNL     1      -3.701  14.043  25.068  0.00  0.00    +0.000 A 
ATOM     14  C   UNL     1      -4.018  12.815  24.509  0.00  0.00    +0.000 A 
ATOM     15  C   UNL     1      -3.213  12.288  23.500  0.00  0.00    +0.000 A 
ATOM     16  C   UNL     1      -2.084  12.979  23.006  0.00  0.00    +0.000 A 
ENDBRANCH   3  16
ENDBRANCH   2   6
ENDBRANCH   1   2
BRANCH   1  17
ATOM     17  C   UNL     1       1.781   9.422  18.163  0.00  0.00    +0.000 C 
BRANCH  17  18
ATOM     18  N   UNL     1       2.000   8.039  18.536  0.00  0.00    +0.000 N 
ATOM     19  C   UNL     1       2.014   7.606  19.844  0.00  0.00    +0.000 C 
ATOM     20  O   UNL     1       1.821   8.345  20.806  0.00  0.00    +0.000 OA
ATOM     21  H   UNL     1       2.218   7.339  17.842  0.00  0.00    +0.000 HD
BRANCH  19  22
ATOM     22  C   UNL     1       2.265   6.163  19.970  0.00  0.00    +0.000 A 
ATOM     23  N   UNL     1       1.522   5.332  20.795  0.00  0.00    +0.000 NA
ATOM     24  C   UNL     1       2.041   4.129  20.662  0.00  0.00    +0.000 A 
ATOM     25  C   UNL     1       1.543   2.910  21.355  0.00  0.00    +0.000 C 
ATOM     26  N   UNL     1       3.124   4.146  19.801  0.00  0.00    +0.000 N 
ATOM     27  C   UNL     1       3.254   5.437  19.329  0.00  0.00    +0.000 A 
ATOM     28  C   UNL     1       4.260   5.924  18.349  0.00  0.00    +0.000 C 
BRANCH  26  29
ATOM     29  C   UNL     1       4.019   3.018  19.551  0.00  0.00    +0.000 C 
BRANCH  29  30
ATOM     30  C   UNL     1       3.757   2.265  18.235  0.00  0.00    +0.000 C 
ATOM     31  C   UNL     1       2.270   2.190  17.885  0.00  0.00    +0.000 C 
ATOM     32  C   UNL     1       4.510   2.929  17.075  0.00  0.00    +0.000 C 
ENDBRANCH  29  30
ENDBRANCH  26  29
ENDBRANCH  19  22
ENDBRANCH  17  18
ENDBRANCH   1  17
TORSDOF 8
ENDMDL
MODEL 8
REMARK VINA RESULT:      -7.0      1.332      2.243
REMARK  Name = 
REMARK  13 active torsions:
REMARK  status: ('A' for Active; 'I' for Inactive)
REMARK    1  A    between atoms: C_1  and  C_2
REMARK    2  A    between atoms: C_8  and  N_9
REMARK    3  A    between atoms: N_12  and  C_13
REMARK    4  A    between atoms: C_13  and  C_14
REMARK    5  A    between atoms: C_14  and  C_15
REMARK    6  A    between atoms: C_15  and  N_16
REMARK    7  A    between atoms: C_17  and  C_19
REMARK    8  A    between atoms: C_21  and  C_22
REMARK    9  A    between atoms: N_23  and  C_24
REMARK   10  A    between atoms: C_24  and  C_25
REMARK   11  A    between atoms: C_25  and  C_26
REMARK   12  A    between atoms: C_25  and  C_27
REMARK   13  A    between atoms: C_28  and  C_29
REMARK                            x       y       z     vdW  Elec       q    Type
REMARK                         _______ _______ _______ _____ _____    ______ ____
ROOT
ATOM      1  C   UNL     1       8.190   8.847  17.692  0.00  0.00    +0.000 C 
ENDROOT
BRANCH   1   2
ATOM      2  C   UNL     1       7.731   7.415  17.997  0.00  0.00    +0.000 C 
BRANCH   2   6
ATOM      3  N   UNL     1       4.958   4.982  17.677  0.00  0.00    +0.000 N 
ATOM      4  C   UNL     1       6.333   4.590  18.022  0.00  0.00    +0.000 C 
ATOM      5  C   UNL     1       7.295   5.209  16.984  0.00  0.00    +0.000 C 
ATOM      6  N   UNL     1       7.207   6.683  16.836  0.00  0.00    +0.000 NA
ATOM      7  C   UNL     1       5.780   7.028  16.584  0.00  0.00    +0.000 C 
ATOM      8  C   UNL     1       4.779   6.443  17.616  0.00  0.00    +0.000 C 
BRANCH   3  16
ATOM      9  C   UNL     1       3.177   5.837  19.811  0.00  0.00    +0.000 C 
ATOM     10  C   UNL     1       2.979   4.544  19.055  0.00  0.00    +0.000 A 
ATOM     11  C   UNL     1       1.850   3.734  19.306  0.00  0.00    +0.000 A 
ATOM     12 CL   UNL     1       0.666   4.129  20.507  0.00  0.00    +0.000 Cl
ATOM     13  C   UNL     1       1.612   2.575  18.564  0.00  0.00    +0.000 A 
ATOM     14  C   UNL     1       2.512   2.181  17.587  0.00  0.00    +0.000 A 
ATOM     15  C   UNL     1       3.647   2.953  17.341  0.00  0.00    +0.000 A 
ATOM     16  C   UNL     1       3.904   4.150  18.046  0.00  0.00    +0.000 A 
ENDBRANCH   3  16
ENDBRANCH   2   6
ENDBRANCH   1   2
BRANCH   1  17
ATOM     17  C   UNL     1       8.927   9.497  18.858  0.00  0.00    +0.000 C 
BRANCH  17  18
ATOM     18  N   UNL     1       9.072  10.922  18.642  0.00  0.00    +0.000 N 
ATOM     19  C   UNL     1      10.177  11.637  19.051  0.00  0.00    +0.000 C 
ATOM     20  O   UNL     1      11.143  11.129  19.612  0.00  0.00    +0.000 OA
ATOM     21  H   UNL     1       8.327  11.466  18.232  0.00  0.00    +0.000 HD
BRANCH  19  22
ATOM     22  C   UNL     1      10.088  13.068  18.728  0.00  0.00    +0.000 A 
ATOM     23  N   UNL     1      10.677  13.632  17.607  0.00  0.00    +0.000 NA
ATOM     24  C   UNL     1      10.405  14.919  17.660  0.00  0.00    +0.000 A 
ATOM     25  C   UNL     1      10.827  15.918  16.642  0.00  0.00    +0.000 C 
ATOM     26  N   UNL     1       9.682  15.228  18.798  0.00  0.00    +0.000 N 
ATOM     27  C   UNL     1       9.448  14.045  19.472  0.00  0.00    +0.000 A 
ATOM     28  C   UNL     1       8.679  13.881  20.732  0.00  0.00    +0.000 C 
BRANCH  26  29
ATOM     29  C   UNL     1       9.348  16.579  19.243  0.00  0.00    +0.000 C 
BRANCH  29  30
ATOM     30  C   UNL     1      10.342  17.195  20.244  0.00  0.00    +0.000 C 
ATOM     31  C   UNL     1       9.758  17.325  21.651  0.00  0.00    +0.000 C 
ATOM     32  C   UNL     1      11.626  16.358  20.312  0.00  0.00    +0.000 C 
ENDBRANCH  29  30
ENDBRANCH  26  29
ENDBRANCH  19  22
ENDBRANCH  17  18
ENDBRANCH   1  17
TORSDOF 8
ENDMDL
MODEL 9
REMARK VINA RESULT:      -7.0      6.899     10.915
REMARK  Name = 
REMARK  13 active torsions:
REMARK  status: ('A' for Active; 'I' for Inactive)
REMARK    1  A    between atoms: C_1  and  C_2
REMARK    2  A    between atoms: C_8  and  N_9
REMARK    3  A    between atoms: N_12  and  C_13
REMARK    4  A    between atoms: C_13  and  C_14
REMARK    5  A    between atoms: C_14  and  C_15
REMARK    6  A    between atoms: C_15  and  N_16
REMARK    7  A    between atoms: C_17  and  C_19
REMARK    8  A    between atoms: C_21  and  C_22
REMARK    9  A    between atoms: N_23  and  C_24
REMARK   10  A    between atoms: C_24  and  C_25
REMARK   11  A    between atoms: C_25  and  C_26
REMARK   12  A    between atoms: C_25  and  C_27
REMARK   13  A    between atoms: C_28  and  C_29
REMARK                            x       y       z     vdW  Elec       q    Type
REMARK                         _______ _______ _______ _____ _____    ______ ____
ROOT
ATOM      1  C   UNL     1       1.457   8.792  20.901  0.00  0.00    +0.000 C 
ENDROOT
BRANCH   1   2
ATOM      2  C   UNL     1       0.699   9.441  19.736  0.00  0.00    +0.000 C 
BRANCH   2   6
ATOM      3  N   UNL     1      -0.468  12.954  19.744  0.00  0.00    +0.000 N 
ATOM      4  C   UNL     1       0.219  12.335  20.888  0.00  0.00    +0.000 C 
ATOM      5  C   UNL     1      -0.491  11.005  21.225  0.00  0.00    +0.000 C 
ATOM      6  N   UNL     1      -0.591  10.036  20.105  0.00  0.00    +0.000 NA
ATOM      7  C   UNL     1      -1.205  10.746  18.948  0.00  0.00    +0.000 C 
ATOM      8  C   UNL     1      -0.509  12.079  18.561  0.00  0.00    +0.000 C 
BRANCH   3  16
ATOM      9  C   UNL     1      -2.571  14.538  20.980  0.00  0.00    +0.000 C 
ATOM     10  C   UNL     1      -1.419  15.161  20.228  0.00  0.00    +0.000 A 
ATOM     11  C   UNL     1      -1.275  16.564  20.175  0.00  0.00    +0.000 A 
ATOM     12 CL   UNL     1      -2.413  17.648  20.905  0.00  0.00    +0.000 Cl
ATOM     13  C   UNL     1      -0.176  17.156  19.548  0.00  0.00    +0.000 A 
ATOM     14  C   UNL     1       0.779  16.364  18.932  0.00  0.00    +0.000 A 
ATOM     15  C   UNL     1       0.644  14.976  18.952  0.00  0.00    +0.000 A 
ATOM     16  C   UNL     1      -0.436  14.340  19.605  0.00  0.00    +0.000 A 
ENDBRANCH   3  16
ENDBRANCH   2   6
ENDBRANCH   1   2
BRANCH   1  17
ATOM     17  C   UNL     1       1.375   7.268  20.891  0.00  0.00    +0.000 C 
BRANCH  17  18
ATOM     18  N   UNL     1       2.460   6.702  20.117  0.00  0.00    +0.000 N 
ATOM     19  C   UNL     1       2.817   5.373  20.182  0.00  0.00    +0.000 C 
ATOM     20  O   UNL     1       2.235   4.547  20.881  0.00  0.00    +0.000 OA
ATOM     21  H   UNL     1       3.048   7.284  19.539  0.00  0.00    +0.000 HD
BRANCH  19  22
ATOM     22  C   UNL     1       3.953   5.038  19.313  0.00  0.00    +0.000 A 
ATOM     23  N   UNL     1       5.260   5.404  19.597  0.00  0.00    +0.000 NA
ATOM     24  C   UNL     1       5.990   4.953  18.597  0.00  0.00    +0.000 A 
ATOM     25  C   UNL     1       7.466   5.103  18.490  0.00  0.00    +0.000 C 
ATOM     26  N   UNL     1       5.202   4.330  17.646  0.00  0.00    +0.000 N 
ATOM     27  C   UNL     1       3.901   4.352  18.111  0.00  0.00    +0.000 A 
ATOM     28  C   UNL     1       2.712   3.767  17.440  0.00  0.00    +0.000 C 
BRANCH  26  29
ATOM     29  C   UNL     1       5.668   3.855  16.345  0.00  0.00    +0.000 C 
BRANCH  29  30
ATOM     30  C   UNL     1       6.192   4.955  15.405  0.00  0.00    +0.000 C 
ATOM     31  C   UNL     1       6.426   4.450  13.981  0.00  0.00    +0.000 C 
ATOM     32  C   UNL     1       5.215   6.137  15.361  0.00  0.00    +0.000 C 
ENDBRANCH  29  30
ENDBRANCH  26  29
ENDBRANCH  19  22
ENDBRANCH  17  18
ENDBRANCH   1  17
TORSDOF 8
ENDMDL
