MODEL 1
REMARK VINA RESULT:      -9.4      0.000      0.000
REMARK  Name = 
REMARK  9 active torsions:
REMARK  status: ('A' for Active; 'I' for Inactive)
REMARK    1  A    between atoms: C_1  and  C_2
REMARK    2  A    between atoms: C_2  and  O_3
REMARK    3  A    between atoms: O_3  and  C_4
REMARK    4  A    between atoms: C_9  and  C_10
REMARK    5  A    between atoms: N_13  and  C_14
REMARK    6  A    between atoms: C_17  and  S_18
REMARK    7  A    between atoms: S_18  and  C_21
REMARK    8  A    between atoms: C_21  and  C_22
REMARK    9  A    between atoms: N_24  and  O_25
REMARK                            x       y       z     vdW  Elec       q    Type
REMARK                         _______ _______ _______ _____ _____    ______ ____
ROOT
ATOM      1  C   UNL     1       1.452   8.853  19.250  0.00  0.00    +0.000 A 
ATOM      2  C   UNL     1       1.548   7.926  20.293  0.00  0.00    +0.000 A 
ATOM      3  C   UNL     1       2.320   6.761  20.144  0.00  0.00    +0.000 A 
ATOM      4  C   UNL     1       2.966   6.483  18.924  0.00  0.00    +0.000 A 
ATOM      5  C   UNL     1       2.847   7.365  17.857  0.00  0.00    +0.000 A 
ATOM      6  C   UNL     1       2.091   8.527  18.026  0.00  0.00    +0.000 A 
ENDROOT
BRANCH   1  10
ATOM      7  C   UNL     1      -1.488  12.041  19.576  0.00  0.00    +0.000 C 
ATOM      8  C   UNL     1      -0.469  11.994  18.437  0.00  0.00    +0.000 C 
ATOM      9  C   UNL     1       0.213  10.655  18.297  0.00  0.00    +0.000 C 
ATOM     10  N   UNL     1       0.822  10.118  19.510  0.00  0.00    +0.000 N 
ATOM     11  C   UNL     1      -0.100  10.072  20.669  0.00  0.00    +0.000 C 
ATOM     12  C   UNL     1      -0.871  11.398  20.851  0.00  0.00    +0.000 C 
BRANCH   7  18
ATOM     13  C   UNL     1      -3.681  11.327  18.172  0.00  0.00    +0.000 A 
ATOM     14  C   UNL     1      -5.017  11.683  17.877  0.00  0.00    +0.000 A 
ATOM     15  C   UNL     1      -5.748  12.538  18.687  0.00  0.00    +0.000 A 
ATOM     16  C   UNL     1      -5.157  13.024  19.839  0.00  0.00    +0.000 A 
ATOM     17  C   UNL     1      -3.824  12.699  20.134  0.00  0.00    +0.000 A 
ATOM     18  C   UNL     1      -3.010  11.897  19.282  0.00  0.00    +0.000 A 
BRANCH  13  19
ATOM     19  O   UNL     1      -3.209  10.509  17.181  0.00  0.00    +0.000 OA
BRANCH  19  21
ATOM     20  C   UNL     1      -2.987  10.131  14.709  0.00  0.00    +0.000 C 
ATOM     21  C   UNL     1      -3.153  11.066  15.884  0.00  0.00    +0.000 C 
ENDBRANCH  19  21
ENDBRANCH  13  19
ENDBRANCH   7  18
ENDBRANCH   1  10
BRANCH   4  22
ATOM     22  S   UNL     1       3.998   5.053  18.783  0.00  0.00    +0.000 S 
ATOM     23  O   UNL     1       4.335   4.895  17.378  0.00  0.00    +0.000 OA
ATOM     24  O   UNL     1       5.064   5.210  19.756  0.00  0.00    +0.000 OA
BRANCH  22  25
ATOM     25  C   UNL     1       2.958   3.659  19.276  0.00  0.00    +0.000 C 
ATOM     26  C   UNL     1       1.764   3.547  18.302  0.00  0.00    +0.000 C 
ATOM     27  C   UNL     1       0.646   2.675  18.845  0.00  0.00    +0.000 C 
ATOM     28  O   UNL     1       0.257   3.136  20.133  0.00  0.00    +0.000 OA
ATOM     29  C   UNL     1       1.300   2.996  21.088  0.00  0.00    +0.000 C 
ATOM     30  C   UNL     1       2.473   3.892  20.722  0.00  0.00    +0.000 C 
BRANCH  25  31
ATOM     31  C   UNL     1       3.842   2.412  19.200  0.00  0.00    +0.000 C 
ATOM     32  O   UNL     1       3.864   1.664  18.220  0.00  0.00    +0.000 OA
ATOM     33  N   UNL     1       4.618   2.123  20.306  0.00  0.00    +0.000 N 
ATOM     34  H   UNL     1       4.971   2.878  20.906  0.00  0.00    +0.000 HD
BRANCH  33  35
ATOM     35  O   UNL     1       5.511   1.035  20.137  0.00  0.00    +0.000 OA
ATOM     36  H   UNL     1       6.369   1.404  20.439  0.00  0.00    +0.000 HD
ENDBRANCH  33  35
ENDBRANCH  25  31
ENDBRANCH  22  25
ENDBRANCH   4  22
TORSDOF 8
ENDMDL
MODEL 2
REMARK VINA RESULT:      -9.2      2.617      4.103
REMARK  Name = 
REMARK  9 active torsions:
REMARK  status: ('A' for Active; 'I' for Inactive)
REMARK    1  A    between atoms: C_1  and  C_2
REMARK    2  A    between atoms: C_2  and  O_3
REMARK    3  A    between atoms: O_3  and  C_4
REMARK    4  A    between atoms: C_9  and  C_10
REMARK    5  A    between atoms: N_13  and  C_14
REMARK    6  A    between atoms: C_17  and  S_18
REMARK    7  A    between atoms: S_18  and  C_21
REMARK    8  A    between atoms: C_21  and  C_22
REMARK    9  A    between atoms: N_24  and  O_25
REMARK                            x       y       z     vdW  Elec       q    Type
REMARK                         _______ _______ _______ _____ _____    ______ ____
ROOT
ATOM      1  C   UNL     1       1.375   9.516  19.032  0.00  0.00    +0.000 A 
ATOM      2  C   UNL     1       1.744   8.970  17.798  0.00  0.00    +0.000 A 
ATOM      3  C   UNL     1       2.144   7.625  17.701  0.00  0.00    +0.000 A 
ATOM      4  C   UNL     1       2.229   6.822  18.855  0.00  0.00    +0.000 A 
ATOM      5  C   UNL     1       1.914   7.354  20.099  0.00  0.00    +0.000 A 
ATOM      6  C   UNL     1       1.502   8.686  20.175  0.00  0.00    +0.000 A 
ENDROOT
BRANCH   1  10
ATOM      7  C   UNL     1      -1.042  12.963  20.116  0.00  0.00    +0.000 C 
ATOM      8  C   UNL     1      -1.404  12.061  18.937  0.00  0.00    +0.000 C 
ATOM      9  C   UNL     1      -0.666  10.743  18.940  0.00  0.00    +0.000 C 
ATOM     10  N   UNL     1       0.786  10.825  19.056  0.00  0.00    +0.000 N 
ATOM     11  C   UNL     1       1.247  11.641  20.204  0.00  0.00    +0.000 C 
ATOM     12  C   UNL     1       0.503  12.992  20.293  0.00  0.00    +0.000 C 
BRANCH   7  18
ATOM     13  C   UNL     1      -1.922  12.376  22.600  0.00  0.00    +0.000 A 
ATOM     14  C   UNL     1      -3.076  12.254  23.407  0.00  0.00    +0.000 A 
ATOM     15  C   UNL     1      -4.282  12.843  23.061  0.00  0.00    +0.000 A 
ATOM     16  C   UNL     1      -4.340  13.605  21.909  0.00  0.00    +0.000 A 
ATOM     17  C   UNL     1      -3.209  13.718  21.085  0.00  0.00    +0.000 A 
ATOM     18  C   UNL     1      -1.977  13.055  21.357  0.00  0.00    +0.000 A 
BRANCH  13  19
ATOM     19  O   UNL     1      -0.903  11.662  23.170  0.00  0.00    +0.000 OA
BRANCH  19  21
ATOM     20  C   UNL     1       0.246   9.448  23.458  0.00  0.00    +0.000 C 
ATOM     21  C   UNL     1      -0.916  10.267  22.948  0.00  0.00    +0.000 C 
ENDBRANCH  19  21
ENDBRANCH  13  19
ENDBRANCH   7  18
ENDBRANCH   1  10
BRANCH   4  22
ATOM     22  S   UNL     1       2.656   5.111  18.703  0.00  0.00    +0.000 S 
ATOM     23  O   UNL     1       2.691   4.550  20.043  0.00  0.00    +0.000 OA
ATOM     24  O   UNL     1       1.753   4.542  17.719  0.00  0.00    +0.000 OA
BRANCH  22  25
ATOM     25  C   UNL     1       4.335   5.091  18.036  0.00  0.00    +0.000 C 
ATOM     26  C   UNL     1       4.951   6.503  18.165  0.00  0.00    +0.000 C 
ATOM     27  C   UNL     1       6.183   6.686  17.298  0.00  0.00    +0.000 C 
ATOM     28  O   UNL     1       5.880   6.346  15.951  0.00  0.00    +0.000 OA
ATOM     29  C   UNL     1       5.556   4.969  15.808  0.00  0.00    +0.000 C 
ATOM     30  C   UNL     1       4.274   4.648  16.559  0.00  0.00    +0.000 C 
BRANCH  25  31
ATOM     31  C   UNL     1       5.120   4.076  18.870  0.00  0.00    +0.000 C 
ATOM     32  O   UNL     1       6.188   4.346  19.425  0.00  0.00    +0.000 OA
ATOM     33  N   UNL     1       4.598   2.801  18.963  0.00  0.00    +0.000 N 
ATOM     34  H   UNL     1       3.582   2.650  18.925  0.00  0.00    +0.000 HD
BRANCH  33  35
ATOM     35  O   UNL     1       5.292   1.938  19.848  0.00  0.00    +0.000 OA
ATOM     36  H   UNL     1       6.055   1.636  19.310  0.00  0.00    +0.000 HD
ENDBRANCH  33  35
ENDBRANCH  25  31
ENDBRANCH  22  25
ENDBRANCH   4  22
TORSDOF 8
ENDMDL
MODEL 3
REMARK VINA RESULT:      -9.1      1.887      3.026
REMARK  Name = 
REMARK  9 active torsions:
REMARK  status: ('A' for Active; 'I' for Inactive)
REMARK    1  A    between atoms: C_1  and  C_2
REMARK    2  A    between atoms: C_2  and  O_3
REMARK    3  A    between atoms: O_3  and  C_4
REMARK    4  A    between atoms: C_9  and  C_10
REMARK    5  A    between atoms: N_13  and  C_14
REMARK    6  A    between atoms: C_17  and  S_18
REMARK    7  A    between atoms: S_18  and  C_21
REMARK    8  A    between atoms: C_21  and  C_22
REMARK    9  A    between atoms: N_24  and  O_25
REMARK                            x       y       z     vdW  Elec       q    Type
REMARK                         _______ _______ _______ _____ _____    ______ ____
ROOT
ATOM      1  C   UNL     1       1.702   8.891  18.570  0.00  0.00    +0.000 A 
ATOM      2  C   UNL     1       2.585   8.573  17.532  0.00  0.00    +0.000 A 
ATOM      3  C   UNL     1       3.381   7.417  17.599  0.00  0.00    +0.000 A 
ATOM      4  C   UNL     1       3.341   6.588  18.738  0.00  0.00    +0.000 A 
ATOM      5  C   UNL     1       2.508   6.908  19.803  0.00  0.00    +0.000 A 
ATOM      6  C   UNL     1       1.711   8.050  19.713  0.00  0.00    +0.000 A 
ENDROOT
BRANCH   1  10
ATOM      7  C   UNL     1      -1.288  11.972  19.257  0.00  0.00    +0.000 C 
ATOM      8  C   UNL     1      -1.648  10.618  18.647  0.00  0.00    +0.000 C 
ATOM      9  C   UNL     1      -0.568   9.577  18.817  0.00  0.00    +0.000 C 
ATOM     10  N   UNL     1       0.768   9.963  18.374  0.00  0.00    +0.000 N 
ATOM     11  C   UNL     1       1.237  11.246  18.950  0.00  0.00    +0.000 C 
ATOM     12  C   UNL     1       0.165  12.354  18.852  0.00  0.00    +0.000 C 
BRANCH   7  18
ATOM     13  C   UNL     1      -1.334  12.173  21.949  0.00  0.00    +0.000 A 
ATOM     14  C   UNL     1      -2.183  12.223  23.079  0.00  0.00    +0.000 A 
ATOM     15  C   UNL     1      -3.526  12.552  22.977  0.00  0.00    +0.000 A 
ATOM     16  C   UNL     1      -4.035  12.876  21.733  0.00  0.00    +0.000 A 
ATOM     17  C   UNL     1      -3.212  12.808  20.599  0.00  0.00    +0.000 A 
ATOM     18  C   UNL     1      -1.850  12.389  20.647  0.00  0.00    +0.000 A 
BRANCH  13  19
ATOM     19  O   UNL     1      -0.084  11.786  22.348  0.00  0.00    +0.000 OA
BRANCH  19  21
ATOM     20  C   UNL     1      -0.569   9.381  22.886  0.00  0.00    +0.000 C 
ATOM     21  C   UNL     1       0.242  10.425  22.153  0.00  0.00    +0.000 C 
ENDBRANCH  19  21
ENDBRANCH  13  19
ENDBRANCH   7  18
ENDBRANCH   1  10
BRANCH   4  22
ATOM     22  S   UNL     1       4.291   5.096  18.769  0.00  0.00    +0.000 S 
ATOM     23  O   UNL     1       4.641   4.772  17.396  0.00  0.00    +0.000 OA
ATOM     24  O   UNL     1       5.349   5.295  19.743  0.00  0.00    +0.000 OA
BRANCH  22  25
ATOM     25  C   UNL     1       3.166   3.821  19.381  0.00  0.00    +0.000 C 
ATOM     26  C   UNL     1       1.931   3.746  18.456  0.00  0.00    +0.000 C 
ATOM     27  C   UNL     1       0.769   3.001  19.088  0.00  0.00    +0.000 C 
ATOM     28  O   UNL     1       0.465   3.568  20.356  0.00  0.00    +0.000 OA
ATOM     29  C   UNL     1       1.529   3.403  21.284  0.00  0.00    +0.000 C 
ATOM     30  C   UNL     1       2.753   4.179  20.825  0.00  0.00    +0.000 C 
BRANCH  25  31
ATOM     31  C   UNL     1       3.947   2.505  19.357  0.00  0.00    +0.000 C 
ATOM     32  O   UNL     1       4.731   2.175  20.250  0.00  0.00    +0.000 OA
ATOM     33  N   UNL     1       3.765   1.687  18.260  0.00  0.00    +0.000 N 
ATOM     34  H   UNL     1       2.867   1.676  17.761  0.00  0.00    +0.000 HD
BRANCH  33  35
ATOM     35  O   UNL     1       4.409   0.426  18.347  0.00  0.00    +0.000 OA
ATOM     36  H   UNL     1       5.361   0.661  18.307  0.00  0.00    +0.000 HD
ENDBRANCH  33  35
ENDBRANCH  25  31
ENDBRANCH  22  25
ENDBRANCH   4  22
TORSDOF 8
ENDMDL
MODEL 4
REMARK VINA RESULT:      -9.1      1.113      2.279
REMARK  Name = 
REMARK  9 active torsions:
REMARK  status: ('A' for Active; 'I' for Inactive)
REMARK    1  A    between atoms: C_1  and  C_2
REMARK    2  A    between atoms: C_2  and  O_3
REMARK    3  A    between atoms: O_3  and  C_4
REMARK    4  A    between atoms: C_9  and  C_10
REMARK    5  A    between atoms: N_13  and  C_14
REMARK    6  A    between atoms: C_17  and  S_18
REMARK    7  A    between atoms: S_18  and  C_21
REMARK    8  A    between atoms: C_21  and  C_22
REMARK    9  A    between atoms: N_24  and  O_25
REMARK                            x       y       z     vdW  Elec       q    Type
REMARK                         _______ _______ _______ _____ _____    ______ ____
ROOT
ATOM      1  C   UNL     1       1.580   8.732  19.404  0.00  0.00    +0.000 A 
ATOM      2  C   UNL     1       1.695   7.752  20.397  0.00  0.00    +0.000 A 
ATOM      3  C   UNL     1       2.427   6.576  20.160  0.00  0.00    +0.000 A 
ATOM      4  C   UNL     1       3.013   6.342  18.900  0.00  0.00    +0.000 A 
ATOM      5  C   UNL     1       2.873   7.278  17.882  0.00  0.00    +0.000 A 
ATOM      6  C   UNL     1       2.157   8.448  18.140  0.00  0.00    +0.000 A 
ENDROOT
BRANCH   1  10
ATOM      7  C   UNL     1      -1.167  12.084  19.753  0.00  0.00    +0.000 C 
ATOM      8  C   UNL     1       0.018  12.107  18.788  0.00  0.00    +0.000 C 
ATOM      9  C   UNL     1       0.629  10.746  18.555  0.00  0.00    +0.000 C 
ATOM     10  N   UNL     1       0.998   9.997  19.752  0.00  0.00    +0.000 N 
ATOM     11  C   UNL     1      -0.102   9.872  20.738  0.00  0.00    +0.000 C 
ATOM     12  C   UNL     1      -0.806  11.222  20.997  0.00  0.00    +0.000 C 
BRANCH   7  18
ATOM     13  C   UNL     1      -3.819  12.585  19.817  0.00  0.00    +0.000 A 
ATOM     14  C   UNL     1      -5.081  12.129  19.374  0.00  0.00    +0.000 A 
ATOM     15  C   UNL     1      -5.216  11.267  18.297  0.00  0.00    +0.000 A 
ATOM     16  C   UNL     1      -4.077  10.874  17.617  0.00  0.00    +0.000 A 
ATOM     17  C   UNL     1      -2.815  11.300  18.059  0.00  0.00    +0.000 A 
ATOM     18  C   UNL     1      -2.627  12.113  19.214  0.00  0.00    +0.000 A 
BRANCH  13  19
ATOM     19  O   UNL     1      -3.995  13.386  20.913  0.00  0.00    +0.000 OA
BRANCH  19  21
ATOM     20  C   UNL     1      -3.866  12.758  23.341  0.00  0.00    +0.000 C 
ATOM     21  C   UNL     1      -4.618  12.788  22.031  0.00  0.00    +0.000 C 
ENDBRANCH  19  21
ENDBRANCH  13  19
ENDBRANCH   7  18
ENDBRANCH   1  10
BRANCH   4  22
ATOM     22  S   UNL     1       3.997   4.894  18.646  0.00  0.00    +0.000 S 
ATOM     23  O   UNL     1       4.220   4.763  17.215  0.00  0.00    +0.000 OA
ATOM     24  O   UNL     1       5.140   5.005  19.535  0.00  0.00    +0.000 OA
BRANCH  22  25
ATOM     25  C   UNL     1       2.968   3.511  19.188  0.00  0.00    +0.000 C 
ATOM     26  C   UNL     1       1.778   3.351  18.216  0.00  0.00    +0.000 C 
ATOM     27  C   UNL     1       0.666   2.491  18.788  0.00  0.00    +0.000 C 
ATOM     28  O   UNL     1       0.268   2.997  20.056  0.00  0.00    +0.000 OA
ATOM     29  C   UNL     1       1.310   2.903  21.019  0.00  0.00    +0.000 C 
ATOM     30  C   UNL     1       2.475   3.794  20.623  0.00  0.00    +0.000 C 
BRANCH  25  31
ATOM     31  C   UNL     1       3.863   2.269  19.163  0.00  0.00    +0.000 C 
ATOM     32  O   UNL     1       3.852   1.454  18.238  0.00  0.00    +0.000 OA
ATOM     33  N   UNL     1       4.688   2.068  20.252  0.00  0.00    +0.000 N 
ATOM     34  H   UNL     1       5.057   2.867  20.781  0.00  0.00    +0.000 HD
BRANCH  33  35
ATOM     35  O   UNL     1       5.587   0.979  20.121  0.00  0.00    +0.000 OA
ATOM     36  H   UNL     1       6.228   1.132  20.849  0.00  0.00    +0.000 HD
ENDBRANCH  33  35
ENDBRANCH  25  31
ENDBRANCH  22  25
ENDBRANCH   4  22
TORSDOF 8
ENDMDL
MODEL 5
REMARK VINA RESULT:      -9.1      1.883      3.508
REMARK  Name = 
REMARK  9 active torsions:
REMARK  status: ('A' for Active; 'I' for Inactive)
REMARK    1  A    between atoms: C_1  and  C_2
REMARK    2  A    between atoms: C_2  and  O_3
REMARK    3  A    between atoms: O_3  and  C_4
REMARK    4  A    between atoms: C_9  and  C_10
REMARK    5  A    between atoms: N_13  and  C_14
REMARK    6  A    between atoms: C_17  and  S_18
REMARK    7  A    between atoms: S_18  and  C_21
REMARK    8  A    between atoms: C_21  and  C_22
REMARK    9  A    between atoms: N_24  and  O_25
REMARK                            x       y       z     vdW  Elec       q    Type
REMARK                         _______ _______ _______ _____ _____    ______ ____
ROOT
ATOM      1  C   UNL     1       1.580   8.562  19.850  0.00  0.00    +0.000 A 
ATOM      2  C   UNL     1       1.965   8.204  18.554  0.00  0.00    +0.000 A 
ATOM      3  C   UNL     1       2.156   6.854  18.212  0.00  0.00    +0.000 A 
ATOM      4  C   UNL     1       2.014   5.845  19.184  0.00  0.00    +0.000 A 
ATOM      5  C   UNL     1       1.679   6.179  20.491  0.00  0.00    +0.000 A 
ATOM      6  C   UNL     1       1.475   7.523  20.810  0.00  0.00    +0.000 A 
ENDROOT
BRANCH   1  10
ATOM      7  C   UNL     1      -0.661  12.283  20.054  0.00  0.00    +0.000 C 
ATOM      8  C   UNL     1       0.419  12.046  18.999  0.00  0.00    +0.000 C 
ATOM      9  C   UNL     1       0.822  10.598  18.866  0.00  0.00    +0.000 C 
ATOM     10  N   UNL     1       1.203   9.924  20.104  0.00  0.00    +0.000 N 
ATOM     11  C   UNL     1       0.196  10.050  21.184  0.00  0.00    +0.000 C 
ATOM     12  C   UNL     1      -0.300  11.503  21.351  0.00  0.00    +0.000 C 
BRANCH   7  18
ATOM     13  C   UNL     1      -3.243  13.017  20.346  0.00  0.00    +0.000 A 
ATOM     14  C   UNL     1      -4.573  12.693  19.992  0.00  0.00    +0.000 A 
ATOM     15  C   UNL     1      -4.870  11.886  18.905  0.00  0.00    +0.000 A 
ATOM     16  C   UNL     1      -3.828  11.418  18.125  0.00  0.00    +0.000 A 
ATOM     17  C   UNL     1      -2.502  11.712  18.476  0.00  0.00    +0.000 A 
ATOM     18  C   UNL     1      -2.150  12.462  19.635  0.00  0.00    +0.000 A 
BRANCH  13  19
ATOM     19  O   UNL     1      -3.259  13.790  21.476  0.00  0.00    +0.000 OA
BRANCH  19  21
ATOM     20  C   UNL     1      -3.141  12.272  23.473  0.00  0.00    +0.000 C 
ATOM     21  C   UNL     1      -3.910  13.238  22.602  0.00  0.00    +0.000 C 
ENDBRANCH  19  21
ENDBRANCH  13  19
ENDBRANCH   7  18
ENDBRANCH   1  10
BRANCH   4  22
ATOM     22  S   UNL     1       2.180   4.147  18.716  0.00  0.00    +0.000 S 
ATOM     23  O   UNL     1       1.827   3.339  19.873  0.00  0.00    +0.000 OA
ATOM     24  O   UNL     1       1.435   3.980  17.481  0.00  0.00    +0.000 OA
BRANCH  22  25
ATOM     25  C   UNL     1       3.938   3.910  18.375  0.00  0.00    +0.000 C 
ATOM     26  C   UNL     1       4.758   4.922  19.206  0.00  0.00    +0.000 C 
ATOM     27  C   UNL     1       6.185   5.069  18.709  0.00  0.00    +0.000 C 
ATOM     28  O   UNL     1       6.183   5.380  17.322  0.00  0.00    +0.000 OA
ATOM     29  C   UNL     1       5.649   4.321  16.538  0.00  0.00    +0.000 C 
ATOM     30  C   UNL     1       4.179   4.113  16.864  0.00  0.00    +0.000 C 
BRANCH  25  31
ATOM     31  C   UNL     1       4.269   2.473  18.784  0.00  0.00    +0.000 C 
ATOM     32  O   UNL     1       3.922   1.491  18.123  0.00  0.00    +0.000 OA
ATOM     33  N   UNL     1       4.965   2.300  19.964  0.00  0.00    +0.000 N 
ATOM     34  H   UNL     1       5.628   3.014  20.287  0.00  0.00    +0.000 HD
BRANCH  33  35
ATOM     35  O   UNL     1       5.358   0.964  20.230  0.00  0.00    +0.000 OA
ATOM     36  H   UNL     1       6.211   1.074  20.703  0.00  0.00    +0.000 HD
ENDBRANCH  33  35
ENDBRANCH  25  31
ENDBRANCH  22  25
ENDBRANCH   4  22
TORSDOF 8
ENDMDL
MODEL 6
REMARK VINA RESULT:      -9.0      1.389      2.183
REMARK  Name = 
REMARK  9 active torsions:
REMARK  status: ('A' for Active; 'I' for Inactive)
REMARK    1  A    between atoms: C_1  and  C_2
REMARK    2  A    between atoms: C_2  and  O_3
REMARK    3  A    between atoms: O_3  and  C_4
REMARK    4  A    between atoms: C_9  and  C_10
REMARK    5  A    between atoms: N_13  and  C_14
REMARK    6  A    between atoms: C_17  and  S_18
REMARK    7  A    between atoms: S_18  and  C_21
REMARK    8  A    between atoms: C_21  and  C_22
REMARK    9  A    between atoms: N_24  and  O_25
REMARK                            x       y       z     vdW  Elec       q    Type
REMARK                         _______ _______ _______ _____ _____    ______ ____
ROOT
ATOM      1  C   UNL     1       1.552   9.058  18.770  0.00  0.00    +0.000 A 
ATOM      2  C   UNL     1       1.656   8.276  19.925  0.00  0.00    +0.000 A 
ATOM      3  C   UNL     1       2.434   7.105  19.928  0.00  0.00    +0.000 A 
ATOM      4  C   UNL     1       3.078   6.673  18.752  0.00  0.00    +0.000 A 
ATOM      5  C   UNL     1       2.951   7.407  17.579  0.00  0.00    +0.000 A 
ATOM      6  C   UNL     1       2.189   8.577  17.597  0.00  0.00    +0.000 A 
ENDROOT
BRANCH   1  10
ATOM      7  C   UNL     1      -1.134  12.292  19.881  0.00  0.00    +0.000 C 
ATOM      8  C   UNL     1      -1.274  11.543  18.556  0.00  0.00    +0.000 C 
ATOM      9  C   UNL     1      -0.496  10.251  18.511  0.00  0.00    +0.000 C 
ATOM     10  N   UNL     1       0.917  10.342  18.864  0.00  0.00    +0.000 N 
ATOM     11  C   UNL     1       1.163  11.011  20.164  0.00  0.00    +0.000 C 
ATOM     12  C   UNL     1       0.364  12.325  20.303  0.00  0.00    +0.000 C 
BRANCH   7  18
ATOM     13  C   UNL     1      -3.596  12.652  20.930  0.00  0.00    +0.000 A 
ATOM     14  C   UNL     1      -4.306  12.886  22.129  0.00  0.00    +0.000 A 
ATOM     15  C   UNL     1      -3.755  12.625  23.375  0.00  0.00    +0.000 A 
ATOM     16  C   UNL     1      -2.484  12.083  23.435  0.00  0.00    +0.000 A 
ATOM     17  C   UNL     1      -1.757  11.867  22.255  0.00  0.00    +0.000 A 
ATOM     18  C   UNL     1      -2.252  12.204  20.961  0.00  0.00    +0.000 A 
BRANCH  13  19
ATOM     19  O   UNL     1      -4.372  13.037  19.871  0.00  0.00    +0.000 OA
BRANCH  19  21
ATOM     20  C   UNL     1      -4.906  11.616  17.870  0.00  0.00    +0.000 C 
ATOM     21  C   UNL     1      -5.185  12.035  19.295  0.00  0.00    +0.000 C 
ENDBRANCH  19  21
ENDBRANCH  13  19
ENDBRANCH   7  18
ENDBRANCH   1  10
BRANCH   4  22
ATOM     22  S   UNL     1       4.117   5.242  18.797  0.00  0.00    +0.000 S 
ATOM     23  O   UNL     1       4.509   4.944  17.428  0.00  0.00    +0.000 OA
ATOM     24  O   UNL     1       5.145   5.503  19.788  0.00  0.00    +0.000 OA
BRANCH  22  25
ATOM     25  C   UNL     1       3.062   3.899  19.388  0.00  0.00    +0.000 C 
ATOM     26  C   UNL     1       1.819   3.790  18.477  0.00  0.00    +0.000 C 
ATOM     27  C   UNL     1       0.703   2.974  19.103  0.00  0.00    +0.000 C 
ATOM     28  O   UNL     1       0.391   3.490  20.391  0.00  0.00    +0.000 OA
ATOM     29  C   UNL     1       1.476   3.351  21.299  0.00  0.00    +0.000 C 
ATOM     30  C   UNL     1       2.655   4.197  20.846  0.00  0.00    +0.000 C 
BRANCH  25  31
ATOM     31  C   UNL     1       3.904   2.623  19.316  0.00  0.00    +0.000 C 
ATOM     32  O   UNL     1       4.744   2.325  20.168  0.00  0.00    +0.000 OA
ATOM     33  N   UNL     1       3.711   1.803  18.221  0.00  0.00    +0.000 N 
ATOM     34  H   UNL     1       2.793   1.752  17.764  0.00  0.00    +0.000 HD
BRANCH  33  35
ATOM     35  O   UNL     1       4.419   0.576  18.267  0.00  0.00    +0.000 OA
ATOM     36  H   UNL     1       3.794  -0.023  18.731  0.00  0.00    +0.000 HD
ENDBRANCH  33  35
ENDBRANCH  25  31
ENDBRANCH  22  25
ENDBRANCH   4  22
TORSDOF 8
ENDMDL
MODEL 7
REMARK VINA RESULT:      -8.8      1.470      2.638
REMARK  Name = 
REMARK  9 active torsions:
REMARK  status: ('A' for Active; 'I' for Inactive)
REMARK    1  A    between atoms: C_1  and  C_2
REMARK    2  A    between atoms: C_2  and  O_3
REMARK    3  A    between atoms: O_3  and  C_4
REMARK    4  A    between atoms: C_9  and  C_10
REMARK    5  A    between atoms: N_13  and  C_14
REMARK    6  A    between atoms: C_17  and  S_18
REMARK    7  A    between atoms: S_18  and  C_21
REMARK    8  A    between atoms: C_21  and  C_22
REMARK    9  A    between atoms: N_24  and  O_25
REMARK                            x       y       z     vdW  Elec       q    Type
REMARK                         _______ _______ _______ _____ _____    ______ ____
ROOT
ATOM      1  C   UNL     1       1.501   8.460  19.692  0.00  0.00    +0.000 A 
ATOM      2  C   UNL     1       1.848   8.044  18.402  0.00  0.00    +0.000 A 
ATOM      3  C   UNL     1       2.060   6.683  18.123  0.00  0.00    +0.000 A 
ATOM      4  C   UNL     1       1.978   5.722  19.150  0.00  0.00    +0.000 A 
ATOM      5  C   UNL     1       1.682   6.116  20.449  0.00  0.00    +0.000 A 
ATOM      6  C   UNL     1       1.458   7.470  20.706  0.00  0.00    +0.000 A 
ENDROOT
BRANCH   1  10
ATOM      7  C   UNL     1      -0.882  12.080  20.035  0.00  0.00    +0.000 C 
ATOM      8  C   UNL     1      -0.052  11.774  18.789  0.00  0.00    +0.000 C 
ATOM      9  C   UNL     1       0.408  10.338  18.711  0.00  0.00    +0.000 C 
ATOM     10  N   UNL     1       1.100   9.825  19.889  0.00  0.00    +0.000 N 
ATOM     11  C   UNL     1       0.354  10.027  21.154  0.00  0.00    +0.000 C 
ATOM     12  C   UNL     1      -0.188  11.467  21.285  0.00  0.00    +0.000 C 
BRANCH   7  18
ATOM     13  C   UNL     1      -3.327  11.636  18.980  0.00  0.00    +0.000 A 
ATOM     14  C   UNL     1      -4.629  12.170  18.842  0.00  0.00    +0.000 A 
ATOM     15  C   UNL     1      -5.114  13.157  19.687  0.00  0.00    +0.000 A 
ATOM     16  C   UNL     1      -4.306  13.600  20.719  0.00  0.00    +0.000 A 
ATOM     17  C   UNL     1      -3.003  13.097  20.855  0.00  0.00    +0.000 A 
ATOM     18  C   UNL     1      -2.435  12.149  19.954  0.00  0.00    +0.000 A 
BRANCH  13  19
ATOM     19  O   UNL     1      -3.117  10.716  17.989  0.00  0.00    +0.000 OA
BRANCH  19  21
ATOM     20  C   UNL     1      -3.407  10.442  15.509  0.00  0.00    +0.000 C 
ATOM     21  C   UNL     1      -2.899  11.233  16.692  0.00  0.00    +0.000 C 
ENDBRANCH  19  21
ENDBRANCH  13  19
ENDBRANCH   7  18
ENDBRANCH   1  10
BRANCH   4  22
ATOM     22  S   UNL     1       2.169   4.006  18.764  0.00  0.00    +0.000 S 
ATOM     23  O   UNL     1       1.862   3.251  19.968  0.00  0.00    +0.000 OA
ATOM     24  O   UNL     1       1.398   3.761  17.558  0.00  0.00    +0.000 OA
BRANCH  22  25
ATOM     25  C   UNL     1       3.923   3.788  18.390  0.00  0.00    +0.000 C 
ATOM     26  C   UNL     1       4.746   4.819  19.195  0.00  0.00    +0.000 C 
ATOM     27  C   UNL     1       6.161   4.979  18.668  0.00  0.00    +0.000 C 
ATOM     28  O   UNL     1       6.127   5.275  17.278  0.00  0.00    +0.000 OA
ATOM     29  C   UNL     1       5.592   4.202  16.515  0.00  0.00    +0.000 C 
ATOM     30  C   UNL     1       4.132   3.978  16.873  0.00  0.00    +0.000 C 
BRANCH  25  31
ATOM     31  C   UNL     1       4.281   2.360  18.807  0.00  0.00    +0.000 C 
ATOM     32  O   UNL     1       3.940   1.367  18.159  0.00  0.00    +0.000 OA
ATOM     33  N   UNL     1       4.993   2.207  19.980  0.00  0.00    +0.000 N 
ATOM     34  H   UNL     1       5.649   2.934  20.289  0.00  0.00    +0.000 HD
BRANCH  33  35
ATOM     35  O   UNL     1       5.409   0.879  20.253  0.00  0.00    +0.000 OA
ATOM     36  H   UNL     1       6.386   0.960  20.308  0.00  0.00    +0.000 HD
ENDBRANCH  33  35
ENDBRANCH  25  31
ENDBRANCH  22  25
ENDBRANCH   4  22
TORSDOF 8
ENDMDL
MODEL 8
REMARK VINA RESULT:      -8.8      1.905      3.493
REMARK  Name = 
REMARK  9 active torsions:
REMARK  status: ('A' for Active; 'I' for Inactive)
REMARK    1  A    between atoms: C_1  and  C_2
REMARK    2  A    between atoms: C_2  and  O_3
REMARK    3  A    between atoms: O_3  and  C_4
REMARK    4  A    between atoms: C_9  and  C_10
REMARK    5  A    between atoms: N_13  and  C_14
REMARK    6  A    between atoms: C_17  and  S_18
REMARK    7  A    between atoms: S_18  and  C_21
REMARK    8  A    between atoms: C_21  and  C_22
REMARK    9  A    between atoms: N_24  and  O_25
REMARK                            x       y       z     vdW  Elec       q    Type
REMARK                         _______ _______ _______ _____ _____    ______ ____
ROOT
ATOM      1  C   UNL     1       1.503   8.699  19.825  0.00  0.00    +0.000 A 
ATOM      2  C   UNL     1       1.953   8.355  18.546  0.00  0.00    +0.000 A 
ATOM      3  C   UNL     1       2.224   7.015  18.220  0.00  0.00    +0.000 A 
ATOM      4  C   UNL     1       2.097   6.004  19.193  0.00  0.00    +0.000 A 
ATOM      5  C   UNL     1       1.697   6.327  20.484  0.00  0.00    +0.000 A 
ATOM      6  C   UNL     1       1.415   7.660  20.787  0.00  0.00    +0.000 A 
ENDROOT
BRANCH   1  10
ATOM      7  C   UNL     1      -0.939  12.294  19.947  0.00  0.00    +0.000 C 
ATOM      8  C   UNL     1       0.169  12.105  18.912  0.00  0.00    +0.000 C 
ATOM      9  C   UNL     1       0.652  10.679  18.804  0.00  0.00    +0.000 C 
ATOM     10  N   UNL     1       1.049  10.042  20.056  0.00  0.00    +0.000 N 
ATOM     11  C   UNL     1       0.019  10.125  21.118  0.00  0.00    +0.000 C 
ATOM     12  C   UNL     1      -0.557  11.551  21.259  0.00  0.00    +0.000 C 
BRANCH   7  18
ATOM     13  C   UNL     1      -3.586  12.741  20.240  0.00  0.00    +0.000 A 
ATOM     14  C   UNL     1      -4.869  12.343  19.801  0.00  0.00    +0.000 A 
ATOM     15  C   UNL     1      -5.062  11.662  18.609  0.00  0.00    +0.000 A 
ATOM     16  C   UNL     1      -3.962  11.400  17.812  0.00  0.00    +0.000 A 
ATOM     17  C   UNL     1      -2.679  11.767  18.244  0.00  0.00    +0.000 A 
ATOM     18  C   UNL     1      -2.428  12.388  19.503  0.00  0.00    +0.000 A 
BRANCH  13  19
ATOM     19  O   UNL     1      -3.703  13.353  21.458  0.00  0.00    +0.000 OA
BRANCH  19  21
ATOM     20  C   UNL     1      -3.763  15.804  20.912  0.00  0.00    +0.000 C 
ATOM     21  C   UNL     1      -4.423  14.569  21.481  0.00  0.00    +0.000 C 
ENDBRANCH  19  21
ENDBRANCH  13  19
ENDBRANCH   7  18
ENDBRANCH   1  10
BRANCH   4  22
ATOM     22  S   UNL     1       2.365   4.314  18.742  0.00  0.00    +0.000 S 
ATOM     23  O   UNL     1       1.954   3.491  19.869  0.00  0.00    +0.000 OA
ATOM     24  O   UNL     1       1.728   4.120  17.452  0.00  0.00    +0.000 OA
BRANCH  22  25
ATOM     25  C   UNL     1       4.153   4.146  18.543  0.00  0.00    +0.000 C 
ATOM     26  C   UNL     1       4.865   5.184  19.439  0.00  0.00    +0.000 C 
ATOM     27  C   UNL     1       6.320   5.388  19.058  0.00  0.00    +0.000 C 
ATOM     28  O   UNL     1       6.417   5.706  17.675  0.00  0.00    +0.000 OA
ATOM     29  C   UNL     1       5.989   4.632  16.849  0.00  0.00    +0.000 C 
ATOM     30  C   UNL     1       4.506   4.366  17.057  0.00  0.00    +0.000 C 
BRANCH  25  31
ATOM     31  C   UNL     1       4.505   2.721  18.974  0.00  0.00    +0.000 C 
ATOM     32  O   UNL     1       5.148   2.469  19.996  0.00  0.00    +0.000 OA
ATOM     33  N   UNL     1       4.095   1.694  18.146  0.00  0.00    +0.000 N 
ATOM     34  H   UNL     1       3.239   1.787  17.586  0.00  0.00    +0.000 HD
BRANCH  33  35
ATOM     35  O   UNL     1       4.333   0.392  18.654  0.00  0.00    +0.000 OA
ATOM     36  H   UNL     1       4.620  -0.107  17.858  0.00  0.00    +0.000 HD
ENDBRANCH  33  35
ENDBRANCH  25  31
ENDBRANCH  22  25
ENDBRANCH   4  22
TORSDOF 8
ENDMDL
MODEL 9
REMARK VINA RESULT:      -8.8      1.688      2.946
REMARK  Name = 
REMARK  9 active torsions:
REMARK  status: ('A' for Active; 'I' for Inactive)
REMARK    1  A    between atoms: C_1  and  C_2
REMARK    2  A    between atoms: C_2  and  O_3
REMARK    3  A    between atoms: O_3  and  C_4
REMARK    4  A    between atoms: C_9  and  C_10
REMARK    5  A    between atoms: N_13  and  C_14
REMARK    6  A    between atoms: C_17  and  S_18
REMARK    7  A    between atoms: S_18  and  C_21
REMARK    8  A    between atoms: C_21  and  C_22
REMARK    9  A    between atoms: N_24  and  O_25
REMARK                            x       y       z     vdW  Elec       q    Type
REMARK                         _______ _______ _______ _____ _____    ______ ____
ROOT
ATOM      1  C   UNL     1       1.542   9.019  19.576  0.00  0.00    +0.000 A 
ATOM      2  C   UNL     1       1.801   8.657  18.249  0.00  0.00    +0.000 A 
ATOM      3  C   UNL     1       2.107   7.326  17.918  0.00  0.00    +0.000 A 
ATOM      4  C   UNL     1       2.209   6.346  18.924  0.00  0.00    +0.000 A 
ATOM      5  C   UNL     1       2.003   6.690  20.255  0.00  0.00    +0.000 A 
ATOM      6  C   UNL     1       1.683   8.013  20.565  0.00  0.00    +0.000 A 
ENDROOT
BRANCH   1  10
ATOM      7  C   UNL     1      -1.113  12.397  20.242  0.00  0.00    +0.000 C 
ATOM      8  C   UNL     1      -0.393  12.185  18.910  0.00  0.00    +0.000 C 
ATOM      9  C   UNL     1       0.185  10.800  18.755  0.00  0.00    +0.000 C 
ATOM     10  N   UNL     1       1.041  10.338  19.843  0.00  0.00    +0.000 N 
ATOM     11  C   UNL     1       0.415  10.454  21.182  0.00  0.00    +0.000 C 
ATOM     12  C   UNL     1      -0.239  11.836  21.400  0.00  0.00    +0.000 C 
BRANCH   7  18
ATOM     13  C   UNL     1      -3.633  12.191  19.295  0.00  0.00    +0.000 A 
ATOM     14  C   UNL     1      -4.974  12.584  19.512  0.00  0.00    +0.000 A 
ATOM     15  C   UNL     1      -5.417  13.042  20.743  0.00  0.00    +0.000 A 
ATOM     16  C   UNL     1      -4.521  13.077  21.797  0.00  0.00    +0.000 A 
ATOM     17  C   UNL     1      -3.182  12.713  21.592  0.00  0.00    +0.000 A 
ATOM     18  C   UNL     1      -2.666  12.322  20.322  0.00  0.00    +0.000 A 
BRANCH  13  19
ATOM     19  O   UNL     1      -3.484  11.825  17.985  0.00  0.00    +0.000 OA
BRANCH  19  21
ATOM     20  C   UNL     1      -2.697   9.826  16.684  0.00  0.00    +0.000 C 
ATOM     21  C   UNL     1      -3.627  10.449  17.699  0.00  0.00    +0.000 C 
ENDBRANCH  19  21
ENDBRANCH  13  19
ENDBRANCH   7  18
ENDBRANCH   1  10
BRANCH   4  22
ATOM     22  S   UNL     1       2.515   4.661  18.479  0.00  0.00    +0.000 S 
ATOM     23  O   UNL     1       2.382   3.860  19.685  0.00  0.00    +0.000 OA
ATOM     24  O   UNL     1       1.666   4.370  17.338  0.00  0.00    +0.000 OA
BRANCH  22  25
ATOM     25  C   UNL     1       4.242   4.608  17.952  0.00  0.00    +0.000 C 
ATOM     26  C   UNL     1       4.827   6.038  17.979  0.00  0.00    +0.000 C 
ATOM     27  C   UNL     1       6.121   6.157  17.197  0.00  0.00    +0.000 C 
ATOM     28  O   UNL     1       5.932   5.672  15.873  0.00  0.00    +0.000 OA
ATOM     29  C   UNL     1       5.639   4.282  15.851  0.00  0.00    +0.000 C 
ATOM     30  C   UNL     1       4.306   4.013  16.529  0.00  0.00    +0.000 C 
BRANCH  25  31
ATOM     31  C   UNL     1       4.971   3.701  18.946  0.00  0.00    +0.000 C 
ATOM     32  O   UNL     1       5.845   4.114  19.713  0.00  0.00    +0.000 OA
ATOM     33  N   UNL     1       4.633   2.363  18.941  0.00  0.00    +0.000 N 
ATOM     34  H   UNL     1       3.683   2.067  18.690  0.00  0.00    +0.000 HD
BRANCH  33  35
ATOM     35  O   UNL     1       5.241   1.594  19.965  0.00  0.00    +0.000 OA
ATOM     36  H   UNL     1       5.935   1.093  19.484  0.00  0.00    +0.000 HD
ENDBRANCH  33  35
ENDBRANCH  25  31
ENDBRANCH  22  25
ENDBRANCH   4  22
TORSDOF 8
ENDMDL
