MODEL 1
REMARK VINA RESULT:      -8.5      0.000      0.000
REMARK  Name = 
REMARK  10 active torsions:
REMARK  status: ('A' for Active; 'I' for Inactive)
REMARK    1  A    between atoms: C_1  and  C_2
REMARK    2  A    between atoms: C_2  and  C_3
REMARK    3  A    between atoms: C_2  and  N_4
REMARK    4  A    between atoms: C_7  and  C_8
REMARK    5  A    between atoms: C_8  and  O_9
REMARK    6  A    between atoms: O_9  and  C_10
REMARK    7  A    between atoms: C_10  and  C_11
REMARK    8  A    between atoms: C_11  and  N_12
REMARK    9  A    between atoms: C_11  and  C_25
REMARK   10  A    between atoms: C_13  and  C_15
REMARK                            x       y       z     vdW  Elec       q    Type
REMARK                         _______ _______ _______ _____ _____    ______ ____
ROOT
ATOM      1  C   UNL     1       3.051   5.330  20.380  0.00  0.00    +0.000 C 
ENDROOT
BRANCH   1   2
ATOM      2  C   UNL     1       2.232   4.230  19.717  0.00  0.00    +0.000 A 
ATOM      3  C   UNL     1       1.962   4.281  18.335  0.00  0.00    +0.000 A 
ATOM      4  C   UNL     1       1.177   3.315  17.704  0.00  0.00    +0.000 A 
ATOM      5  C   UNL     1       0.633   2.273  18.445  0.00  0.00    +0.000 A 
ATOM      6  C   UNL     1       0.885   2.195  19.812  0.00  0.00    +0.000 A 
ATOM      7  C   UNL     1       1.676   3.164  20.447  0.00  0.00    +0.000 A 
ATOM      8 CL   UNL     1       1.924   2.983  22.150  0.00  0.00    +0.000 Cl
ENDBRANCH   1   2
BRANCH   1   9
ATOM      9  N   UNL     1       2.228   6.496  20.703  0.00  0.00    +0.000 N 
ATOM     10  C   UNL     1       2.048   7.543  19.825  0.00  0.00    +0.000 C 
ATOM     11  O   UNL     1       2.475   7.547  18.676  0.00  0.00    +0.000 OA
ATOM     12  H   UNL     1       1.759   6.503  21.598  0.00  0.00    +0.000 HD
BRANCH  10  13
ATOM     13  C   UNL     1       1.296   8.728  20.315  0.00  0.00    +0.000 A 
ATOM     14  C   UNL     1       1.014   9.823  19.493  0.00  0.00    +0.000 A 
ATOM     15  C   UNL     1       0.193  10.865  19.952  0.00  0.00    +0.000 A 
ATOM     16  C   UNL     1      -0.361  10.800  21.248  0.00  0.00    +0.000 A 
ATOM     17  C   UNL     1      -1.253  11.617  22.000  0.00  0.00    +0.000 A 
ATOM     18 CL   UNL     1      -1.973  13.058  21.457  0.00  0.00    +0.000 Cl
ATOM     19  C   UNL     1      -1.444  11.024  23.227  0.00  0.00    +0.000 A 
ATOM     20  N   UNL     1      -0.703   9.873  23.253  0.00  0.00    +0.000 N 
ATOM     21  C   UNL     1      -0.044   9.706  22.055  0.00  0.00    +0.000 A 
ATOM     22  C   UNL     1       0.781   8.663  21.620  0.00  0.00    +0.000 A 
ATOM     23  H   UNL     1      -0.659   9.224  24.025  0.00  0.00    +0.000 HD
ENDBRANCH  10  13
ENDBRANCH   1   9
BRANCH   1  24
ATOM     24  C   UNL     1       4.356   5.716  19.616  0.00  0.00    +0.000 C 
BRANCH  24  25
ATOM     25  O   UNL     1       5.229   4.610  19.348  0.00  0.00    +0.000 OA
BRANCH  25  26
ATOM     26  C   UNL     1       5.587   4.486  17.979  0.00  0.00    +0.000 C 
BRANCH  26  30
ATOM     27  N   UNL     1       6.638   5.294  14.608  0.00  0.00    +0.000 NA
ATOM     28  C   UNL     1       5.227   5.210  15.007  0.00  0.00    +0.000 C 
ATOM     29  C   UNL     1       4.878   6.118  16.192  0.00  0.00    +0.000 C 
ATOM     30  C   UNL     1       5.813   5.882  17.381  0.00  0.00    +0.000 C 
ATOM     31  C   UNL     1       7.252   6.095  16.898  0.00  0.00    +0.000 C 
ATOM     32  C   UNL     1       7.588   5.177  15.724  0.00  0.00    +0.000 C 
BRANCH  27  34
ATOM     33  C   UNL     1       5.847   3.609  12.865  0.00  0.00    +0.000 C 
ATOM     34  C   UNL     1       7.009   4.401  13.486  0.00  0.00    +0.000 C 
ATOM     35  C   UNL     1       7.760   5.166  12.389  0.00  0.00    +0.000 C 
ENDBRANCH  27  34
ENDBRANCH  26  30
ENDBRANCH  25  26
ENDBRANCH  24  25
ENDBRANCH   1  24
TORSDOF 8
ENDMDL
MODEL 2
REMARK VINA RESULT:      -8.4      1.899      3.186
REMARK  Name = 
REMARK  10 active torsions:
REMARK  status: ('A' for Active; 'I' for Inactive)
REMARK    1  A    between atoms: C_1  and  C_2
REMARK    2  A    between atoms: C_2  and  C_3
REMARK    3  A    between atoms: C_2  and  N_4
REMARK    4  A    between atoms: C_7  and  C_8
REMARK    5  A    between atoms: C_8  and  O_9
REMARK    6  A    between atoms: O_9  and  C_10
REMARK    7  A    between atoms: C_10  and  C_11
REMARK    8  A    between atoms: C_11  and  N_12
REMARK    9  A    between atoms: C_11  and  C_25
REMARK   10  A    between atoms: C_13  and  C_15
REMARK                            x       y       z     vdW  Elec       q    Type
REMARK                         _______ _______ _______ _____ _____    ______ ____
ROOT
ATOM      1  C   UNL     1       2.711   4.354  18.159  0.00  0.00    +0.000 C 
ENDROOT
BRANCH   1   2
ATOM      2  C   UNL     1       2.383   3.631  19.459  0.00  0.00    +0.000 A 
ATOM      3  C   UNL     1       1.064   3.623  19.954  0.00  0.00    +0.000 A 
ATOM      4  C   UNL     1       0.737   3.011  21.164  0.00  0.00    +0.000 A 
ATOM      5  C   UNL     1       1.729   2.394  21.917  0.00  0.00    +0.000 A 
ATOM      6  C   UNL     1       3.042   2.384  21.453  0.00  0.00    +0.000 A 
ATOM      7  C   UNL     1       3.370   2.997  20.235  0.00  0.00    +0.000 A 
ATOM      8 CL   UNL     1       5.029   2.936  19.748  0.00  0.00    +0.000 Cl
ENDBRANCH   1   2
BRANCH   1   9
ATOM      9  N   UNL     1       2.215   5.731  18.166  0.00  0.00    +0.000 N 
ATOM     10  C   UNL     1       2.798   6.725  18.923  0.00  0.00    +0.000 C 
ATOM     11  O   UNL     1       3.825   6.570  19.572  0.00  0.00    +0.000 OA
ATOM     12  H   UNL     1       1.432   5.949  17.565  0.00  0.00    +0.000 HD
BRANCH  10  13
ATOM     13  C   UNL     1       2.127   8.052  18.947  0.00  0.00    +0.000 A 
ATOM     14  C   UNL     1       2.059   8.872  17.817  0.00  0.00    +0.000 A 
ATOM     15  C   UNL     1       1.308  10.057  17.842  0.00  0.00    +0.000 A 
ATOM     16  C   UNL     1       0.607  10.417  19.013  0.00  0.00    +0.000 A 
ATOM     17  C   UNL     1      -0.271  11.480  19.370  0.00  0.00    +0.000 A 
ATOM     18 CL   UNL     1      -0.765  12.743  18.346  0.00  0.00    +0.000 Cl
ATOM     19  C   UNL     1      -0.662  11.290  20.675  0.00  0.00    +0.000 A 
ATOM     20  N   UNL     1      -0.057  10.150  21.130  0.00  0.00    +0.000 N 
ATOM     21  C   UNL     1       0.711   9.591  20.134  0.00  0.00    +0.000 A 
ATOM     22  C   UNL     1       1.463   8.410  20.132  0.00  0.00    +0.000 A 
ATOM     23  H   UNL     1      -0.171   9.756  22.053  0.00  0.00    +0.000 HD
ENDBRANCH  10  13
ENDBRANCH   1   9
BRANCH   1  24
ATOM     24  C   UNL     1       2.300   3.581  16.867  0.00  0.00    +0.000 C 
BRANCH  24  25
ATOM     25  O   UNL     1       3.395   3.278  15.991  0.00  0.00    +0.000 OA
BRANCH  25  26
ATOM     26  C   UNL     1       4.636   3.815  16.424  0.00  0.00    +0.000 C 
BRANCH  26  30
ATOM     27  N   UNL     1       7.295   6.262  16.681  0.00  0.00    +0.000 NA
ATOM     28  C   UNL     1       7.539   4.845  16.385  0.00  0.00    +0.000 C 
ATOM     29  C   UNL     1       6.758   4.338  15.166  0.00  0.00    +0.000 C 
ATOM     30  C   UNL     1       5.262   4.637  15.287  0.00  0.00    +0.000 C 
ATOM     31  C   UNL     1       5.097   6.147  15.488  0.00  0.00    +0.000 C 
ATOM     32  C   UNL     1       5.872   6.636  16.711  0.00  0.00    +0.000 C 
BRANCH  27  34
ATOM     33  C   UNL     1       7.972   8.292  18.068  0.00  0.00    +0.000 C 
ATOM     34  C   UNL     1       8.011   6.768  17.875  0.00  0.00    +0.000 C 
ATOM     35  C   UNL     1       7.527   6.071  19.153  0.00  0.00    +0.000 C 
ENDBRANCH  27  34
ENDBRANCH  26  30
ENDBRANCH  25  26
ENDBRANCH  24  25
ENDBRANCH   1  24
TORSDOF 8
ENDMDL
MODEL 3
REMARK VINA RESULT:      -8.1      1.246      1.699
REMARK  Name = 
REMARK  10 active torsions:
REMARK  status: ('A' for Active; 'I' for Inactive)
REMARK    1  A    between atoms: C_1  and  C_2
REMARK    2  A    between atoms: C_2  and  C_3
REMARK    3  A    between atoms: C_2  and  N_4
REMARK    4  A    between atoms: C_7  and  C_8
REMARK    5  A    between atoms: C_8  and  O_9
REMARK    6  A    between atoms: O_9  and  C_10
REMARK    7  A    between atoms: C_10  and  C_11
REMARK    8  A    between atoms: C_11  and  N_12
REMARK    9  A    between atoms: C_11  and  C_25
REMARK   10  A    between atoms: C_13  and  C_15
REMARK                            x       y       z     vdW  Elec       q    Type
REMARK                         _______ _______ _______ _____ _____    ______ ____
ROOT
ATOM      1  C   UNL     1       2.887   5.655  20.313  0.00  0.00    +0.000 C 
ENDROOT
BRANCH   1   2
ATOM      2  C   UNL     1       2.166   4.453  19.717  0.00  0.00    +0.000 A 
ATOM      3  C   UNL     1       1.803   4.446  18.356  0.00  0.00    +0.000 A 
ATOM      4  C   UNL     1       1.101   3.382  17.788  0.00  0.00    +0.000 A 
ATOM      5  C   UNL     1       0.736   2.296  18.575  0.00  0.00    +0.000 A 
ATOM      6  C   UNL     1       1.084   2.274  19.923  0.00  0.00    +0.000 A 
ATOM      7  C   UNL     1       1.791   3.342  20.493  0.00  0.00    +0.000 A 
ATOM      8 CL   UNL     1       2.169   3.222  22.178  0.00  0.00    +0.000 Cl
ENDBRANCH   1   2
BRANCH   1   9
ATOM      9  N   UNL     1       2.011   6.825  20.397  0.00  0.00    +0.000 N 
ATOM     10  C   UNL     1       2.012   7.821  19.446  0.00  0.00    +0.000 C 
ATOM     11  O   UNL     1       2.666   7.773  18.411  0.00  0.00    +0.000 OA
ATOM     12  H   UNL     1       1.367   6.871  21.174  0.00  0.00    +0.000 HD
BRANCH  10  13
ATOM     13  C   UNL     1       1.171   9.019  19.706  0.00  0.00    +0.000 A 
ATOM     14  C   UNL     1       0.718   9.347  20.988  0.00  0.00    +0.000 A 
ATOM     15  C   UNL     1       0.036  10.552  21.215  0.00  0.00    +0.000 A 
ATOM     16  C   UNL     1      -0.184  11.445  20.145  0.00  0.00    +0.000 A 
ATOM     17  C   UNL     1      -0.767  12.738  20.020  0.00  0.00    +0.000 A 
ATOM     18 CL   UNL     1      -1.427  13.654  21.291  0.00  0.00    +0.000 Cl
ATOM     19  C   UNL     1      -0.683  13.120  18.701  0.00  0.00    +0.000 A 
ATOM     20  N   UNL     1      -0.067  12.109  18.013  0.00  0.00    +0.000 N 
ATOM     21  C   UNL     1       0.259  11.082  18.871  0.00  0.00    +0.000 A 
ATOM     22  C   UNL     1       0.932   9.880  18.622  0.00  0.00    +0.000 A 
ATOM     23  H   UNL     1       0.142  12.116  17.026  0.00  0.00    +0.000 HD
ENDBRANCH  10  13
ENDBRANCH   1   9
BRANCH   1  24
ATOM     24  C   UNL     1       4.257   5.986  19.643  0.00  0.00    +0.000 C 
BRANCH  24  25
ATOM     25  O   UNL     1       5.046   4.833  19.318  0.00  0.00    +0.000 OA
BRANCH  25  26
ATOM     26  C   UNL     1       5.330   4.710  17.932  0.00  0.00    +0.000 C 
BRANCH  26  30
ATOM     27  N   UNL     1       6.739   5.397  14.666  0.00  0.00    +0.000 NA
ATOM     28  C   UNL     1       5.305   5.512  14.958  0.00  0.00    +0.000 C 
ATOM     29  C   UNL     1       5.000   6.447  16.135  0.00  0.00    +0.000 C 
ATOM     30  C   UNL     1       5.799   6.066  17.384  0.00  0.00    +0.000 C 
ATOM     31  C   UNL     1       7.286   6.074  17.013  0.00  0.00    +0.000 C 
ATOM     32  C   UNL     1       7.576   5.131  15.846  0.00  0.00    +0.000 C 
BRANCH  27  34
ATOM     33  C   UNL     1       5.886   3.630  13.038  0.00  0.00    +0.000 C 
ATOM     34  C   UNL     1       7.063   4.473  13.555  0.00  0.00    +0.000 C 
ATOM     35  C   UNL     1       7.722   5.215  12.386  0.00  0.00    +0.000 C 
ENDBRANCH  27  34
ENDBRANCH  26  30
ENDBRANCH  25  26
ENDBRANCH  24  25
ENDBRANCH   1  24
TORSDOF 8
ENDMDL
MODEL 4
REMARK VINA RESULT:      -8.0      3.106      3.847
REMARK  Name = 
REMARK  10 active torsions:
REMARK  status: ('A' for Active; 'I' for Inactive)
REMARK    1  A    between atoms: C_1  and  C_2
REMARK    2  A    between atoms: C_2  and  C_3
REMARK    3  A    between atoms: C_2  and  N_4
REMARK    4  A    between atoms: C_7  and  C_8
REMARK    5  A    between atoms: C_8  and  O_9
REMARK    6  A    between atoms: O_9  and  C_10
REMARK    7  A    between atoms: C_10  and  C_11
REMARK    8  A    between atoms: C_11  and  N_12
REMARK    9  A    between atoms: C_11  and  C_25
REMARK   10  A    between atoms: C_13  and  C_15
REMARK                            x       y       z     vdW  Elec       q    Type
REMARK                         _______ _______ _______ _____ _____    ______ ____
ROOT
ATOM      1  C   UNL     1       2.400   7.922  18.356  0.00  0.00    +0.000 C 
ENDROOT
BRANCH   1   2
ATOM      2  C   UNL     1       2.212   6.556  19.003  0.00  0.00    +0.000 A 
ATOM      3  C   UNL     1       2.295   5.384  18.225  0.00  0.00    +0.000 A 
ATOM      4  C   UNL     1       2.083   4.120  18.776  0.00  0.00    +0.000 A 
ATOM      5  C   UNL     1       1.772   3.997  20.125  0.00  0.00    +0.000 A 
ATOM      6  C   UNL     1       1.686   5.137  20.920  0.00  0.00    +0.000 A 
ATOM      7  C   UNL     1       1.902   6.407  20.367  0.00  0.00    +0.000 A 
ATOM      8 CL   UNL     1       1.764   7.762  21.435  0.00  0.00    +0.000 Cl
ENDBRANCH   1   2
BRANCH   1   9
ATOM      9  N   UNL     1       1.117   8.535  18.006  0.00  0.00    +0.000 N 
ATOM     10  C   UNL     1       0.660   9.690  18.604  0.00  0.00    +0.000 C 
ATOM     11  O   UNL     1       1.317  10.349  19.400  0.00  0.00    +0.000 OA
ATOM     12  H   UNL     1       0.574   8.097  17.275  0.00  0.00    +0.000 HD
BRANCH  10  13
ATOM     13  C   UNL     1      -0.712  10.144  18.257  0.00  0.00    +0.000 A 
ATOM     14  C   UNL     1      -1.436  11.019  19.073  0.00  0.00    +0.000 A 
ATOM     15  C   UNL     1      -2.674  11.526  18.651  0.00  0.00    +0.000 A 
ATOM     16  C   UNL     1      -3.187  11.161  17.388  0.00  0.00    +0.000 A 
ATOM     17  C   UNL     1      -4.342  11.513  16.633  0.00  0.00    +0.000 A 
ATOM     18 CL   UNL     1      -5.548  12.608  17.120  0.00  0.00    +0.000 Cl
ATOM     19  C   UNL     1      -4.296  10.833  15.438  0.00  0.00    +0.000 A 
ATOM     20  N   UNL     1      -3.154  10.077  15.433  0.00  0.00    +0.000 N 
ATOM     21  C   UNL     1      -2.454  10.268  16.603  0.00  0.00    +0.000 A 
ATOM     22  C   UNL     1      -1.222   9.743  17.010  0.00  0.00    +0.000 A 
ATOM     23  H   UNL     1      -2.851   9.481  14.677  0.00  0.00    +0.000 HD
ENDBRANCH  10  13
ENDBRANCH   1   9
BRANCH   1  24
ATOM     24  C   UNL     1       3.413   7.942  17.169  0.00  0.00    +0.000 C 
BRANCH  24  25
ATOM     25  O   UNL     1       4.664   7.301  17.454  0.00  0.00    +0.000 OA
BRANCH  25  26
ATOM     26  C   UNL     1       5.192   6.572  16.356  0.00  0.00    +0.000 C 
BRANCH  26  30
ATOM     27  N   UNL     1       6.444   3.833  14.342  0.00  0.00    +0.000 NA
ATOM     28  C   UNL     1       7.315   4.869  14.912  0.00  0.00    +0.000 C 
ATOM     29  C   UNL     1       7.171   5.011  16.432  0.00  0.00    +0.000 C 
ATOM     30  C   UNL     1       5.712   5.213  16.847  0.00  0.00    +0.000 C 
ATOM     31  C   UNL     1       4.899   4.034  16.301  0.00  0.00    +0.000 C 
ATOM     32  C   UNL     1       5.044   3.912  14.784  0.00  0.00    +0.000 C 
BRANCH  27  34
ATOM     33  C   UNL     1       5.199   3.522  12.139  0.00  0.00    +0.000 C 
ATOM     34  C   UNL     1       6.539   3.700  12.870  0.00  0.00    +0.000 C 
ATOM     35  C   UNL     1       7.315   4.870  12.252  0.00  0.00    +0.000 C 
ENDBRANCH  27  34
ENDBRANCH  26  30
ENDBRANCH  25  26
ENDBRANCH  24  25
ENDBRANCH   1  24
TORSDOF 8
ENDMDL
MODEL 5
REMARK VINA RESULT:      -8.0      1.516      2.032
REMARK  Name = 
REMARK  10 active torsions:
REMARK  status: ('A' for Active; 'I' for Inactive)
REMARK    1  A    between atoms: C_1  and  C_2
REMARK    2  A    between atoms: C_2  and  C_3
REMARK    3  A    between atoms: C_2  and  N_4
REMARK    4  A    between atoms: C_7  and  C_8
REMARK    5  A    between atoms: C_8  and  O_9
REMARK    6  A    between atoms: O_9  and  C_10
REMARK    7  A    between atoms: C_10  and  C_11
REMARK    8  A    between atoms: C_11  and  N_12
REMARK    9  A    between atoms: C_11  and  C_25
REMARK   10  A    between atoms: C_13  and  C_15
REMARK                            x       y       z     vdW  Elec       q    Type
REMARK                         _______ _______ _______ _____ _____    ______ ____
ROOT
ATOM      1  C   UNL     1       3.184   6.304  19.224  0.00  0.00    +0.000 C 
ENDROOT
BRANCH   1   2
ATOM      2  C   UNL     1       2.732   4.914  19.652  0.00  0.00    +0.000 A 
ATOM      3  C   UNL     1       1.379   4.670  19.960  0.00  0.00    +0.000 A 
ATOM      4  C   UNL     1       0.939   3.422  20.400  0.00  0.00    +0.000 A 
ATOM      5  C   UNL     1       1.848   2.381  20.550  0.00  0.00    +0.000 A 
ATOM      6  C   UNL     1       3.192   2.591  20.250  0.00  0.00    +0.000 A 
ATOM      7  C   UNL     1       3.634   3.846  19.806  0.00  0.00    +0.000 A 
ATOM      8 CL   UNL     1       5.323   4.008  19.467  0.00  0.00    +0.000 Cl
ENDBRANCH   1   2
BRANCH   1   9
ATOM      9  N   UNL     1       2.320   7.348  19.780  0.00  0.00    +0.000 N 
ATOM     10  C   UNL     1       1.757   8.336  19.001  0.00  0.00    +0.000 C 
ATOM     11  O   UNL     1       1.848   8.374  17.780  0.00  0.00    +0.000 OA
ATOM     12  H   UNL     1       2.118   7.309  20.768  0.00  0.00    +0.000 HD
BRANCH  10  13
ATOM     13  C   UNL     1       1.005   9.413  19.698  0.00  0.00    +0.000 A 
ATOM     14  C   UNL     1       0.530  10.543  19.027  0.00  0.00    +0.000 A 
ATOM     15  C   UNL     1      -0.285  11.474  19.689  0.00  0.00    +0.000 A 
ATOM     16  C   UNL     1      -0.638  11.260  21.039  0.00  0.00    +0.000 A 
ATOM     17  C   UNL     1      -1.465  11.938  21.980  0.00  0.00    +0.000 A 
ATOM     18 CL   UNL     1      -2.354  13.355  21.677  0.00  0.00    +0.000 Cl
ATOM     19  C   UNL     1      -1.433  11.234  23.161  0.00  0.00    +0.000 A 
ATOM     20  N   UNL     1      -0.618  10.149  22.979  0.00  0.00    +0.000 N 
ATOM     21  C   UNL     1      -0.131  10.134  21.691  0.00  0.00    +0.000 A 
ATOM     22  C   UNL     1       0.692   9.200  21.051  0.00  0.00    +0.000 A 
ATOM     23  H   UNL     1      -0.416   9.447  23.674  0.00  0.00    +0.000 HD
ENDBRANCH  10  13
ENDBRANCH   1   9
BRANCH   1  24
ATOM     24  C   UNL     1       3.403   6.470  17.688  0.00  0.00    +0.000 C 
BRANCH  24  25
ATOM     25  O   UNL     1       4.727   6.885  17.325  0.00  0.00    +0.000 OA
BRANCH  25  26
ATOM     26  C   UNL     1       5.191   6.311  16.112  0.00  0.00    +0.000 C 
BRANCH  26  30
ATOM     27  N   UNL     1       6.385   3.828  13.759  0.00  0.00    +0.000 NA
ATOM     28  C   UNL     1       7.190   4.981  14.181  0.00  0.00    +0.000 C 
ATOM     29  C   UNL     1       7.354   5.081  15.703  0.00  0.00    +0.000 C 
ATOM     30  C   UNL     1       6.004   5.045  16.422  0.00  0.00    +0.000 C 
ATOM     31  C   UNL     1       5.281   3.760  16.005  0.00  0.00    +0.000 C 
ATOM     32  C   UNL     1       5.116   3.680  14.488  0.00  0.00    +0.000 C 
BRANCH  27  34
ATOM     33  C   UNL     1       7.105   2.735  11.571  0.00  0.00    +0.000 C 
ATOM     34  C   UNL     1       6.183   3.728  12.296  0.00  0.00    +0.000 C 
ATOM     35  C   UNL     1       4.719   3.421  11.954  0.00  0.00    +0.000 C 
ENDBRANCH  27  34
ENDBRANCH  26  30
ENDBRANCH  25  26
ENDBRANCH  24  25
ENDBRANCH   1  24
TORSDOF 8
ENDMDL
MODEL 6
REMARK VINA RESULT:      -8.0      2.091      2.677
REMARK  Name = 
REMARK  10 active torsions:
REMARK  status: ('A' for Active; 'I' for Inactive)
REMARK    1  A    between atoms: C_1  and  C_2
REMARK    2  A    between atoms: C_2  and  C_3
REMARK    3  A    between atoms: C_2  and  N_4
REMARK    4  A    between atoms: C_7  and  C_8
REMARK    5  A    between atoms: C_8  and  O_9
REMARK    6  A    between atoms: O_9  and  C_10
REMARK    7  A    between atoms: C_10  and  C_11
REMARK    8  A    between atoms: C_11  and  N_12
REMARK    9  A    between atoms: C_11  and  C_25
REMARK   10  A    between atoms: C_13  and  C_15
REMARK                            x       y       z     vdW  Elec       q    Type
REMARK                         _______ _______ _______ _____ _____    ______ ____
ROOT
ATOM      1  C   UNL     1       2.984   6.416  19.709  0.00  0.00    +0.000 C 
ENDROOT
BRANCH   1   2
ATOM      2  C   UNL     1       2.314   5.083  20.019  0.00  0.00    +0.000 A 
ATOM      3  C   UNL     1       2.382   4.540  21.318  0.00  0.00    +0.000 A 
ATOM      4  C   UNL     1       1.820   3.301  21.626  0.00  0.00    +0.000 A 
ATOM      5  C   UNL     1       1.179   2.566  20.636  0.00  0.00    +0.000 A 
ATOM      6  C   UNL     1       1.094   3.078  19.343  0.00  0.00    +0.000 A 
ATOM      7  C   UNL     1       1.657   4.325  19.034  0.00  0.00    +0.000 A 
ATOM      8 CL   UNL     1       1.505   4.871  17.399  0.00  0.00    +0.000 Cl
ENDBRANCH   1   2
BRANCH   1   9
ATOM      9  N   UNL     1       2.024   7.397  19.200  0.00  0.00    +0.000 N 
ATOM     10  C   UNL     1       1.559   8.444  19.967  0.00  0.00    +0.000 C 
ATOM     11  O   UNL     1       1.971   8.699  21.091  0.00  0.00    +0.000 OA
ATOM     12  H   UNL     1       1.726   7.305  18.240  0.00  0.00    +0.000 HD
BRANCH  10  13
ATOM     13  C   UNL     1       0.491   9.299  19.383  0.00  0.00    +0.000 A 
ATOM     14  C   UNL     1       0.028   9.124  18.076  0.00  0.00    +0.000 A 
ATOM     15  C   UNL     1      -1.067   9.863  17.604  0.00  0.00    +0.000 A 
ATOM     16  C   UNL     1      -1.713  10.782  18.459  0.00  0.00    +0.000 A 
ATOM     17  C   UNL     1      -2.849  11.633  18.344  0.00  0.00    +0.000 A 
ATOM     18 CL   UNL     1      -3.847  11.773  16.975  0.00  0.00    +0.000 Cl
ATOM     19  C   UNL     1      -3.006  12.300  19.537  0.00  0.00    +0.000 A 
ATOM     20  N   UNL     1      -2.009  11.888  20.379  0.00  0.00    +0.000 N 
ATOM     21  C   UNL     1      -1.215  10.954  19.752  0.00  0.00    +0.000 A 
ATOM     22  C   UNL     1      -0.117  10.233  20.238  0.00  0.00    +0.000 A 
ATOM     23  H   UNL     1      -1.880  12.200  21.330  0.00  0.00    +0.000 HD
ENDBRANCH  10  13
ENDBRANCH   1   9
BRANCH   1  24
ATOM     24  C   UNL     1       4.256   6.307  18.812  0.00  0.00    +0.000 C 
BRANCH  24  25
ATOM     25  O   UNL     1       4.146   6.984  17.552  0.00  0.00    +0.000 OA
BRANCH  25  26
ATOM     26  C   UNL     1       4.977   6.438  16.538  0.00  0.00    +0.000 C 
BRANCH  26  30
ATOM     27  N   UNL     1       6.484   3.859  14.489  0.00  0.00    +0.000 NA
ATOM     28  C   UNL     1       7.267   4.899  15.169  0.00  0.00    +0.000 C 
ATOM     29  C   UNL     1       7.012   4.957  16.680  0.00  0.00    +0.000 C 
ATOM     30  C   UNL     1       5.521   5.078  16.999  0.00  0.00    +0.000 C 
ATOM     31  C   UNL     1       4.800   3.897  16.340  0.00  0.00    +0.000 C 
ATOM     32  C   UNL     1       5.055   3.858  14.834  0.00  0.00    +0.000 C 
BRANCH  27  34
ATOM     33  C   UNL     1       5.422   3.528  12.195  0.00  0.00    +0.000 C 
ATOM     34  C   UNL     1       6.687   3.805  13.023  0.00  0.00    +0.000 C 
ATOM     35  C   UNL     1       7.376   5.074  12.507  0.00  0.00    +0.000 C 
ENDBRANCH  27  34
ENDBRANCH  26  30
ENDBRANCH  25  26
ENDBRANCH  24  25
ENDBRANCH   1  24
TORSDOF 8
ENDMDL
MODEL 7
REMARK VINA RESULT:      -8.0      2.937     10.612
REMARK  Name = 
REMARK  10 active torsions:
REMARK  status: ('A' for Active; 'I' for Inactive)
REMARK    1  A    between atoms: C_1  and  C_2
REMARK    2  A    between atoms: C_2  and  C_3
REMARK    3  A    between atoms: C_2  and  N_4
REMARK    4  A    between atoms: C_7  and  C_8
REMARK    5  A    between atoms: C_8  and  O_9
REMARK    6  A    between atoms: O_9  and  C_10
REMARK    7  A    between atoms: C_10  and  C_11
REMARK    8  A    between atoms: C_11  and  N_12
REMARK    9  A    between atoms: C_11  and  C_25
REMARK   10  A    between atoms: C_13  and  C_15
REMARK                            x       y       z     vdW  Elec       q    Type
REMARK                         _______ _______ _______ _____ _____    ______ ____
ROOT
ATOM      1  C   UNL     1       0.803  10.611  19.524  0.00  0.00    +0.000 C 
ENDROOT
BRANCH   1   2
ATOM      2  C   UNL     1      -0.507  10.714  18.753  0.00  0.00    +0.000 A 
ATOM      3  C   UNL     1      -1.306   9.570  18.557  0.00  0.00    +0.000 A 
ATOM      4  C   UNL     1      -2.488   9.618  17.817  0.00  0.00    +0.000 A 
ATOM      5  C   UNL     1      -2.898  10.816  17.245  0.00  0.00    +0.000 A 
ATOM      6  C   UNL     1      -2.130  11.964  17.425  0.00  0.00    +0.000 A 
ATOM      7  C   UNL     1      -0.944  11.917  18.171  0.00  0.00    +0.000 A 
ATOM      8 CL   UNL     1      -0.057  13.394  18.329  0.00  0.00    +0.000 Cl
ENDBRANCH   1   2
BRANCH   1   9
ATOM      9  N   UNL     1       1.400   9.280  19.402  0.00  0.00    +0.000 N 
ATOM     10  C   UNL     1       2.135   8.896  18.301  0.00  0.00    +0.000 C 
ATOM     11  O   UNL     1       2.433   9.652  17.385  0.00  0.00    +0.000 OA
ATOM     12  H   UNL     1       1.281   8.642  20.176  0.00  0.00    +0.000 HD
BRANCH  10  13
ATOM     13  C   UNL     1       2.581   7.479  18.235  0.00  0.00    +0.000 A 
ATOM     14  C   UNL     1       1.860   6.443  18.838  0.00  0.00    +0.000 A 
ATOM     15  C   UNL     1       2.241   5.106  18.645  0.00  0.00    +0.000 A 
ATOM     16  C   UNL     1       3.352   4.805  17.828  0.00  0.00    +0.000 A 
ATOM     17  C   UNL     1       3.970   3.604  17.378  0.00  0.00    +0.000 A 
ATOM     18 CL   UNL     1       3.460   2.026  17.753  0.00  0.00    +0.000 Cl
ATOM     19  C   UNL     1       5.032   3.946  16.573  0.00  0.00    +0.000 A 
ATOM     20  N   UNL     1       5.087   5.312  16.512  0.00  0.00    +0.000 N 
ATOM     21  C   UNL     1       4.066   5.860  17.258  0.00  0.00    +0.000 A 
ATOM     22  C   UNL     1       3.709   7.200  17.446  0.00  0.00    +0.000 A 
ATOM     23  H   UNL     1       5.758   5.848  15.983  0.00  0.00    +0.000 HD
ENDBRANCH  10  13
ENDBRANCH   1   9
BRANCH   1  24
ATOM     24  C   UNL     1       0.722  11.093  21.006  0.00  0.00    +0.000 C 
BRANCH  24  25
ATOM     25  O   UNL     1      -0.399  10.570  21.733  0.00  0.00    +0.000 OA
BRANCH  25  26
ATOM     26  C   UNL     1      -0.932  11.477  22.687  0.00  0.00    +0.000 C 
BRANCH  26  30
ATOM     27  N   UNL     1      -3.793  13.659  23.106  0.00  0.00    +0.000 NA
ATOM     28  C   UNL     1      -2.573  13.777  23.915  0.00  0.00    +0.000 C 
ATOM     29  C   UNL     1      -1.302  13.941  23.072  0.00  0.00    +0.000 C 
ATOM     30  C   UNL     1      -1.174  12.839  22.019  0.00  0.00    +0.000 C 
ATOM     31  C   UNL     1      -2.441  12.860  21.157  0.00  0.00    +0.000 C 
ATOM     32  C   UNL     1      -3.698  12.685  22.008  0.00  0.00    +0.000 C 
BRANCH  27  34
ATOM     33  C   UNL     1      -6.309  13.250  23.069  0.00  0.00    +0.000 C 
ATOM     34  C   UNL     1      -5.031  13.465  23.894  0.00  0.00    +0.000 C 
ATOM     35  C   UNL     1      -4.873  12.327  24.910  0.00  0.00    +0.000 C 
ENDBRANCH  27  34
ENDBRANCH  26  30
ENDBRANCH  25  26
ENDBRANCH  24  25
ENDBRANCH   1  24
TORSDOF 8
ENDMDL
MODEL 8
REMARK VINA RESULT:      -7.9      3.452     10.678
REMARK  Name = 
REMARK  10 active torsions:
REMARK  status: ('A' for Active; 'I' for Inactive)
REMARK    1  A    between atoms: C_1  and  C_2
REMARK    2  A    between atoms: C_2  and  C_3
REMARK    3  A    between atoms: C_2  and  N_4
REMARK    4  A    between atoms: C_7  and  C_8
REMARK    5  A    between atoms: C_8  and  O_9
REMARK    6  A    between atoms: O_9  and  C_10
REMARK    7  A    between atoms: C_10  and  C_11
REMARK    8  A    between atoms: C_11  and  N_12
REMARK    9  A    between atoms: C_11  and  C_25
REMARK   10  A    between atoms: C_13  and  C_15
REMARK                            x       y       z     vdW  Elec       q    Type
REMARK                         _______ _______ _______ _____ _____    ______ ____
ROOT
ATOM      1  C   UNL     1       0.865   9.829  21.211  0.00  0.00    +0.000 C 
ENDROOT
BRANCH   1   2
ATOM      2  C   UNL     1       0.069  10.527  20.116  0.00  0.00    +0.000 A 
ATOM      3  C   UNL     1      -1.037   9.886  19.524  0.00  0.00    +0.000 A 
ATOM      4  C   UNL     1      -1.760  10.476  18.487  0.00  0.00    +0.000 A 
ATOM      5  C   UNL     1      -1.389  11.726  18.009  0.00  0.00    +0.000 A 
ATOM      6  C   UNL     1      -0.301  12.386  18.577  0.00  0.00    +0.000 A 
ATOM      7  C   UNL     1       0.424  11.794  19.621  0.00  0.00    +0.000 A 
ATOM      8 CL   UNL     1       1.763  12.691  20.253  0.00  0.00    +0.000 Cl
ENDBRANCH   1   2
BRANCH   1   9
ATOM      9  N   UNL     1       1.207   8.455  20.839  0.00  0.00    +0.000 N 
ATOM     10  C   UNL     1       1.873   8.147  19.673  0.00  0.00    +0.000 C 
ATOM     11  O   UNL     1       2.317   8.988  18.901  0.00  0.00    +0.000 OA
ATOM     12  H   UNL     1       0.962   7.721  21.489  0.00  0.00    +0.000 HD
BRANCH  10  13
ATOM     13  C   UNL     1       2.049   6.708  19.343  0.00  0.00    +0.000 A 
ATOM     14  C   UNL     1       2.730   6.284  18.199  0.00  0.00    +0.000 A 
ATOM     15  C   UNL     1       2.988   4.920  17.988  0.00  0.00    +0.000 A 
ATOM     16  C   UNL     1       2.567   3.972  18.945  0.00  0.00    +0.000 A 
ATOM     17  C   UNL     1       2.701   2.562  19.086  0.00  0.00    +0.000 A 
ATOM     18 CL   UNL     1       3.510   1.530  18.004  0.00  0.00    +0.000 Cl
ATOM     19  C   UNL     1       2.083   2.189  20.257  0.00  0.00    +0.000 A 
ATOM     20  N   UNL     1       1.577   3.319  20.840  0.00  0.00    +0.000 N 
ATOM     21  C   UNL     1       1.869   4.421  20.067  0.00  0.00    +0.000 A 
ATOM     22  C   UNL     1       1.593   5.775  20.290  0.00  0.00    +0.000 A 
ATOM     23  H   UNL     1       1.080   3.353  21.717  0.00  0.00    +0.000 HD
ENDBRANCH  10  13
ENDBRANCH   1   9
BRANCH   1  24
ATOM     24  C   UNL     1       0.228   9.920  22.633  0.00  0.00    +0.000 C 
BRANCH  24  25
ATOM     25  O   UNL     1      -0.244  11.228  22.983  0.00  0.00    +0.000 OA
BRANCH  25  26
ATOM     26  C   UNL     1      -1.645  11.286  23.210  0.00  0.00    +0.000 C 
BRANCH  26  30
ATOM     27  N   UNL     1      -2.871  14.609  23.969  0.00  0.00    +0.000 NA
ATOM     28  C   UNL     1      -1.504  14.349  23.501  0.00  0.00    +0.000 C 
ATOM     29  C   UNL     1      -1.454  13.578  22.176  0.00  0.00    +0.000 C 
ATOM     30  C   UNL     1      -2.280  12.291  22.238  0.00  0.00    +0.000 C 
ATOM     31  C   UNL     1      -3.713  12.669  22.629  0.00  0.00    +0.000 C 
ATOM     32  C   UNL     1      -3.748  13.428  23.955  0.00  0.00    +0.000 C 
BRANCH  27  34
ATOM     33  C   UNL     1      -1.604  15.526  25.982  0.00  0.00    +0.000 C 
ATOM     34  C   UNL     1      -2.947  15.322  25.264  0.00  0.00    +0.000 C 
ATOM     35  C   UNL     1      -3.666  16.670  25.118  0.00  0.00    +0.000 C 
ENDBRANCH  27  34
ENDBRANCH  26  30
ENDBRANCH  25  26
ENDBRANCH  24  25
ENDBRANCH   1  24
TORSDOF 8
ENDMDL
MODEL 9
REMARK VINA RESULT:      -7.8      3.195     10.248
REMARK  Name = 
REMARK  10 active torsions:
REMARK  status: ('A' for Active; 'I' for Inactive)
REMARK    1  A    between atoms: C_1  and  C_2
REMARK    2  A    between atoms: C_2  and  C_3
REMARK    3  A    between atoms: C_2  and  N_4
REMARK    4  A    between atoms: C_7  and  C_8
REMARK    5  A    between atoms: C_8  and  O_9
REMARK    6  A    between atoms: O_9  and  C_10
REMARK    7  A    between atoms: C_10  and  C_11
REMARK    8  A    between atoms: C_11  and  N_12
REMARK    9  A    between atoms: C_11  and  C_25
REMARK   10  A    between atoms: C_13  and  C_15
REMARK                            x       y       z     vdW  Elec       q    Type
REMARK                         _______ _______ _______ _____ _____    ______ ____
ROOT
ATOM      1  C   UNL     1       0.704  10.031  20.256  0.00  0.00    +0.000 C 
ENDROOT
BRANCH   1   2
ATOM      2  C   UNL     1      -0.337  10.579  19.289  0.00  0.00    +0.000 A 
ATOM      3  C   UNL     1      -1.411   9.769  18.869  0.00  0.00    +0.000 A 
ATOM      4  C   UNL     1      -2.357  10.222  17.948  0.00  0.00    +0.000 A 
ATOM      5  C   UNL     1      -2.247  11.501  17.416  0.00  0.00    +0.000 A 
ATOM      6  C   UNL     1      -1.198  12.325  17.814  0.00  0.00    +0.000 A 
ATOM      7  C   UNL     1      -0.248  11.871  18.741  0.00  0.00    +0.000 A 
ATOM      8 CL   UNL     1       1.021  12.968  19.166  0.00  0.00    +0.000 Cl
ENDBRANCH   1   2
BRANCH   1   9
ATOM      9  N   UNL     1       1.432   8.898  19.683  0.00  0.00    +0.000 N 
ATOM     10  C   UNL     1       2.172   9.003  18.525  0.00  0.00    +0.000 C 
ATOM     11  O   UNL     1       2.363  10.058  17.933  0.00  0.00    +0.000 OA
ATOM     12  H   UNL     1       1.403   8.022  20.185  0.00  0.00    +0.000 HD
BRANCH  10  13
ATOM     13  C   UNL     1       2.761   7.754  17.972  0.00  0.00    +0.000 A 
ATOM     14  C   UNL     1       3.916   7.761  17.185  0.00  0.00    +0.000 A 
ATOM     15  C   UNL     1       4.514   6.554  16.790  0.00  0.00    +0.000 A 
ATOM     16  C   UNL     1       3.952   5.326  17.199  0.00  0.00    +0.000 A 
ATOM     17  C   UNL     1       4.308   3.957  17.041  0.00  0.00    +0.000 A 
ATOM     18 CL   UNL     1       5.678   3.378  16.218  0.00  0.00    +0.000 Cl
ATOM     19  C   UNL     1       3.364   3.192  17.686  0.00  0.00    +0.000 A 
ATOM     20  N   UNL     1       2.443   4.043  18.236  0.00  0.00    +0.000 N 
ATOM     21  C   UNL     1       2.785   5.349  17.965  0.00  0.00    +0.000 A 
ATOM     22  C   UNL     1       2.167   6.542  18.361  0.00  0.00    +0.000 A 
ATOM     23  H   UNL     1       1.641   3.764  18.781  0.00  0.00    +0.000 HD
ENDBRANCH  10  13
ENDBRANCH   1   9
BRANCH   1  24
ATOM     24  C   UNL     1       0.161   9.727  21.687  0.00  0.00    +0.000 C 
BRANCH  24  25
ATOM     25  O   UNL     1       0.052  10.881  22.532  0.00  0.00    +0.000 OA
BRANCH  25  26
ATOM     26  C   UNL     1      -1.281  11.181  22.916  0.00  0.00    +0.000 C 
BRANCH  26  30
ATOM     27  N   UNL     1      -4.206  13.026  21.836  0.00  0.00    +0.000 NA
ATOM     28  C   UNL     1      -3.997  12.602  23.227  0.00  0.00    +0.000 C 
ATOM     29  C   UNL     1      -2.666  13.088  23.814  0.00  0.00    +0.000 C 
ATOM     30  C   UNL     1      -1.480  12.704  22.926  0.00  0.00    +0.000 C 
ATOM     31  C   UNL     1      -1.734  13.277  21.527  0.00  0.00    +0.000 C 
ATOM     32  C   UNL     1      -3.058  12.776  20.951  0.00  0.00    +0.000 C 
BRANCH  27  34
ATOM     33  C   UNL     1      -6.669  13.491  21.372  0.00  0.00    +0.000 C 
ATOM     34  C   UNL     1      -5.469  12.541  21.235  0.00  0.00    +0.000 C 
ATOM     35  C   UNL     1      -5.275  12.161  19.761  0.00  0.00    +0.000 C 
ENDBRANCH  27  34
ENDBRANCH  26  30
ENDBRANCH  25  26
ENDBRANCH  24  25
ENDBRANCH   1  24
TORSDOF 8
ENDMDL
