MODEL 1
REMARK VINA RESULT:      -6.6      0.000      0.000
REMARK  Name = 
REMARK  2 active torsions:
REMARK  status: ('A' for Active; 'I' for Inactive)
REMARK    1  A    between atoms: C_2  and  C_3
REMARK    2  A    between atoms: C_6  and  C_7
REMARK                            x       y       z     vdW  Elec       q    Type
REMARK                         _______ _______ _______ _____ _____    ______ ____
ROOT
ATOM      1  C   UNL     1       4.006   3.443  18.766  0.00  0.00    +0.000 C 
ATOM      2  C   UNL     1       3.163   2.222  18.333  0.00  0.00    +0.000 C 
ATOM      3  C   UNL     1       2.123   1.870  19.400  0.00  0.00    +0.000 C 
ATOM      4  C   UNL     1       1.150   3.032  19.617  0.00  0.00    +0.000 C 
ATOM      5  C   UNL     1       1.862   4.331  19.728  0.00  0.00    +0.000 A 
ATOM      6  C   UNL     1       1.474   5.568  20.191  0.00  0.00    +0.000 A 
ATOM      7  N   UNL     1       2.501   6.471  20.092  0.00  0.00    +0.000 NA
ATOM      8  C   UNL     1       3.505   5.802  19.570  0.00  0.00    +0.000 A 
ATOM      9  N   UNL     1       3.157   4.509  19.301  0.00  0.00    +0.000 N 
ENDROOT
BRANCH   1  13
ATOM     10  C   UNL     1       6.523   4.788  15.504  0.00  0.00    +0.000 A 
ATOM     11  C   UNL     1       7.035   4.729  16.801  0.00  0.00    +0.000 A 
ATOM     12  C   UNL     1       6.224   4.304  17.855  0.00  0.00    +0.000 A 
ATOM     13  C   UNL     1       4.887   3.938  17.630  0.00  0.00    +0.000 A 
ATOM     14  C   UNL     1       4.378   4.013  16.323  0.00  0.00    +0.000 A 
ATOM     15  C   UNL     1       5.192   4.431  15.266  0.00  0.00    +0.000 A 
BRANCH  10  17
ATOM     16  N   UNL     1       8.042   5.523  13.536  0.00  0.00    +0.000 NA
ATOM     17  C   UNL     1       7.363   5.196  14.417  0.00  0.00    +0.000 C 
ENDBRANCH  10  17
ENDBRANCH   1  13
TORSDOF 2
ENDMDL
MODEL 2
REMARK VINA RESULT:      -6.6      0.921      1.477
REMARK  Name = 
REMARK  2 active torsions:
REMARK  status: ('A' for Active; 'I' for Inactive)
REMARK    1  A    between atoms: C_2  and  C_3
REMARK    2  A    between atoms: C_6  and  C_7
REMARK                            x       y       z     vdW  Elec       q    Type
REMARK                         _______ _______ _______ _____ _____    ______ ____
ROOT
ATOM      1  C   UNL     1       4.422   4.011  19.593  0.00  0.00    +0.000 C 
ATOM      2  C   UNL     1       3.899   2.566  19.749  0.00  0.00    +0.000 C 
ATOM      3  C   UNL     1       3.030   2.431  21.002  0.00  0.00    +0.000 C 
ATOM      4  C   UNL     1       1.804   3.344  20.915  0.00  0.00    +0.000 C 
ATOM      5  C   UNL     1       2.166   4.708  20.452  0.00  0.00    +0.000 A 
ATOM      6  C   UNL     1       1.497   5.911  20.487  0.00  0.00    +0.000 A 
ATOM      7  N   UNL     1       2.256   6.908  19.929  0.00  0.00    +0.000 NA
ATOM      8  C   UNL     1       3.374   6.327  19.552  0.00  0.00    +0.000 A 
ATOM      9  N   UNL     1       3.354   4.988  19.818  0.00  0.00    +0.000 N 
ENDROOT
BRANCH   1  13
ATOM     10  C   UNL     1       6.343   4.659  15.762  0.00  0.00    +0.000 A 
ATOM     11  C   UNL     1       5.029   4.192  15.813  0.00  0.00    +0.000 A 
ATOM     12  C   UNL     1       4.410   3.975  17.045  0.00  0.00    +0.000 A 
ATOM     13  C   UNL     1       5.098   4.214  18.246  0.00  0.00    +0.000 A 
ATOM     14  C   UNL     1       6.425   4.671  18.184  0.00  0.00    +0.000 A 
ATOM     15  C   UNL     1       7.042   4.895  16.949  0.00  0.00    +0.000 A 
BRANCH  10  17
ATOM     16  N   UNL     1       7.472   5.114  13.473  0.00  0.00    +0.000 NA
ATOM     17  C   UNL     1       6.969   4.910  14.498  0.00  0.00    +0.000 C 
ENDBRANCH  10  17
ENDBRANCH   1  13
TORSDOF 2
ENDMDL
MODEL 3
REMARK VINA RESULT:      -6.4      2.901      5.926
REMARK  Name = 
REMARK  2 active torsions:
REMARK  status: ('A' for Active; 'I' for Inactive)
REMARK    1  A    between atoms: C_2  and  C_3
REMARK    2  A    between atoms: C_6  and  C_7
REMARK                            x       y       z     vdW  Elec       q    Type
REMARK                         _______ _______ _______ _____ _____    ______ ____
ROOT
ATOM      1  C   UNL     1       3.634   5.943  18.682  0.00  0.00    +0.000 C 
ATOM      2  C   UNL     1       4.842   6.234  17.764  0.00  0.00    +0.000 C 
ATOM      3  C   UNL     1       5.619   4.951  17.459  0.00  0.00    +0.000 C 
ATOM      4  C   UNL     1       4.733   3.939  16.727  0.00  0.00    +0.000 C 
ATOM      5  C   UNL     1       3.395   3.820  17.361  0.00  0.00    +0.000 A 
ATOM      6  C   UNL     1       2.395   2.879  17.253  0.00  0.00    +0.000 A 
ATOM      7  N   UNL     1       1.329   3.208  18.052  0.00  0.00    +0.000 NA
ATOM      8  C   UNL     1       1.665   4.335  18.638  0.00  0.00    +0.000 A 
ATOM      9  N   UNL     1       2.895   4.764  18.226  0.00  0.00    +0.000 N 
ENDROOT
BRANCH   1  13
ATOM     10  C   UNL     1       1.119   9.454  19.057  0.00  0.00    +0.000 A 
ATOM     11  C   UNL     1       1.301   8.606  20.151  0.00  0.00    +0.000 A 
ATOM     12  C   UNL     1       2.104   7.471  20.031  0.00  0.00    +0.000 A 
ATOM     13  C   UNL     1       2.731   7.160  18.813  0.00  0.00    +0.000 A 
ATOM     14  C   UNL     1       2.532   8.012  17.714  0.00  0.00    +0.000 A 
ATOM     15  C   UNL     1       1.734   9.154  17.837  0.00  0.00    +0.000 A 
BRANCH  10  17
ATOM     16  N   UNL     1      -0.329  11.592  19.290  0.00  0.00    +0.000 NA
ATOM     17  C   UNL     1       0.320  10.635  19.187  0.00  0.00    +0.000 C 
ENDBRANCH  10  17
ENDBRANCH   1  13
TORSDOF 2
ENDMDL
MODEL 4
REMARK VINA RESULT:      -6.4      2.970      5.633
REMARK  Name = 
REMARK  2 active torsions:
REMARK  status: ('A' for Active; 'I' for Inactive)
REMARK    1  A    between atoms: C_2  and  C_3
REMARK    2  A    between atoms: C_6  and  C_7
REMARK                            x       y       z     vdW  Elec       q    Type
REMARK                         _______ _______ _______ _____ _____    ______ ____
ROOT
ATOM      1  C   UNL     1       3.256   5.578  19.685  0.00  0.00    +0.000 C 
ATOM      2  C   UNL     1       4.491   5.477  18.763  0.00  0.00    +0.000 C 
ATOM      3  C   UNL     1       5.113   4.080  18.832  0.00  0.00    +0.000 C 
ATOM      4  C   UNL     1       4.116   3.016  18.365  0.00  0.00    +0.000 C 
ATOM      5  C   UNL     1       2.772   3.221  18.964  0.00  0.00    +0.000 A 
ATOM      6  C   UNL     1       1.669   2.404  19.077  0.00  0.00    +0.000 A 
ATOM      7  N   UNL     1       0.648   3.050  19.725  0.00  0.00    +0.000 NA
ATOM      8  C   UNL     1       1.113   4.248  20.003  0.00  0.00    +0.000 A 
ATOM      9  N   UNL     1       2.385   4.410  19.534  0.00  0.00    +0.000 N 
ENDROOT
BRANCH   1  13
ATOM     10  C   UNL     1       1.168   9.322  19.043  0.00  0.00    +0.000 A 
ATOM     11  C   UNL     1       1.190   8.745  20.314  0.00  0.00    +0.000 A 
ATOM     12  C   UNL     1       1.855   7.535  20.522  0.00  0.00    +0.000 A 
ATOM     13  C   UNL     1       2.502   6.879  19.462  0.00  0.00    +0.000 A 
ATOM     14  C   UNL     1       2.463   7.462  18.184  0.00  0.00    +0.000 A 
ATOM     15  C   UNL     1       1.803   8.677  17.978  0.00  0.00    +0.000 A 
BRANCH  10  17
ATOM     16  N   UNL     1      -0.021  11.594  18.664  0.00  0.00    +0.000 NA
ATOM     17  C   UNL     1       0.512  10.578  18.835  0.00  0.00    +0.000 C 
ENDBRANCH  10  17
ENDBRANCH   1  13
TORSDOF 2
ENDMDL
MODEL 5
REMARK VINA RESULT:      -6.3      2.846      5.917
REMARK  Name = 
REMARK  2 active torsions:
REMARK  status: ('A' for Active; 'I' for Inactive)
REMARK    1  A    between atoms: C_2  and  C_3
REMARK    2  A    between atoms: C_6  and  C_7
REMARK                            x       y       z     vdW  Elec       q    Type
REMARK                         _______ _______ _______ _____ _____    ______ ____
ROOT
ATOM      1  C   UNL     1       3.620   5.858  18.851  0.00  0.00    +0.000 C 
ATOM      2  C   UNL     1       4.892   6.089  18.005  0.00  0.00    +0.000 C 
ATOM      3  C   UNL     1       5.634   4.773  17.762  0.00  0.00    +0.000 C 
ATOM      4  C   UNL     1       4.754   3.787  16.988  0.00  0.00    +0.000 C 
ATOM      5  C   UNL     1       3.377   3.729  17.541  0.00  0.00    +0.000 A 
ATOM      6  C   UNL     1       2.348   2.828  17.382  0.00  0.00    +0.000 A 
ATOM      7  N   UNL     1       1.250   3.208  18.110  0.00  0.00    +0.000 NA
ATOM      8  C   UNL     1       1.594   4.329  18.704  0.00  0.00    +0.000 A 
ATOM      9  N   UNL     1       2.863   4.703  18.364  0.00  0.00    +0.000 N 
ENDROOT
BRANCH   1  13
ATOM     10  C   UNL     1       1.114   9.390  19.027  0.00  0.00    +0.000 A 
ATOM     11  C   UNL     1       1.791   9.074  17.848  0.00  0.00    +0.000 A 
ATOM     12  C   UNL     1       2.605   7.942  17.791  0.00  0.00    +0.000 A 
ATOM     13  C   UNL     1       2.761   7.112  18.913  0.00  0.00    +0.000 A 
ATOM     14  C   UNL     1       2.085   7.446  20.099  0.00  0.00    +0.000 A 
ATOM     15  C   UNL     1       1.264   8.576  20.153  0.00  0.00    +0.000 A 
BRANCH  10  17
ATOM     16  N   UNL     1      -0.444  11.461  19.119  0.00  0.00    +0.000 NA
ATOM     17  C   UNL     1       0.254  10.535  19.077  0.00  0.00    +0.000 C 
ENDBRANCH  10  17
ENDBRANCH   1  13
TORSDOF 2
ENDMDL
MODEL 6
REMARK VINA RESULT:      -6.3      2.141      2.561
REMARK  Name = 
REMARK  2 active torsions:
REMARK  status: ('A' for Active; 'I' for Inactive)
REMARK    1  A    between atoms: C_2  and  C_3
REMARK    2  A    between atoms: C_6  and  C_7
REMARK                            x       y       z     vdW  Elec       q    Type
REMARK                         _______ _______ _______ _____ _____    ______ ____
ROOT
ATOM      1  C   UNL     1       4.134   3.623  18.768  0.00  0.00    +0.000 C 
ATOM      2  C   UNL     1       3.723   2.826  17.510  0.00  0.00    +0.000 C 
ATOM      3  C   UNL     1       2.621   1.816  17.839  0.00  0.00    +0.000 C 
ATOM      4  C   UNL     1       1.365   2.527  18.350  0.00  0.00    +0.000 C 
ATOM      5  C   UNL     1       1.693   3.566  19.359  0.00  0.00    +0.000 A 
ATOM      6  C   UNL     1       0.926   4.245  20.279  0.00  0.00    +0.000 A 
ATOM      7  N   UNL     1       1.694   5.121  21.003  0.00  0.00    +0.000 NA
ATOM      8  C   UNL     1       2.914   4.988  20.533  0.00  0.00    +0.000 A 
ATOM      9  N   UNL     1       2.959   4.081  19.513  0.00  0.00    +0.000 N 
ENDROOT
BRANCH   1  13
ATOM     10  C   UNL     1       6.765   6.936  17.824  0.00  0.00    +0.000 A 
ATOM     11  C   UNL     1       5.539   6.811  17.169  0.00  0.00    +0.000 A 
ATOM     12  C   UNL     1       4.693   5.742  17.465  0.00  0.00    +0.000 A 
ATOM     13  C   UNL     1       5.063   4.774  18.415  0.00  0.00    +0.000 A 
ATOM     14  C   UNL     1       6.305   4.902  19.059  0.00  0.00    +0.000 A 
ATOM     15  C   UNL     1       7.149   5.978  18.767  0.00  0.00    +0.000 A 
BRANCH  10  17
ATOM     16  N   UNL     1       8.314   8.951  17.311  0.00  0.00    +0.000 NA
ATOM     17  C   UNL     1       7.620   8.050  17.542  0.00  0.00    +0.000 C 
ENDBRANCH  10  17
ENDBRANCH   1  13
TORSDOF 2
ENDMDL
MODEL 7
REMARK VINA RESULT:      -6.3      2.968      5.688
REMARK  Name = 
REMARK  2 active torsions:
REMARK  status: ('A' for Active; 'I' for Inactive)
REMARK    1  A    between atoms: C_2  and  C_3
REMARK    2  A    between atoms: C_6  and  C_7
REMARK                            x       y       z     vdW  Elec       q    Type
REMARK                         _______ _______ _______ _____ _____    ______ ____
ROOT
ATOM      1  C   UNL     1       3.287   5.602  19.683  0.00  0.00    +0.000 C 
ATOM      2  C   UNL     1       4.511   5.470  18.750  0.00  0.00    +0.000 C 
ATOM      3  C   UNL     1       5.113   4.066  18.832  0.00  0.00    +0.000 C 
ATOM      4  C   UNL     1       4.096   3.010  18.389  0.00  0.00    +0.000 C 
ATOM      5  C   UNL     1       2.761   3.243  18.999  0.00  0.00    +0.000 A 
ATOM      6  C   UNL     1       1.648   2.444  19.134  0.00  0.00    +0.000 A 
ATOM      7  N   UNL     1       0.643   3.114  19.783  0.00  0.00    +0.000 NA
ATOM      8  C   UNL     1       1.127   4.308  20.041  0.00  0.00    +0.000 A 
ATOM      9  N   UNL     1       2.397   4.446  19.556  0.00  0.00    +0.000 N 
ENDROOT
BRANCH   1  13
ATOM     10  C   UNL     1       1.123   9.299  19.021  0.00  0.00    +0.000 A 
ATOM     11  C   UNL     1       1.782   8.677  17.959  0.00  0.00    +0.000 A 
ATOM     12  C   UNL     1       2.486   7.491  18.171  0.00  0.00    +0.000 A 
ATOM     13  C   UNL     1       2.549   6.911  19.449  0.00  0.00    +0.000 A 
ATOM     14  C   UNL     1       1.894   7.552  20.514  0.00  0.00    +0.000 A 
ATOM     15  C   UNL     1       1.182   8.737  20.299  0.00  0.00    +0.000 A 
BRANCH  10  17
ATOM     16  N   UNL     1      -0.231  11.473  18.614  0.00  0.00    +0.000 NA
ATOM     17  C   UNL     1       0.375  10.501  18.798  0.00  0.00    +0.000 C 
ENDBRANCH  10  17
ENDBRANCH   1  13
TORSDOF 2
ENDMDL
MODEL 8
REMARK VINA RESULT:      -6.3      1.432      2.667
REMARK  Name = 
REMARK  2 active torsions:
REMARK  status: ('A' for Active; 'I' for Inactive)
REMARK    1  A    between atoms: C_2  and  C_3
REMARK    2  A    between atoms: C_6  and  C_7
REMARK                            x       y       z     vdW  Elec       q    Type
REMARK                         _______ _______ _______ _____ _____    ______ ____
ROOT
ATOM      1  C   UNL     1       2.656   5.247  18.282  0.00  0.00    +0.000 C 
ATOM      2  C   UNL     1       2.943   6.130  19.517  0.00  0.00    +0.000 C 
ATOM      3  C   UNL     1       1.858   5.952  20.581  0.00  0.00    +0.000 C 
ATOM      4  C   UNL     1       1.806   4.501  21.069  0.00  0.00    +0.000 C 
ATOM      5  C   UNL     1       1.850   3.539  19.938  0.00  0.00    +0.000 A 
ATOM      6  C   UNL     1       1.554   2.198  19.846  0.00  0.00    +0.000 A 
ATOM      7  N   UNL     1       1.750   1.742  18.567  0.00  0.00    +0.000 NA
ATOM      8  C   UNL     1       2.167   2.784  17.884  0.00  0.00    +0.000 A 
ATOM      9  N   UNL     1       2.274   3.890  18.678  0.00  0.00    +0.000 N 
ENDROOT
BRANCH   1  13
ATOM     10  C   UNL     1       5.963   5.262  15.479  0.00  0.00    +0.000 A 
ATOM     11  C   UNL     1       5.411   4.051  15.900  0.00  0.00    +0.000 A 
ATOM     12  C   UNL     1       4.351   4.043  16.809  0.00  0.00    +0.000 A 
ATOM     13  C   UNL     1       3.831   5.245  17.317  0.00  0.00    +0.000 A 
ATOM     14  C   UNL     1       4.402   6.458  16.897  0.00  0.00    +0.000 A 
ATOM     15  C   UNL     1       5.459   6.465  15.981  0.00  0.00    +0.000 A 
BRANCH  10  17
ATOM     16  N   UNL     1       7.893   5.280  13.748  0.00  0.00    +0.000 NA
ATOM     17  C   UNL     1       7.030   5.272  14.524  0.00  0.00    +0.000 C 
ENDBRANCH  10  17
ENDBRANCH   1  13
TORSDOF 2
ENDMDL
MODEL 9
REMARK VINA RESULT:      -6.2      2.781      5.989
REMARK  Name = 
REMARK  2 active torsions:
REMARK  status: ('A' for Active; 'I' for Inactive)
REMARK    1  A    between atoms: C_2  and  C_3
REMARK    2  A    between atoms: C_6  and  C_7
REMARK                            x       y       z     vdW  Elec       q    Type
REMARK                         _______ _______ _______ _____ _____    ______ ____
ROOT
ATOM      1  C   UNL     1       2.697   5.695  17.762  0.00  0.00    +0.000 C 
ATOM      2  C   UNL     1       1.899   4.425  18.132  0.00  0.00    +0.000 C 
ATOM      3  C   UNL     1       2.501   3.186  17.466  0.00  0.00    +0.000 C 
ATOM      4  C   UNL     1       3.942   2.962  17.935  0.00  0.00    +0.000 C 
ATOM      5  C   UNL     1       4.727   4.223  17.921  0.00  0.00    +0.000 A 
ATOM      6  C   UNL     1       6.079   4.478  17.976  0.00  0.00    +0.000 A 
ATOM      7  N   UNL     1       6.323   5.827  17.929  0.00  0.00    +0.000 NA
ATOM      8  C   UNL     1       5.140   6.394  17.851  0.00  0.00    +0.000 A 
ATOM      9  N   UNL     1       4.139   5.465  17.876  0.00  0.00    +0.000 N 
ENDROOT
BRANCH   1  13
ATOM     10  C   UNL     1       1.353   9.077  20.115  0.00  0.00    +0.000 A 
ATOM     11  C   UNL     1       1.538   9.215  18.739  0.00  0.00    +0.000 A 
ATOM     12  C   UNL     1       1.978   8.130  17.980  0.00  0.00    +0.000 A 
ATOM     13  C   UNL     1       2.248   6.892  18.585  0.00  0.00    +0.000 A 
ATOM     14  C   UNL     1       2.072   6.767  19.974  0.00  0.00    +0.000 A 
ATOM     15  C   UNL     1       1.623   7.852  20.733  0.00  0.00    +0.000 A 
BRANCH  10  17
ATOM     16  N   UNL     1       0.483  11.075  21.521  0.00  0.00    +0.000 NA
ATOM     17  C   UNL     1       0.873  10.182  20.891  0.00  0.00    +0.000 C 
ENDBRANCH  10  17
ENDBRANCH   1  13
TORSDOF 2
ENDMDL
