MODEL 1
REMARK VINA RESULT:      -7.8      0.000      0.000
REMARK  Name = 
REMARK  13 active torsions:
REMARK  status: ('A' for Active; 'I' for Inactive)
REMARK    1  A    between atoms: C_1  and  C_2
REMARK    2  A    between atoms: C_2  and  O_3
REMARK    3  A    between atoms: O_3  and  C_4
REMARK    4  A    between atoms: C_9  and  N_10
REMARK    5  A    between atoms: C_11  and  C_13
REMARK    6  A    between atoms: C_13  and  O_14
REMARK    7  A    between atoms: O_14  and  C_15
REMARK    8  A    between atoms: C_15  and  C_17
REMARK    9  A    between atoms: C_17  and  C_18
REMARK   10  A    between atoms: C_18  and  O_19
REMARK   11  A    between atoms: O_19  and  C_20
REMARK   12  A    between atoms: C_22  and  C_23
REMARK   13  A    between atoms: C_26  and  C_27
REMARK                            x       y       z     vdW  Elec       q    Type
REMARK                         _______ _______ _______ _____ _____    ______ ____
ROOT
ATOM      1  C   UNL     1       2.324   3.761  21.736  0.00  0.00    +0.000 C 
ENDROOT
BRANCH   1   3
ATOM      2  N   UNL     1       2.642   5.845  20.484  0.00  0.00    +0.000 N 
ATOM      3  C   UNL     1       1.822   4.749  20.681  0.00  0.00    +0.000 C 
ATOM      4  O   UNL     1       0.774   4.511  20.087  0.00  0.00    +0.000 OA
ATOM      5  H   UNL     1       3.588   5.824  20.875  0.00  0.00    +0.000 HD
BRANCH   2  11
ATOM      6  C   UNL     1       1.496   7.982  20.163  0.00  0.00    +0.000 A 
ATOM      7  C   UNL     1       1.286   9.134  19.388  0.00  0.00    +0.000 A 
ATOM      8  C   UNL     1       1.825   9.246  18.109  0.00  0.00    +0.000 A 
ATOM      9  C   UNL     1       2.599   8.215  17.593  0.00  0.00    +0.000 A 
ATOM     10  C   UNL     1       2.869   7.094  18.379  0.00  0.00    +0.000 A 
ATOM     11  C   UNL     1       2.352   6.973  19.674  0.00  0.00    +0.000 A 
BRANCH   6  12
ATOM     12  O   UNL     1       0.909   7.783  21.393  0.00  0.00    +0.000 OA
BRANCH  12  14
ATOM     13  C   UNL     1       0.186   9.495  22.942  0.00  0.00    +0.000 C 
ATOM     14  C   UNL     1      -0.162   8.686  21.707  0.00  0.00    +0.000 C 
ENDBRANCH  12  14
ENDBRANCH   6  12
ENDBRANCH   2  11
ENDBRANCH   1   3
BRANCH   1  15
ATOM     15  O   UNL     1       2.481   2.439  21.220  0.00  0.00    +0.000 OA
BRANCH  15  16
ATOM     16  C   UNL     1       3.411   2.280  20.245  0.00  0.00    +0.000 C 
ATOM     17  O   UNL     1       4.616   2.373  20.429  0.00  0.00    +0.000 OA
BRANCH  16  18
ATOM     18  C   UNL     1       2.790   1.957  18.906  0.00  0.00    +0.000 C 
BRANCH  18  19
ATOM     19  C   UNL     1       3.677   2.372  17.738  0.00  0.00    +0.000 C 
BRANCH  19  20
ATOM     20  O   UNL     1       3.783   3.791  17.676  0.00  0.00    +0.000 OA
BRANCH  20  21
ATOM     21  C   UNL     1       4.926   4.315  17.120  0.00  0.00    +0.000 A 
ATOM     22  C   UNL     1       5.060   4.002  15.754  0.00  0.00    +0.000 A 
ATOM     23  C   UNL     1       6.198   4.369  15.021  0.00  0.00    +0.000 A 
ATOM     24  C   UNL     1       6.368   3.981  13.583  0.00  0.00    +0.000 C 
ATOM     25  C   UNL     1       7.215   5.067  15.667  0.00  0.00    +0.000 A 
ATOM     26  C   UNL     1       7.095   5.387  17.018  0.00  0.00    +0.000 A 
ATOM     27  C   UNL     1       5.966   5.006  17.771  0.00  0.00    +0.000 A 
ATOM     28  C   UNL     1       6.008   5.338  19.234  0.00  0.00    +0.000 C 
ENDBRANCH  20  21
ENDBRANCH  19  20
ENDBRANCH  18  19
ENDBRANCH  16  18
ENDBRANCH  15  16
ENDBRANCH   1  15
TORSDOF 10
ENDMDL
MODEL 2
REMARK VINA RESULT:      -7.5      1.422      6.428
REMARK  Name = 
REMARK  13 active torsions:
REMARK  status: ('A' for Active; 'I' for Inactive)
REMARK    1  A    between atoms: C_1  and  C_2
REMARK    2  A    between atoms: C_2  and  O_3
REMARK    3  A    between atoms: O_3  and  C_4
REMARK    4  A    between atoms: C_9  and  N_10
REMARK    5  A    between atoms: C_11  and  C_13
REMARK    6  A    between atoms: C_13  and  O_14
REMARK    7  A    between atoms: O_14  and  C_15
REMARK    8  A    between atoms: C_15  and  C_17
REMARK    9  A    between atoms: C_17  and  C_18
REMARK   10  A    between atoms: C_18  and  O_19
REMARK   11  A    between atoms: O_19  and  C_20
REMARK   12  A    between atoms: C_22  and  C_23
REMARK   13  A    between atoms: C_26  and  C_27
REMARK                            x       y       z     vdW  Elec       q    Type
REMARK                         _______ _______ _______ _____ _____    ______ ____
ROOT
ATOM      1  C   UNL     1       2.808   1.815  18.073  0.00  0.00    +0.000 C 
ENDROOT
BRANCH   1   3
ATOM      2  N   UNL     1       4.846   3.160  17.848  0.00  0.00    +0.000 N 
ATOM      3  C   UNL     1       3.475   3.132  17.670  0.00  0.00    +0.000 C 
ATOM      4  O   UNL     1       2.783   4.041  17.217  0.00  0.00    +0.000 OA
ATOM      5  H   UNL     1       5.335   2.278  18.023  0.00  0.00    +0.000 HD
BRANCH   2  11
ATOM      6  C   UNL     1       6.147   4.639  16.398  0.00  0.00    +0.000 A 
ATOM      7  C   UNL     1       6.907   5.809  16.239  0.00  0.00    +0.000 A 
ATOM      8  C   UNL     1       7.296   6.568  17.339  0.00  0.00    +0.000 A 
ATOM      9  C   UNL     1       6.915   6.177  18.616  0.00  0.00    +0.000 A 
ATOM     10  C   UNL     1       6.106   5.053  18.783  0.00  0.00    +0.000 A 
ATOM     11  C   UNL     1       5.688   4.290  17.686  0.00  0.00    +0.000 A 
BRANCH   6  12
ATOM     12  O   UNL     1       5.817   3.805  15.352  0.00  0.00    +0.000 OA
BRANCH  12  14
ATOM     13  C   UNL     1       5.776   3.533  12.949  0.00  0.00    +0.000 C 
ATOM     14  C   UNL     1       6.569   4.016  14.148  0.00  0.00    +0.000 C 
ENDBRANCH  12  14
ENDBRANCH   6  12
ENDBRANCH   2  11
ENDBRANCH   1   3
BRANCH   1  15
ATOM     15  O   UNL     1       2.056   1.927  19.281  0.00  0.00    +0.000 OA
BRANCH  15  16
ATOM     16  C   UNL     1       2.714   2.432  20.354  0.00  0.00    +0.000 C 
ATOM     17  O   UNL     1       3.909   2.277  20.559  0.00  0.00    +0.000 OA
BRANCH  16  18
ATOM     18  C   UNL     1       1.805   3.227  21.263  0.00  0.00    +0.000 C 
BRANCH  18  19
ATOM     19  C   UNL     1       1.261   4.482  20.590  0.00  0.00    +0.000 C 
BRANCH  19  20
ATOM     20  O   UNL     1       2.332   5.332  20.189  0.00  0.00    +0.000 OA
BRANCH  20  21
ATOM     21  C   UNL     1       2.046   6.664  20.006  0.00  0.00    +0.000 A 
ATOM     22  C   UNL     1       1.183   7.176  20.993  0.00  0.00    +0.000 A 
ATOM     23  C   UNL     1       0.699   8.492  20.940  0.00  0.00    +0.000 A 
ATOM     24  C   UNL     1      -0.270   9.017  21.957  0.00  0.00    +0.000 C 
ATOM     25  C   UNL     1       1.094   9.309  19.884  0.00  0.00    +0.000 A 
ATOM     26  C   UNL     1       1.951   8.817  18.902  0.00  0.00    +0.000 A 
ATOM     27  C   UNL     1       2.426   7.490  18.932  0.00  0.00    +0.000 A 
ATOM     28  C   UNL     1       3.269   7.068  17.764  0.00  0.00    +0.000 C 
ENDBRANCH  20  21
ENDBRANCH  19  20
ENDBRANCH  18  19
ENDBRANCH  16  18
ENDBRANCH  15  16
ENDBRANCH   1  15
TORSDOF 10
ENDMDL
MODEL 3
REMARK VINA RESULT:      -7.1      5.132      7.402
REMARK  Name = 
REMARK  13 active torsions:
REMARK  status: ('A' for Active; 'I' for Inactive)
REMARK    1  A    between atoms: C_1  and  C_2
REMARK    2  A    between atoms: C_2  and  O_3
REMARK    3  A    between atoms: O_3  and  C_4
REMARK    4  A    between atoms: C_9  and  N_10
REMARK    5  A    between atoms: C_11  and  C_13
REMARK    6  A    between atoms: C_13  and  O_14
REMARK    7  A    between atoms: O_14  and  C_15
REMARK    8  A    between atoms: C_15  and  C_17
REMARK    9  A    between atoms: C_17  and  C_18
REMARK   10  A    between atoms: C_18  and  O_19
REMARK   11  A    between atoms: O_19  and  C_20
REMARK   12  A    between atoms: C_22  and  C_23
REMARK   13  A    between atoms: C_26  and  C_27
REMARK                            x       y       z     vdW  Elec       q    Type
REMARK                         _______ _______ _______ _____ _____    ______ ____
ROOT
ATOM      1  C   UNL     1       7.303   5.128  16.226  0.00  0.00    +0.000 C 
ENDROOT
BRANCH   1   3
ATOM      2  N   UNL     1       5.318   4.433  17.487  0.00  0.00    +0.000 N 
ATOM      3  C   UNL     1       5.787   4.926  16.283  0.00  0.00    +0.000 C 
ATOM      4  O   UNL     1       5.106   5.217  15.303  0.00  0.00    +0.000 OA
ATOM      5  H   UNL     1       5.946   4.437  18.295  0.00  0.00    +0.000 HD
BRANCH   2  11
ATOM      6  C   UNL     1       3.019   4.998  18.102  0.00  0.00    +0.000 A 
ATOM      7  C   UNL     1       1.686   4.596  18.287  0.00  0.00    +0.000 A 
ATOM      8  C   UNL     1       1.330   3.251  18.243  0.00  0.00    +0.000 A 
ATOM      9  C   UNL     1       2.298   2.288  17.994  0.00  0.00    +0.000 A 
ATOM     10  C   UNL     1       3.614   2.679  17.744  0.00  0.00    +0.000 A 
ATOM     11  C   UNL     1       3.987   4.028  17.764  0.00  0.00    +0.000 A 
BRANCH   6  12
ATOM     12  O   UNL     1       3.437   6.305  18.228  0.00  0.00    +0.000 OA
BRANCH  12  14
ATOM     13  C   UNL     1       2.287   8.403  17.875  0.00  0.00    +0.000 C 
ATOM     14  C   UNL     1       2.465   7.202  18.784  0.00  0.00    +0.000 C 
ENDBRANCH  12  14
ENDBRANCH   6  12
ENDBRANCH   2  11
ENDBRANCH   1   3
BRANCH   1  15
ATOM     15  O   UNL     1       7.682   6.495  16.385  0.00  0.00    +0.000 OA
BRANCH  15  16
ATOM     16  C   UNL     1       7.594   7.001  17.641  0.00  0.00    +0.000 C 
ATOM     17  O   UNL     1       7.553   6.316  18.653  0.00  0.00    +0.000 OA
BRANCH  16  18
ATOM     18  C   UNL     1       7.571   8.512  17.651  0.00  0.00    +0.000 C 
BRANCH  18  19
ATOM     19  C   UNL     1       8.712   9.105  18.470  0.00  0.00    +0.000 C 
BRANCH  19  20
ATOM     20  O   UNL     1       8.923  10.467  18.110  0.00  0.00    +0.000 OA
BRANCH  20  21
ATOM     21  C   UNL     1       9.609  11.257  19.002  0.00  0.00    +0.000 A 
ATOM     22  C   UNL     1       9.003  11.296  20.272  0.00  0.00    +0.000 A 
ATOM     23  C   UNL     1       9.497  12.112  21.301  0.00  0.00    +0.000 A 
ATOM     24  C   UNL     1       8.815  12.201  22.633  0.00  0.00    +0.000 C 
ATOM     25  C   UNL     1      10.621  12.897  21.053  0.00  0.00    +0.000 A 
ATOM     26  C   UNL     1      11.233  12.865  19.802  0.00  0.00    +0.000 A 
ATOM     27  C   UNL     1      10.734  12.066  18.754  0.00  0.00    +0.000 A 
ATOM     28  C   UNL     1      11.437  12.197  17.434  0.00  0.00    +0.000 C 
ENDBRANCH  20  21
ENDBRANCH  19  20
ENDBRANCH  18  19
ENDBRANCH  16  18
ENDBRANCH  15  16
ENDBRANCH   1  15
TORSDOF 10
ENDMDL
MODEL 4
REMARK VINA RESULT:      -7.0      5.203      6.949
REMARK  Name = 
REMARK  13 active torsions:
REMARK  status: ('A' for Active; 'I' for Inactive)
REMARK    1  A    between atoms: C_1  and  C_2
REMARK    2  A    between atoms: C_2  and  O_3
REMARK    3  A    between atoms: O_3  and  C_4
REMARK    4  A    between atoms: C_9  and  N_10
REMARK    5  A    between atoms: C_11  and  C_13
REMARK    6  A    between atoms: C_13  and  O_14
REMARK    7  A    between atoms: O_14  and  C_15
REMARK    8  A    between atoms: C_15  and  C_17
REMARK    9  A    between atoms: C_17  and  C_18
REMARK   10  A    between atoms: C_18  and  O_19
REMARK   11  A    between atoms: O_19  and  C_20
REMARK   12  A    between atoms: C_22  and  C_23
REMARK   13  A    between atoms: C_26  and  C_27
REMARK                            x       y       z     vdW  Elec       q    Type
REMARK                         _______ _______ _______ _____ _____    ______ ____
ROOT
ATOM      1  C   UNL     1       5.658   6.431  16.839  0.00  0.00    +0.000 C 
ENDROOT
BRANCH   1   3
ATOM      2  N   UNL     1       3.550   5.420  17.581  0.00  0.00    +0.000 N 
ATOM      3  C   UNL     1       4.931   5.337  17.623  0.00  0.00    +0.000 C 
ATOM      4  O   UNL     1       5.589   4.477  18.204  0.00  0.00    +0.000 OA
ATOM      5  H   UNL     1       3.119   6.042  16.892  0.00  0.00    +0.000 HD
BRANCH   2  11
ATOM      6  C   UNL     1       2.212   5.058  19.596  0.00  0.00    +0.000 A 
ATOM      7  C   UNL     1       1.246   4.305  20.283  0.00  0.00    +0.000 A 
ATOM      8  C   UNL     1       0.786   3.093  19.776  0.00  0.00    +0.000 A 
ATOM      9  C   UNL     1       1.272   2.624  18.563  0.00  0.00    +0.000 A 
ATOM     10  C   UNL     1       2.184   3.393  17.839  0.00  0.00    +0.000 A 
ATOM     11  C   UNL     1       2.642   4.623  18.324  0.00  0.00    +0.000 A 
BRANCH   6  12
ATOM     12  O   UNL     1       2.766   6.214  20.100  0.00  0.00    +0.000 OA
BRANCH  12  14
ATOM     13  C   UNL     1       1.313   7.922  21.005  0.00  0.00    +0.000 C 
ATOM     14  C   UNL     1       2.053   7.417  19.781  0.00  0.00    +0.000 C 
ENDBRANCH  12  14
ENDBRANCH   6  12
ENDBRANCH   2  11
ENDBRANCH   1   3
BRANCH   1  15
ATOM     15  O   UNL     1       7.078   6.326  16.936  0.00  0.00    +0.000 OA
BRANCH  15  16
ATOM     16  C   UNL     1       7.669   7.048  17.920  0.00  0.00    +0.000 C 
ATOM     17  O   UNL     1       8.107   6.565  18.954  0.00  0.00    +0.000 OA
BRANCH  16  18
ATOM     18  C   UNL     1       7.742   8.521  17.587  0.00  0.00    +0.000 C 
BRANCH  18  19
ATOM     19  C   UNL     1       8.791   9.254  18.416  0.00  0.00    +0.000 C 
BRANCH  19  20
ATOM     20  O   UNL     1       8.455  10.633  18.531  0.00  0.00    +0.000 OA
BRANCH  20  21
ATOM     21  C   UNL     1       9.449  11.494  18.934  0.00  0.00    +0.000 A 
ATOM     22  C   UNL     1      10.265  11.919  17.869  0.00  0.00    +0.000 A 
ATOM     23  C   UNL     1      11.389  12.731  18.079  0.00  0.00    +0.000 A 
ATOM     24  C   UNL     1      12.294  13.131  16.953  0.00  0.00    +0.000 C 
ATOM     25  C   UNL     1      11.695  13.129  19.378  0.00  0.00    +0.000 A 
ATOM     26  C   UNL     1      10.893  12.719  20.442  0.00  0.00    +0.000 A 
ATOM     27  C   UNL     1       9.774  11.886  20.246  0.00  0.00    +0.000 A 
ATOM     28  C   UNL     1       9.053  11.449  21.489  0.00  0.00    +0.000 C 
ENDBRANCH  20  21
ENDBRANCH  19  20
ENDBRANCH  18  19
ENDBRANCH  16  18
ENDBRANCH  15  16
ENDBRANCH   1  15
TORSDOF 10
ENDMDL
MODEL 5
REMARK VINA RESULT:      -7.0      0.788      2.025
REMARK  Name = 
REMARK  13 active torsions:
REMARK  status: ('A' for Active; 'I' for Inactive)
REMARK    1  A    between atoms: C_1  and  C_2
REMARK    2  A    between atoms: C_2  and  O_3
REMARK    3  A    between atoms: O_3  and  C_4
REMARK    4  A    between atoms: C_9  and  N_10
REMARK    5  A    between atoms: C_11  and  C_13
REMARK    6  A    between atoms: C_13  and  O_14
REMARK    7  A    between atoms: O_14  and  C_15
REMARK    8  A    between atoms: C_15  and  C_17
REMARK    9  A    between atoms: C_17  and  C_18
REMARK   10  A    between atoms: C_18  and  O_19
REMARK   11  A    between atoms: O_19  and  C_20
REMARK   12  A    between atoms: C_22  and  C_23
REMARK   13  A    between atoms: C_26  and  C_27
REMARK                            x       y       z     vdW  Elec       q    Type
REMARK                         _______ _______ _______ _____ _____    ______ ____
ROOT
ATOM      1  C   UNL     1       2.359   3.899  21.432  0.00  0.00    +0.000 C 
ENDROOT
BRANCH   1   3
ATOM      2  N   UNL     1       2.614   6.034  20.253  0.00  0.00    +0.000 N 
ATOM      3  C   UNL     1       1.756   4.987  20.541  0.00  0.00    +0.000 C 
ATOM      4  O   UNL     1       0.602   4.862  20.138  0.00  0.00    +0.000 OA
ATOM      5  H   UNL     1       3.609   5.922  20.460  0.00  0.00    +0.000 HD
BRANCH   2  11
ATOM      6  C   UNL     1       1.530   8.227  20.235  0.00  0.00    +0.000 A 
ATOM      7  C   UNL     1       1.276   9.441  19.578  0.00  0.00    +0.000 A 
ATOM      8  C   UNL     1       1.655   9.633  18.253  0.00  0.00    +0.000 A 
ATOM      9  C   UNL     1       2.313   8.619  17.570  0.00  0.00    +0.000 A 
ATOM     10  C   UNL     1       2.630   7.432  18.231  0.00  0.00    +0.000 A 
ATOM     11  C   UNL     1       2.274   7.229  19.569  0.00  0.00    +0.000 A 
BRANCH   6  12
ATOM     12  O   UNL     1       1.093   7.954  21.513  0.00  0.00    +0.000 OA
BRANCH  12  14
ATOM     13  C   UNL     1      -0.084   9.422  23.034  0.00  0.00    +0.000 C 
ATOM     14  C   UNL     1      -0.196   8.492  21.840  0.00  0.00    +0.000 C 
ENDBRANCH  12  14
ENDBRANCH   6  12
ENDBRANCH   2  11
ENDBRANCH   1   3
BRANCH   1  15
ATOM     15  O   UNL     1       3.227   3.020  20.717  0.00  0.00    +0.000 OA
BRANCH  15  16
ATOM     16  C   UNL     1       2.652   2.261  19.751  0.00  0.00    +0.000 C 
ATOM     17  O   UNL     1       1.502   1.848  19.800  0.00  0.00    +0.000 OA
BRANCH  16  18
ATOM     18  C   UNL     1       3.588   1.995  18.595  0.00  0.00    +0.000 C 
BRANCH  18  19
ATOM     19  C   UNL     1       3.287   2.876  17.388  0.00  0.00    +0.000 C 
BRANCH  19  20
ATOM     20  O   UNL     1       3.693   4.218  17.641  0.00  0.00    +0.000 OA
BRANCH  20  21
ATOM     21  C   UNL     1       5.012   4.532  17.413  0.00  0.00    +0.000 A 
ATOM     22  C   UNL     1       5.693   4.906  18.588  0.00  0.00    +0.000 A 
ATOM     23  C   UNL     1       7.024   5.346  18.560  0.00  0.00    +0.000 A 
ATOM     24  C   UNL     1       7.728   5.805  19.802  0.00  0.00    +0.000 C 
ATOM     25  C   UNL     1       7.685   5.407  17.336  0.00  0.00    +0.000 A 
ATOM     26  C   UNL     1       7.025   5.036  16.166  0.00  0.00    +0.000 A 
ATOM     27  C   UNL     1       5.681   4.612  16.178  0.00  0.00    +0.000 A 
ATOM     28  C   UNL     1       5.070   4.328  14.836  0.00  0.00    +0.000 C 
ENDBRANCH  20  21
ENDBRANCH  19  20
ENDBRANCH  18  19
ENDBRANCH  16  18
ENDBRANCH  15  16
ENDBRANCH   1  15
TORSDOF 10
ENDMDL
MODEL 6
REMARK VINA RESULT:      -6.9      1.486      6.498
REMARK  Name = 
REMARK  13 active torsions:
REMARK  status: ('A' for Active; 'I' for Inactive)
REMARK    1  A    between atoms: C_1  and  C_2
REMARK    2  A    between atoms: C_2  and  O_3
REMARK    3  A    between atoms: O_3  and  C_4
REMARK    4  A    between atoms: C_9  and  N_10
REMARK    5  A    between atoms: C_11  and  C_13
REMARK    6  A    between atoms: C_13  and  O_14
REMARK    7  A    between atoms: O_14  and  C_15
REMARK    8  A    between atoms: C_15  and  C_17
REMARK    9  A    between atoms: C_17  and  C_18
REMARK   10  A    between atoms: C_18  and  O_19
REMARK   11  A    between atoms: O_19  and  C_20
REMARK   12  A    between atoms: C_22  and  C_23
REMARK   13  A    between atoms: C_26  and  C_27
REMARK                            x       y       z     vdW  Elec       q    Type
REMARK                         _______ _______ _______ _____ _____    ______ ____
ROOT
ATOM      1  C   UNL     1       3.054   1.599  19.055  0.00  0.00    +0.000 C 
ENDROOT
BRANCH   1   3
ATOM      2  N   UNL     1       4.445   3.475  18.305  0.00  0.00    +0.000 N 
ATOM      3  C   UNL     1       4.287   2.483  19.256  0.00  0.00    +0.000 C 
ATOM      4  O   UNL     1       5.022   2.278  20.219  0.00  0.00    +0.000 OA
ATOM      5  H   UNL     1       3.659   3.686  17.684  0.00  0.00    +0.000 HD
BRANCH   2  11
ATOM      6  C   UNL     1       6.170   4.509  16.913  0.00  0.00    +0.000 A 
ATOM      7  C   UNL     1       7.218   5.433  16.779  0.00  0.00    +0.000 A 
ATOM      8  C   UNL     1       7.730   6.104  17.886  0.00  0.00    +0.000 A 
ATOM      9  C   UNL     1       7.187   5.874  19.143  0.00  0.00    +0.000 A 
ATOM     10  C   UNL     1       6.102   5.007  19.280  0.00  0.00    +0.000 A 
ATOM     11  C   UNL     1       5.562   4.340  18.175  0.00  0.00    +0.000 A 
BRANCH   6  12
ATOM     12  O   UNL     1       5.693   3.752  15.865  0.00  0.00    +0.000 OA
BRANCH  12  14
ATOM     13  C   UNL     1       6.183   3.774  13.496  0.00  0.00    +0.000 C 
ATOM     14  C   UNL     1       5.479   4.474  14.643  0.00  0.00    +0.000 C 
ENDBRANCH  12  14
ENDBRANCH   6  12
ENDBRANCH   2  11
ENDBRANCH   1   3
BRANCH   1  15
ATOM     15  O   UNL     1       1.945   2.013  19.853  0.00  0.00    +0.000 OA
BRANCH  15  16
ATOM     16  C   UNL     1       1.170   3.001  19.340  0.00  0.00    +0.000 C 
ATOM     17  O   UNL     1       0.629   2.946  18.245  0.00  0.00    +0.000 OA
BRANCH  16  18
ATOM     18  C   UNL     1       1.034   4.173  20.284  0.00  0.00    +0.000 C 
BRANCH  18  19
ATOM     19  C   UNL     1       2.165   5.183  20.125  0.00  0.00    +0.000 C 
BRANCH  19  20
ATOM     20  O   UNL     1       1.864   6.379  20.837  0.00  0.00    +0.000 OA
BRANCH  20  21
ATOM     21  C   UNL     1       1.748   7.537  20.105  0.00  0.00    +0.000 A 
ATOM     22  C   UNL     1       0.933   8.499  20.732  0.00  0.00    +0.000 A 
ATOM     23  C   UNL     1       0.617   9.716  20.112  0.00  0.00    +0.000 A 
ATOM     24  C   UNL     1      -0.302  10.712  20.754  0.00  0.00    +0.000 C 
ATOM     25  C   UNL     1       1.131   9.976  18.844  0.00  0.00    +0.000 A 
ATOM     26  C   UNL     1       1.942   9.035  18.212  0.00  0.00    +0.000 A 
ATOM     27  C   UNL     1       2.250   7.800  18.816  0.00  0.00    +0.000 A 
ATOM     28  C   UNL     1       3.060   6.846  17.986  0.00  0.00    +0.000 C 
ENDBRANCH  20  21
ENDBRANCH  19  20
ENDBRANCH  18  19
ENDBRANCH  16  18
ENDBRANCH  15  16
ENDBRANCH   1  15
TORSDOF 10
ENDMDL
MODEL 7
REMARK VINA RESULT:      -6.7      5.042      7.223
REMARK  Name = 
REMARK  13 active torsions:
REMARK  status: ('A' for Active; 'I' for Inactive)
REMARK    1  A    between atoms: C_1  and  C_2
REMARK    2  A    between atoms: C_2  and  O_3
REMARK    3  A    between atoms: O_3  and  C_4
REMARK    4  A    between atoms: C_9  and  N_10
REMARK    5  A    between atoms: C_11  and  C_13
REMARK    6  A    between atoms: C_13  and  O_14
REMARK    7  A    between atoms: O_14  and  C_15
REMARK    8  A    between atoms: C_15  and  C_17
REMARK    9  A    between atoms: C_17  and  C_18
REMARK   10  A    between atoms: C_18  and  O_19
REMARK   11  A    between atoms: O_19  and  C_20
REMARK   12  A    between atoms: C_22  and  C_23
REMARK   13  A    between atoms: C_26  and  C_27
REMARK                            x       y       z     vdW  Elec       q    Type
REMARK                         _______ _______ _______ _____ _____    ______ ____
ROOT
ATOM      1  C   UNL     1       6.369   5.145  17.631  0.00  0.00    +0.000 C 
ENDROOT
BRANCH   1   3
ATOM      2  N   UNL     1       4.036   4.465  17.964  0.00  0.00    +0.000 N 
ATOM      3  C   UNL     1       5.331   4.364  18.440  0.00  0.00    +0.000 C 
ATOM      4  O   UNL     1       5.697   3.709  19.413  0.00  0.00    +0.000 OA
ATOM      5  H   UNL     1       3.888   4.855  17.029  0.00  0.00    +0.000 HD
BRANCH   2  11
ATOM      6  C   UNL     1       2.270   4.692  19.641  0.00  0.00    +0.000 A 
ATOM      7  C   UNL     1       1.069   4.225  20.198  0.00  0.00    +0.000 A 
ATOM      8  C   UNL     1       0.521   3.006  19.806  0.00  0.00    +0.000 A 
ATOM      9  C   UNL     1       1.158   2.244  18.836  0.00  0.00    +0.000 A 
ATOM     10  C   UNL     1       2.317   2.727  18.228  0.00  0.00    +0.000 A 
ATOM     11  C   UNL     1       2.871   3.959  18.595  0.00  0.00    +0.000 A 
BRANCH   6  12
ATOM     12  O   UNL     1       2.900   5.843  20.061  0.00  0.00    +0.000 OA
BRANCH  12  14
ATOM     13  C   UNL     1       2.454   7.633  18.497  0.00  0.00    +0.000 C 
ATOM     14  C   UNL     1       2.151   7.050  19.864  0.00  0.00    +0.000 C 
ENDBRANCH  12  14
ENDBRANCH   6  12
ENDBRANCH   2  11
ENDBRANCH   1   3
BRANCH   1  15
ATOM     15  O   UNL     1       6.570   6.468  18.127  0.00  0.00    +0.000 OA
BRANCH  15  16
ATOM     16  C   UNL     1       7.608   7.159  17.595  0.00  0.00    +0.000 C 
ATOM     17  O   UNL     1       7.881   7.173  16.403  0.00  0.00    +0.000 OA
BRANCH  16  18
ATOM     18  C   UNL     1       8.383   7.928  18.640  0.00  0.00    +0.000 C 
BRANCH  18  19
ATOM     19  C   UNL     1       8.460   9.418  18.328  0.00  0.00    +0.000 C 
BRANCH  19  20
ATOM     20  O   UNL     1       9.616   9.991  18.933  0.00  0.00    +0.000 OA
BRANCH  20  21
ATOM     21  C   UNL     1       9.462  11.201  19.568  0.00  0.00    +0.000 A 
ATOM     22  C   UNL     1       9.156  11.063  20.935  0.00  0.00    +0.000 A 
ATOM     23  C   UNL     1       8.876  12.174  21.744  0.00  0.00    +0.000 A 
ATOM     24  C   UNL     1       8.487  12.023  23.184  0.00  0.00    +0.000 C 
ATOM     25  C   UNL     1       8.910  13.444  21.173  0.00  0.00    +0.000 A 
ATOM     26  C   UNL     1       9.216  13.596  19.823  0.00  0.00    +0.000 A 
ATOM     27  C   UNL     1       9.479  12.486  18.994  0.00  0.00    +0.000 A 
ATOM     28  C   UNL     1       9.706  12.789  17.542  0.00  0.00    +0.000 C 
ENDBRANCH  20  21
ENDBRANCH  19  20
ENDBRANCH  18  19
ENDBRANCH  16  18
ENDBRANCH  15  16
ENDBRANCH   1  15
TORSDOF 10
ENDMDL
MODEL 8
REMARK VINA RESULT:      -6.7      1.402      7.038
REMARK  Name = 
REMARK  13 active torsions:
REMARK  status: ('A' for Active; 'I' for Inactive)
REMARK    1  A    between atoms: C_1  and  C_2
REMARK    2  A    between atoms: C_2  and  O_3
REMARK    3  A    between atoms: O_3  and  C_4
REMARK    4  A    between atoms: C_9  and  N_10
REMARK    5  A    between atoms: C_11  and  C_13
REMARK    6  A    between atoms: C_13  and  O_14
REMARK    7  A    between atoms: O_14  and  C_15
REMARK    8  A    between atoms: C_15  and  C_17
REMARK    9  A    between atoms: C_17  and  C_18
REMARK   10  A    between atoms: C_18  and  O_19
REMARK   11  A    between atoms: O_19  and  C_20
REMARK   12  A    between atoms: C_22  and  C_23
REMARK   13  A    between atoms: C_26  and  C_27
REMARK                            x       y       z     vdW  Elec       q    Type
REMARK                         _______ _______ _______ _____ _____    ______ ____
ROOT
ATOM      1  C   UNL     1       1.981   2.991  17.865  0.00  0.00    +0.000 C 
ENDROOT
BRANCH   1   3
ATOM      2  N   UNL     1       3.872   4.539  18.069  0.00  0.00    +0.000 N 
ATOM      3  C   UNL     1       3.469   3.217  18.140  0.00  0.00    +0.000 C 
ATOM      4  O   UNL     1       4.183   2.254  18.410  0.00  0.00    +0.000 OA
ATOM      5  H   UNL     1       3.155   5.269  18.054  0.00  0.00    +0.000 HD
BRANCH   2  11
ATOM      6  C   UNL     1       5.943   5.217  16.958  0.00  0.00    +0.000 A 
ATOM      7  C   UNL     1       7.232   5.768  17.040  0.00  0.00    +0.000 A 
ATOM      8  C   UNL     1       7.829   6.016  18.273  0.00  0.00    +0.000 A 
ATOM      9  C   UNL     1       7.137   5.734  19.444  0.00  0.00    +0.000 A 
ATOM     10  C   UNL     1       5.831   5.248  19.375  0.00  0.00    +0.000 A 
ATOM     11  C   UNL     1       5.208   5.011  18.145  0.00  0.00    +0.000 A 
BRANCH   6  12
ATOM     12  O   UNL     1       5.347   4.867  15.766  0.00  0.00    +0.000 OA
BRANCH  12  14
ATOM     13  C   UNL     1       5.790   3.930  13.581  0.00  0.00    +0.000 C 
ATOM     14  C   UNL     1       5.965   3.769  15.079  0.00  0.00    +0.000 C 
ENDBRANCH  12  14
ENDBRANCH   6  12
ENDBRANCH   2  11
ENDBRANCH   1   3
BRANCH   1  15
ATOM     15  O   UNL     1       1.141   3.747  18.737  0.00  0.00    +0.000 OA
BRANCH  15  16
ATOM     16  C   UNL     1       1.351   3.585  20.067  0.00  0.00    +0.000 C 
ATOM     17  O   UNL     1       1.174   2.532  20.663  0.00  0.00    +0.000 OA
BRANCH  16  18
ATOM     18  C   UNL     1       1.846   4.849  20.729  0.00  0.00    +0.000 C 
BRANCH  18  19
ATOM     19  C   UNL     1       1.408   6.106  19.985  0.00  0.00    +0.000 C 
BRANCH  19  20
ATOM     20  O   UNL     1       2.053   7.253  20.530  0.00  0.00    +0.000 OA
BRANCH  20  21
ATOM     21  C   UNL     1       1.366   8.444  20.487  0.00  0.00    +0.000 A 
ATOM     22  C   UNL     1       0.753   8.762  21.714  0.00  0.00    +0.000 A 
ATOM     23  C   UNL     1      -0.067   9.891  21.859  0.00  0.00    +0.000 A 
ATOM     24  C   UNL     1      -0.770  10.195  23.148  0.00  0.00    +0.000 C 
ATOM     25  C   UNL     1      -0.271  10.717  20.756  0.00  0.00    +0.000 A 
ATOM     26  C   UNL     1       0.332  10.416  19.537  0.00  0.00    +0.000 A 
ATOM     27  C   UNL     1       1.141   9.273  19.373  0.00  0.00    +0.000 A 
ATOM     28  C   UNL     1       1.654   9.024  17.984  0.00  0.00    +0.000 C 
ENDBRANCH  20  21
ENDBRANCH  19  20
ENDBRANCH  18  19
ENDBRANCH  16  18
ENDBRANCH  15  16
ENDBRANCH   1  15
TORSDOF 10
ENDMDL
MODEL 9
REMARK VINA RESULT:      -6.6      1.419      2.026
REMARK  Name = 
REMARK  13 active torsions:
REMARK  status: ('A' for Active; 'I' for Inactive)
REMARK    1  A    between atoms: C_1  and  C_2
REMARK    2  A    between atoms: C_2  and  O_3
REMARK    3  A    between atoms: O_3  and  C_4
REMARK    4  A    between atoms: C_9  and  N_10
REMARK    5  A    between atoms: C_11  and  C_13
REMARK    6  A    between atoms: C_13  and  O_14
REMARK    7  A    between atoms: O_14  and  C_15
REMARK    8  A    between atoms: C_15  and  C_17
REMARK    9  A    between atoms: C_17  and  C_18
REMARK   10  A    between atoms: C_18  and  O_19
REMARK   11  A    between atoms: O_19  and  C_20
REMARK   12  A    between atoms: C_22  and  C_23
REMARK   13  A    between atoms: C_26  and  C_27
REMARK                            x       y       z     vdW  Elec       q    Type
REMARK                         _______ _______ _______ _____ _____    ______ ____
ROOT
ATOM      1  C   UNL     1       2.167   5.283  20.804  0.00  0.00    +0.000 C 
ENDROOT
BRANCH   1   3
ATOM      2  N   UNL     1       1.466   7.633  20.804  0.00  0.00    +0.000 N 
ATOM      3  C   UNL     1       2.204   6.664  20.147  0.00  0.00    +0.000 C 
ATOM      4  O   UNL     1       2.873   6.827  19.130  0.00  0.00    +0.000 OA
ATOM      5  H   UNL     1       1.134   7.436  21.752  0.00  0.00    +0.000 HD
BRANCH   2  11
ATOM      6  C   UNL     1       1.074  10.001  21.276  0.00  0.00    +0.000 A 
ATOM      7  C   UNL     1       0.917  11.314  20.806  0.00  0.00    +0.000 A 
ATOM      8  C   UNL     1       0.801  11.580  19.444  0.00  0.00    +0.000 A 
ATOM      9  C   UNL     1       0.858  10.537  18.530  0.00  0.00    +0.000 A 
ATOM     10  C   UNL     1       1.079   9.235  18.980  0.00  0.00    +0.000 A 
ATOM     11  C   UNL     1       1.219   8.951  20.343  0.00  0.00    +0.000 A 
BRANCH   6  12
ATOM     12  O   UNL     1       1.100   9.676  22.615  0.00  0.00    +0.000 OA
BRANCH  12  14
ATOM     13  C   UNL     1      -1.022  10.747  23.064  0.00  0.00    +0.000 C 
ATOM     14  C   UNL     1      -0.188   9.489  23.218  0.00  0.00    +0.000 C 
ENDBRANCH  12  14
ENDBRANCH   6  12
ENDBRANCH   2  11
ENDBRANCH   1   3
BRANCH   1  15
ATOM     15  O   UNL     1       1.089   4.477  20.327  0.00  0.00    +0.000 OA
BRANCH  15  16
ATOM     16  C   UNL     1       1.432   3.348  19.658  0.00  0.00    +0.000 C 
ATOM     17  O   UNL     1       0.649   2.680  18.999  0.00  0.00    +0.000 OA
BRANCH  16  18
ATOM     18  C   UNL     1       2.900   3.018  19.803  0.00  0.00    +0.000 C 
BRANCH  18  19
ATOM     19  C   UNL     1       3.592   2.842  18.456  0.00  0.00    +0.000 C 
BRANCH  19  20
ATOM     20  O   UNL     1       3.668   4.090  17.773  0.00  0.00    +0.000 OA
BRANCH  20  21
ATOM     21  C   UNL     1       4.867   4.415  17.183  0.00  0.00    +0.000 A 
ATOM     22  C   UNL     1       4.906   4.088  15.814  0.00  0.00    +0.000 A 
ATOM     23  C   UNL     1       6.069   4.259  15.048  0.00  0.00    +0.000 A 
ATOM     24  C   UNL     1       6.129   3.851  13.606  0.00  0.00    +0.000 C 
ATOM     25  C   UNL     1       7.207   4.773  15.663  0.00  0.00    +0.000 A 
ATOM     26  C   UNL     1       7.182   5.105  17.016  0.00  0.00    +0.000 A 
ATOM     27  C   UNL     1       6.027   4.918  17.802  0.00  0.00    +0.000 A 
ATOM     28  C   UNL     1       6.167   5.234  19.262  0.00  0.00    +0.000 C 
ENDBRANCH  20  21
ENDBRANCH  19  20
ENDBRANCH  18  19
ENDBRANCH  16  18
ENDBRANCH  15  16
ENDBRANCH   1  15
TORSDOF 10
ENDMDL
