MODEL 1
REMARK VINA RESULT:      -9.2      0.000      0.000
REMARK  Name = 
REMARK  5 active torsions:
REMARK  status: ('A' for Active; 'I' for Inactive)
REMARK    1  A    between atoms: C_1  and  N_2
REMARK    2  A    between atoms: C_4  and  C_5
REMARK    3  A    between atoms: N_7  and  C_8
REMARK    4  A    between atoms: C_8  and  C_9
REMARK    5  A    between atoms: C_9  and  C_10
REMARK                            x       y       z     vdW  Elec       q    Type
REMARK                         _______ _______ _______ _____ _____    ______ ____
ROOT
ATOM      1  C   UNL     1       7.435   5.964  18.831  0.00  0.00    +0.000 C 
ATOM      2  O   UNL     1       8.095   5.537  19.763  0.00  0.00    +0.000 OA
ATOM      3  N   UNL     1       7.657   7.162  18.199  0.00  0.00    +0.000 N 
ATOM      4  H   UNL     1       7.118   7.381  17.369  0.00  0.00    +0.000 HD
ENDROOT
BRANCH   1   8
ATOM      5  C   UNL     1       3.267   3.722  19.707  0.00  0.00    +0.000 C 
ATOM      6  N   UNL     1       4.237   4.129  18.708  0.00  0.00    +0.000 N 
ATOM      7  N   UNL     1       5.349   4.802  19.159  0.00  0.00    +0.000 NA
ATOM      8  C   UNL     1       6.249   5.162  18.290  0.00  0.00    +0.000 A 
ATOM      9  C   UNL     1       6.177   4.836  16.852  0.00  0.00    +0.000 A 
ATOM     10  C   UNL     1       7.213   5.093  15.942  0.00  0.00    +0.000 A 
ATOM     11  C   UNL     1       7.061   4.774  14.591  0.00  0.00    +0.000 A 
ATOM     12  C   UNL     1       5.878   4.192  14.140  0.00  0.00    +0.000 A 
ATOM     13  C   UNL     1       4.854   3.915  15.044  0.00  0.00    +0.000 A 
ATOM     14  C   UNL     1       5.013   4.228  16.402  0.00  0.00    +0.000 A 
ATOM     15  C   UNL     1       3.960   3.868  17.369  0.00  0.00    +0.000 A 
ATOM     16  O   UNL     1       2.924   3.341  16.972  0.00  0.00    +0.000 OA
ENDBRANCH   1   8
BRANCH   3  17
ATOM     17  C   UNL     1       8.648   8.077  18.729  0.00  0.00    +0.000 C 
BRANCH  17  18
ATOM     18  C   UNL     1       8.499   9.521  18.271  0.00  0.00    +0.000 C 
BRANCH  18  19
ATOM     19  C   UNL     1       9.417  10.578  18.840  0.00  0.00    +0.000 A 
ATOM     20  C   UNL     1       9.564  10.872  20.203  0.00  0.00    +0.000 A 
ATOM     21  C   UNL     1      10.224  12.041  20.605  0.00  0.00    +0.000 A 
ATOM     22  C   UNL     1      10.732  12.913  19.646  0.00  0.00    +0.000 A 
ATOM     23  C   UNL     1      10.725  12.537  18.307  0.00  0.00    +0.000 A 
ATOM     24  C   UNL     1      10.091  11.373  17.905  0.00  0.00    +0.000 A 
ATOM     25  O   UNL     1      11.248  13.336  17.329  0.00  0.00    +0.000 OA
ATOM     26  C   UNL     1      10.843  14.667  17.630  0.00  0.00    +0.000 C 
ATOM     27  C   UNL     1      11.332  15.098  19.010  0.00  0.00    +0.000 C 
ATOM     28  O   UNL     1      11.160  14.140  20.066  0.00  0.00    +0.000 OA
ENDBRANCH  18  19
ENDBRANCH  17  18
ENDBRANCH   3  17
TORSDOF 4
ENDMDL
MODEL 2
REMARK VINA RESULT:      -9.0      1.699      2.765
REMARK  Name = 
REMARK  5 active torsions:
REMARK  status: ('A' for Active; 'I' for Inactive)
REMARK    1  A    between atoms: C_1  and  N_2
REMARK    2  A    between atoms: C_4  and  C_5
REMARK    3  A    between atoms: N_7  and  C_8
REMARK    4  A    between atoms: C_8  and  C_9
REMARK    5  A    between atoms: C_9  and  C_10
REMARK                            x       y       z     vdW  Elec       q    Type
REMARK                         _______ _______ _______ _____ _____    ______ ____
ROOT
ATOM      1  C   UNL     1       7.692   6.853  18.052  0.00  0.00    +0.000 C 
ATOM      2  O   UNL     1       7.998   6.369  19.129  0.00  0.00    +0.000 OA
ATOM      3  N   UNL     1       7.990   8.133  17.656  0.00  0.00    +0.000 N 
ATOM      4  H   UNL     1       7.783   8.407  16.703  0.00  0.00    +0.000 HD
ENDROOT
BRANCH   1   8
ATOM      5  C   UNL     1       7.397   5.050  13.600  0.00  0.00    +0.000 C 
ATOM      6  N   UNL     1       6.790   5.136  14.913  0.00  0.00    +0.000 N 
ATOM      7  N   UNL     1       7.435   5.915  15.847  0.00  0.00    +0.000 NA
ATOM      8  C   UNL     1       6.904   6.031  17.030  0.00  0.00    +0.000 A 
ATOM      9  C   UNL     1       5.614   5.423  17.413  0.00  0.00    +0.000 A 
ATOM     10  C   UNL     1       4.970   5.667  18.635  0.00  0.00    +0.000 A 
ATOM     11  C   UNL     1       3.759   5.037  18.932  0.00  0.00    +0.000 A 
ATOM     12  C   UNL     1       3.182   4.166  18.012  0.00  0.00    +0.000 A 
ATOM     13  C   UNL     1       3.806   3.937  16.787  0.00  0.00    +0.000 A 
ATOM     14  C   UNL     1       5.017   4.577  16.487  0.00  0.00    +0.000 A 
ATOM     15  C   UNL     1       5.640   4.392  15.164  0.00  0.00    +0.000 A 
ATOM     16  O   UNL     1       5.121   3.635  14.348  0.00  0.00    +0.000 OA
ENDBRANCH   1   8
BRANCH   3  17
ATOM     17  C   UNL     1       8.590   9.052  18.602  0.00  0.00    +0.000 C 
BRANCH  17  18
ATOM     18  C   UNL     1       8.589  10.512  18.168  0.00  0.00    +0.000 C 
BRANCH  18  19
ATOM     19  C   UNL     1       9.790  11.376  18.473  0.00  0.00    +0.000 A 
ATOM     20  C   UNL     1      10.613  11.249  19.601  0.00  0.00    +0.000 A 
ATOM     21  C   UNL     1      11.524  12.263  19.927  0.00  0.00    +0.000 A 
ATOM     22  C   UNL     1      11.607  13.400  19.128  0.00  0.00    +0.000 A 
ATOM     23  C   UNL     1      10.907  13.447  17.928  0.00  0.00    +0.000 A 
ATOM     24  C   UNL     1      10.020  12.439  17.590  0.00  0.00    +0.000 A 
ATOM     25  O   UNL     1      10.986  14.522  17.086  0.00  0.00    +0.000 OA
ATOM     26  C   UNL     1      10.945  15.685  17.905  0.00  0.00    +0.000 C 
ATOM     27  C   UNL     1      12.090  15.694  18.915  0.00  0.00    +0.000 C 
ATOM     28  O   UNL     1      12.333  14.456  19.602  0.00  0.00    +0.000 OA
ENDBRANCH  18  19
ENDBRANCH  17  18
ENDBRANCH   3  17
TORSDOF 4
ENDMDL
MODEL 3
REMARK VINA RESULT:      -8.6      6.097      8.546
REMARK  Name = 
REMARK  5 active torsions:
REMARK  status: ('A' for Active; 'I' for Inactive)
REMARK    1  A    between atoms: C_1  and  N_2
REMARK    2  A    between atoms: C_4  and  C_5
REMARK    3  A    between atoms: N_7  and  C_8
REMARK    4  A    between atoms: C_8  and  C_9
REMARK    5  A    between atoms: C_9  and  C_10
REMARK                            x       y       z     vdW  Elec       q    Type
REMARK                         _______ _______ _______ _____ _____    ______ ____
ROOT
ATOM      1  C   UNL     1       2.231   7.277  19.457  0.00  0.00    +0.000 C 
ATOM      2  O   UNL     1       2.287   8.195  18.656  0.00  0.00    +0.000 OA
ATOM      3  N   UNL     1       1.870   7.410  20.775  0.00  0.00    +0.000 N 
ATOM      4  H   UNL     1       1.755   6.572  21.333  0.00  0.00    +0.000 HD
ENDROOT
BRANCH   1   8
ATOM      5  C   UNL     1       1.591   2.542  20.032  0.00  0.00    +0.000 C 
ATOM      6  N   UNL     1       2.250   3.592  19.280  0.00  0.00    +0.000 N 
ATOM      7  N   UNL     1       2.000   4.888  19.670  0.00  0.00    +0.000 NA
ATOM      8  C   UNL     1       2.592   5.853  19.029  0.00  0.00    +0.000 A 
ATOM      9  C   UNL     1       3.568   5.638  17.942  0.00  0.00    +0.000 A 
ATOM     10  C   UNL     1       4.317   6.667  17.352  0.00  0.00    +0.000 A 
ATOM     11  C   UNL     1       5.207   6.385  16.313  0.00  0.00    +0.000 A 
ATOM     12  C   UNL     1       5.361   5.077  15.861  0.00  0.00    +0.000 A 
ATOM     13  C   UNL     1       4.636   4.047  16.459  0.00  0.00    +0.000 A 
ATOM     14  C   UNL     1       3.749   4.331  17.508  0.00  0.00    +0.000 A 
ATOM     15  C   UNL     1       3.038   3.234  18.189  0.00  0.00    +0.000 A 
ATOM     16  O   UNL     1       3.187   2.079  17.800  0.00  0.00    +0.000 OA
ENDBRANCH   1   8
BRANCH   3  17
ATOM     17  C   UNL     1       1.665   8.732  21.330  0.00  0.00    +0.000 C 
BRANCH  17  18
ATOM     18  C   UNL     1       0.209   9.110  21.566  0.00  0.00    +0.000 C 
BRANCH  18  19
ATOM     19  C   UNL     1      -0.461  10.094  20.637  0.00  0.00    +0.000 A 
ATOM     20  C   UNL     1      -1.022  11.320  21.023  0.00  0.00    +0.000 A 
ATOM     21  C   UNL     1      -1.854  12.024  20.143  0.00  0.00    +0.000 A 
ATOM     22  C   UNL     1      -2.125  11.501  18.881  0.00  0.00    +0.000 A 
ATOM     23  C   UNL     1      -1.441  10.372  18.447  0.00  0.00    +0.000 A 
ATOM     24  C   UNL     1      -0.602   9.682  19.306  0.00  0.00    +0.000 A 
ATOM     25  O   UNL     1      -1.638   9.841  17.201  0.00  0.00    +0.000 OA
ATOM     26  C   UNL     1      -3.040   9.882  16.958  0.00  0.00    +0.000 C 
ATOM     27  C   UNL     1      -3.576  11.309  17.037  0.00  0.00    +0.000 C 
ATOM     28  O   UNL     1      -3.112  12.095  18.147  0.00  0.00    +0.000 OA
ENDBRANCH  18  19
ENDBRANCH  17  18
ENDBRANCH   3  17
TORSDOF 4
ENDMDL
MODEL 4
REMARK VINA RESULT:      -8.5      7.415      9.986
REMARK  Name = 
REMARK  5 active torsions:
REMARK  status: ('A' for Active; 'I' for Inactive)
REMARK    1  A    between atoms: C_1  and  N_2
REMARK    2  A    between atoms: C_4  and  C_5
REMARK    3  A    between atoms: N_7  and  C_8
REMARK    4  A    between atoms: C_8  and  C_9
REMARK    5  A    between atoms: C_9  and  C_10
REMARK                            x       y       z     vdW  Elec       q    Type
REMARK                         _______ _______ _______ _____ _____    ______ ____
ROOT
ATOM      1  C   UNL     1       0.675  10.676  18.973  0.00  0.00    +0.000 C 
ATOM      2  O   UNL     1       1.531  11.433  18.545  0.00  0.00    +0.000 OA
ATOM      3  N   UNL     1       0.866   9.339  19.219  0.00  0.00    +0.000 N 
ATOM      4  H   UNL     1       0.124   8.817  19.670  0.00  0.00    +0.000 HD
ENDROOT
BRANCH   1   8
ATOM      5  C   UNL     1      -2.307  13.009  21.943  0.00  0.00    +0.000 C 
ATOM      6  N   UNL     1      -2.148  12.341  20.666  0.00  0.00    +0.000 N 
ATOM      7  N   UNL     1      -0.907  11.813  20.390  0.00  0.00    +0.000 NA
ATOM      8  C   UNL     1      -0.737  11.188  19.261  0.00  0.00    +0.000 A 
ATOM      9  C   UNL     1      -1.817  10.958  18.281  0.00  0.00    +0.000 A 
ATOM     10  C   UNL     1      -1.673  10.159  17.137  0.00  0.00    +0.000 A 
ATOM     11  C   UNL     1      -2.738  10.006  16.245  0.00  0.00    +0.000 A 
ATOM     12  C   UNL     1      -3.951  10.643  16.491  0.00  0.00    +0.000 A 
ATOM     13  C   UNL     1      -4.107  11.419  17.638  0.00  0.00    +0.000 A 
ATOM     14  C   UNL     1      -3.040  11.564  18.537  0.00  0.00    +0.000 A 
ATOM     15  C   UNL     1      -3.226  12.324  19.786  0.00  0.00    +0.000 A 
ATOM     16  O   UNL     1      -4.303  12.872  20.009  0.00  0.00    +0.000 OA
ENDBRANCH   1   8
BRANCH   3  17
ATOM     17  C   UNL     1       2.113   8.711  18.831  0.00  0.00    +0.000 C 
BRANCH  17  18
ATOM     18  C   UNL     1       2.197   7.218  19.116  0.00  0.00    +0.000 C 
BRANCH  18  19
ATOM     19  C   UNL     1       2.928   6.318  18.147  0.00  0.00    +0.000 A 
ATOM     20  C   UNL     1       2.661   4.957  17.947  0.00  0.00    +0.000 A 
ATOM     21  C   UNL     1       3.565   4.157  17.237  0.00  0.00    +0.000 A 
ATOM     22  C   UNL     1       4.735   4.718  16.731  0.00  0.00    +0.000 A 
ATOM     23  C   UNL     1       4.916   6.095  16.793  0.00  0.00    +0.000 A 
ATOM     24  C   UNL     1       4.015   6.895  17.477  0.00  0.00    +0.000 A 
ATOM     25  O   UNL     1       6.026   6.703  16.275  0.00  0.00    +0.000 OA
ATOM     26  C   UNL     1       7.138   5.887  16.627  0.00  0.00    +0.000 C 
ATOM     27  C   UNL     1       6.983   4.470  16.080  0.00  0.00    +0.000 C 
ATOM     28  O   UNL     1       5.690   3.868  16.250  0.00  0.00    +0.000 OA
ENDBRANCH  18  19
ENDBRANCH  17  18
ENDBRANCH   3  17
TORSDOF 4
ENDMDL
MODEL 5
REMARK VINA RESULT:      -8.4      6.240      7.595
REMARK  Name = 
REMARK  5 active torsions:
REMARK  status: ('A' for Active; 'I' for Inactive)
REMARK    1  A    between atoms: C_1  and  N_2
REMARK    2  A    between atoms: C_4  and  C_5
REMARK    3  A    between atoms: N_7  and  C_8
REMARK    4  A    between atoms: C_8  and  C_9
REMARK    5  A    between atoms: C_9  and  C_10
REMARK                            x       y       z     vdW  Elec       q    Type
REMARK                         _______ _______ _______ _____ _____    ______ ____
ROOT
ATOM      1  C   UNL     1       2.146   7.208  19.531  0.00  0.00    +0.000 C 
ATOM      2  O   UNL     1       2.179   8.159  18.768  0.00  0.00    +0.000 OA
ATOM      3  N   UNL     1       1.733   7.269  20.839  0.00  0.00    +0.000 N 
ATOM      4  H   UNL     1       1.644   6.405  21.360  0.00  0.00    +0.000 HD
ENDROOT
BRANCH   1   8
ATOM      5  C   UNL     1       1.842   2.428  19.994  0.00  0.00    +0.000 C 
ATOM      6  N   UNL     1       2.416   3.539  19.261  0.00  0.00    +0.000 N 
ATOM      7  N   UNL     1       2.083   4.804  19.686  0.00  0.00    +0.000 NA
ATOM      8  C   UNL     1       2.598   5.824  19.062  0.00  0.00    +0.000 A 
ATOM      9  C   UNL     1       3.571   5.703  17.959  0.00  0.00    +0.000 A 
ATOM     10  C   UNL     1       4.238   6.795  17.385  0.00  0.00    +0.000 A 
ATOM     11  C   UNL     1       5.131   6.601  16.328  0.00  0.00    +0.000 A 
ATOM     12  C   UNL     1       5.368   5.318  15.842  0.00  0.00    +0.000 A 
ATOM     13  C   UNL     1       4.725   4.226  16.423  0.00  0.00    +0.000 A 
ATOM     14  C   UNL     1       3.836   4.423  17.489  0.00  0.00    +0.000 A 
ATOM     15  C   UNL     1       3.211   3.263  18.151  0.00  0.00    +0.000 A 
ATOM     16  O   UNL     1       3.434   2.130  17.731  0.00  0.00    +0.000 OA
ENDBRANCH   1   8
BRANCH   3  17
ATOM     17  C   UNL     1       1.437   8.555  21.436  0.00  0.00    +0.000 C 
BRANCH  17  18
ATOM     18  C   UNL     1      -0.027   8.970  21.375  0.00  0.00    +0.000 C 
BRANCH  18  19
ATOM     19  C   UNL     1      -0.422  10.177  20.556  0.00  0.00    +0.000 A 
ATOM     20  C   UNL     1      -0.825  10.148  19.214  0.00  0.00    +0.000 A 
ATOM     21  C   UNL     1      -0.903  11.336  18.475  0.00  0.00    +0.000 A 
ATOM     22  C   UNL     1      -0.575  12.547  19.077  0.00  0.00    +0.000 A 
ATOM     23  C   UNL     1      -0.333  12.588  20.446  0.00  0.00    +0.000 A 
ATOM     24  C   UNL     1      -0.273  11.419  21.186  0.00  0.00    +0.000 A 
ATOM     25  O   UNL     1      -0.047  13.758  21.095  0.00  0.00    +0.000 OA
ATOM     26  C   UNL     1       0.847  14.481  20.257  0.00  0.00    +0.000 C 
ATOM     27  C   UNL     1       0.230  14.751  18.887  0.00  0.00    +0.000 C 
ATOM     28  O   UNL     1      -0.442  13.641  18.270  0.00  0.00    +0.000 OA
ENDBRANCH  18  19
ENDBRANCH  17  18
ENDBRANCH   3  17
TORSDOF 4
ENDMDL
MODEL 6
REMARK VINA RESULT:      -8.4      6.912      9.415
REMARK  Name = 
REMARK  5 active torsions:
REMARK  status: ('A' for Active; 'I' for Inactive)
REMARK    1  A    between atoms: C_1  and  N_2
REMARK    2  A    between atoms: C_4  and  C_5
REMARK    3  A    between atoms: N_7  and  C_8
REMARK    4  A    between atoms: C_8  and  C_9
REMARK    5  A    between atoms: C_9  and  C_10
REMARK                            x       y       z     vdW  Elec       q    Type
REMARK                         _______ _______ _______ _____ _____    ______ ____
ROOT
ATOM      1  C   UNL     1       2.572   7.368  18.646  0.00  0.00    +0.000 C 
ATOM      2  O   UNL     1       2.317   7.284  19.835  0.00  0.00    +0.000 OA
ATOM      3  N   UNL     1       2.233   8.431  17.846  0.00  0.00    +0.000 N 
ATOM      4  H   UNL     1       2.580   8.453  16.894  0.00  0.00    +0.000 HD
ENDROOT
BRANCH   1   8
ATOM      5  C   UNL     1       6.249   5.989  15.863  0.00  0.00    +0.000 C 
ATOM      6  N   UNL     1       5.093   5.575  16.635  0.00  0.00    +0.000 N 
ATOM      7  N   UNL     1       4.366   6.570  17.247  0.00  0.00    +0.000 NA
ATOM      8  C   UNL     1       3.309   6.235  17.930  0.00  0.00    +0.000 A 
ATOM      9  C   UNL     1       2.808   4.850  18.036  0.00  0.00    +0.000 A 
ATOM     10  C   UNL     1       1.592   4.506  18.645  0.00  0.00    +0.000 A 
ATOM     11  C   UNL     1       1.196   3.169  18.725  0.00  0.00    +0.000 A 
ATOM     12  C   UNL     1       2.006   2.169  18.193  0.00  0.00    +0.000 A 
ATOM     13  C   UNL     1       3.204   2.507  17.566  0.00  0.00    +0.000 A 
ATOM     14  C   UNL     1       3.596   3.850  17.480  0.00  0.00    +0.000 A 
ATOM     15  C   UNL     1       4.826   4.214  16.755  0.00  0.00    +0.000 A 
ATOM     16  O   UNL     1       5.531   3.332  16.272  0.00  0.00    +0.000 OA
ENDBRANCH   1   8
BRANCH   3  17
ATOM     17  C   UNL     1       1.394   9.486  18.377  0.00  0.00    +0.000 C 
BRANCH  17  18
ATOM     18  C   UNL     1      -0.008   9.552  17.785  0.00  0.00    +0.000 C 
BRANCH  18  19
ATOM     19  C   UNL     1      -0.973  10.602  18.281  0.00  0.00    +0.000 A 
ATOM     20  C   UNL     1      -0.838  11.327  19.474  0.00  0.00    +0.000 A 
ATOM     21  C   UNL     1      -1.916  12.070  19.973  0.00  0.00    +0.000 A 
ATOM     22  C   UNL     1      -3.125  12.085  19.283  0.00  0.00    +0.000 A 
ATOM     23  C   UNL     1      -3.201  11.498  18.024  0.00  0.00    +0.000 A 
ATOM     24  C   UNL     1      -2.133  10.778  17.516  0.00  0.00    +0.000 A 
ATOM     25  O   UNL     1      -4.352  11.520  17.285  0.00  0.00    +0.000 OA
ATOM     26  C   UNL     1      -5.421  11.259  18.188  0.00  0.00    +0.000 C 
ATOM     27  C   UNL     1      -5.469  12.295  19.308  0.00  0.00    +0.000 C 
ATOM     28  O   UNL     1      -4.209  12.626  19.913  0.00  0.00    +0.000 OA
ENDBRANCH  18  19
ENDBRANCH  17  18
ENDBRANCH   3  17
TORSDOF 4
ENDMDL
MODEL 7
REMARK VINA RESULT:      -8.4      7.761     11.214
REMARK  Name = 
REMARK  5 active torsions:
REMARK  status: ('A' for Active; 'I' for Inactive)
REMARK    1  A    between atoms: C_1  and  N_2
REMARK    2  A    between atoms: C_4  and  C_5
REMARK    3  A    between atoms: N_7  and  C_8
REMARK    4  A    between atoms: C_8  and  C_9
REMARK    5  A    between atoms: C_9  and  C_10
REMARK                            x       y       z     vdW  Elec       q    Type
REMARK                         _______ _______ _______ _____ _____    ______ ____
ROOT
ATOM      1  C   UNL     1      -0.099  10.876  19.806  0.00  0.00    +0.000 C 
ATOM      2  O   UNL     1       0.822  11.612  19.497  0.00  0.00    +0.000 OA
ATOM      3  N   UNL     1       0.048   9.605  20.305  0.00  0.00    +0.000 N 
ATOM      4  H   UNL     1      -0.775   9.112  20.628  0.00  0.00    +0.000 HD
ENDROOT
BRANCH   1   8
ATOM      5  C   UNL     1      -3.901  13.201  21.624  0.00  0.00    +0.000 C 
ATOM      6  N   UNL     1      -3.348  12.484  20.491  0.00  0.00    +0.000 N 
ATOM      7  N   UNL     1      -2.066  12.001  20.625  0.00  0.00    +0.000 NA
ATOM      8  C   UNL     1      -1.549  11.335  19.634  0.00  0.00    +0.000 A 
ATOM      9  C   UNL     1      -2.280  11.012  18.393  0.00  0.00    +0.000 A 
ATOM     10  C   UNL     1      -1.778  10.170  17.389  0.00  0.00    +0.000 A 
ATOM     11  C   UNL     1      -2.523   9.929  16.232  0.00  0.00    +0.000 A 
ATOM     12  C   UNL     1      -3.774  10.520  16.072  0.00  0.00    +0.000 A 
ATOM     13  C   UNL     1      -4.287  11.339  17.076  0.00  0.00    +0.000 A 
ATOM     14  C   UNL     1      -3.542  11.572  18.241  0.00  0.00    +0.000 A 
ATOM     15  C   UNL     1      -4.115  12.379  19.333  0.00  0.00    +0.000 A 
ATOM     16  O   UNL     1      -5.225  12.886  19.197  0.00  0.00    +0.000 OA
ENDBRANCH   1   8
BRANCH   3  17
ATOM     17  C   UNL     1       1.367   9.007  20.358  0.00  0.00    +0.000 C 
BRANCH  17  18
ATOM     18  C   UNL     1       1.396   7.557  20.821  0.00  0.00    +0.000 C 
BRANCH  18  19
ATOM     19  C   UNL     1       2.111   6.525  19.980  0.00  0.00    +0.000 A 
ATOM     20  C   UNL     1       2.714   6.769  18.738  0.00  0.00    +0.000 A 
ATOM     21  C   UNL     1       3.106   5.700  17.922  0.00  0.00    +0.000 A 
ATOM     22  C   UNL     1       2.891   4.392  18.346  0.00  0.00    +0.000 A 
ATOM     23  C   UNL     1       2.443   4.157  19.641  0.00  0.00    +0.000 A 
ATOM     24  C   UNL     1       2.073   5.210  20.461  0.00  0.00    +0.000 A 
ATOM     25  O   UNL     1       2.255   2.890  20.122  0.00  0.00    +0.000 OA
ATOM     26  C   UNL     1       1.639   2.145  19.079  0.00  0.00    +0.000 C 
ATOM     27  C   UNL     1       2.503   2.130  17.821  0.00  0.00    +0.000 C 
ATOM     28  O   UNL     1       3.073   3.391  17.434  0.00  0.00    +0.000 OA
ENDBRANCH  18  19
ENDBRANCH  17  18
ENDBRANCH   3  17
TORSDOF 4
ENDMDL
MODEL 8
REMARK VINA RESULT:      -8.4      6.735      8.809
REMARK  Name = 
REMARK  5 active torsions:
REMARK  status: ('A' for Active; 'I' for Inactive)
REMARK    1  A    between atoms: C_1  and  N_2
REMARK    2  A    between atoms: C_4  and  C_5
REMARK    3  A    between atoms: N_7  and  C_8
REMARK    4  A    between atoms: C_8  and  C_9
REMARK    5  A    between atoms: C_9  and  C_10
REMARK                            x       y       z     vdW  Elec       q    Type
REMARK                         _______ _______ _______ _____ _____    ______ ____
ROOT
ATOM      1  C   UNL     1       2.583   7.943  18.075  0.00  0.00    +0.000 C 
ATOM      2  O   UNL     1       2.245   8.692  17.173  0.00  0.00    +0.000 OA
ATOM      3  N   UNL     1       2.092   7.990  19.356  0.00  0.00    +0.000 N 
ATOM      4  H   UNL     1       2.359   7.259  20.005  0.00  0.00    +0.000 HD
ENDROOT
BRANCH   1   8
ATOM      5  C   UNL     1       7.191   6.829  17.247  0.00  0.00    +0.000 C 
ATOM      6  N   UNL     1       5.848   6.333  17.476  0.00  0.00    +0.000 N 
ATOM      7  N   UNL     1       4.857   7.273  17.643  0.00  0.00    +0.000 NA
ATOM      8  C   UNL     1       3.637   6.861  17.829  0.00  0.00    +0.000 A 
ATOM      9  C   UNL     1       3.240   5.439  17.810  0.00  0.00    +0.000 A 
ATOM     10  C   UNL     1       1.908   5.001  17.862  0.00  0.00    +0.000 A 
ATOM     11  C   UNL     1       1.614   3.636  17.861  0.00  0.00    +0.000 A 
ATOM     12  C   UNL     1       2.644   2.700  17.802  0.00  0.00    +0.000 A 
ATOM     13  C   UNL     1       3.968   3.130  17.728  0.00  0.00    +0.000 A 
ATOM     14  C   UNL     1       4.260   4.501  17.720  0.00  0.00    +0.000 A 
ATOM     15  C   UNL     1       5.654   4.957  17.568  0.00  0.00    +0.000 A 
ATOM     16  O   UNL     1       6.560   4.131  17.500  0.00  0.00    +0.000 OA
ENDBRANCH   1   8
BRANCH   3  17
ATOM     17  C   UNL     1       1.212   9.073  19.745  0.00  0.00    +0.000 C 
BRANCH  17  18
ATOM     18  C   UNL     1       0.997   9.219  21.245  0.00  0.00    +0.000 C 
BRANCH  18  19
ATOM     19  C   UNL     1       0.027  10.258  21.757  0.00  0.00    +0.000 A 
ATOM     20  C   UNL     1      -0.526  10.284  23.045  0.00  0.00    +0.000 A 
ATOM     21  C   UNL     1      -1.613  11.121  23.329  0.00  0.00    +0.000 A 
ATOM     22  C   UNL     1      -2.146  11.926  22.326  0.00  0.00    +0.000 A 
ATOM     23  C   UNL     1      -1.494  12.015  21.101  0.00  0.00    +0.000 A 
ATOM     24  C   UNL     1      -0.407  11.205  20.820  0.00  0.00    +0.000 A 
ATOM     25  O   UNL     1      -1.952  12.823  20.096  0.00  0.00    +0.000 OA
ATOM     26  C   UNL     1      -3.367  12.676  20.067  0.00  0.00    +0.000 C 
ATOM     27  C   UNL     1      -3.992  13.060  21.406  0.00  0.00    +0.000 C 
ATOM     28  O   UNL     1      -3.336  12.548  22.577  0.00  0.00    +0.000 OA
ENDBRANCH  18  19
ENDBRANCH  17  18
ENDBRANCH   3  17
TORSDOF 4
ENDMDL
MODEL 9
REMARK VINA RESULT:      -8.4      6.494      8.437
REMARK  Name = 
REMARK  5 active torsions:
REMARK  status: ('A' for Active; 'I' for Inactive)
REMARK    1  A    between atoms: C_1  and  N_2
REMARK    2  A    between atoms: C_4  and  C_5
REMARK    3  A    between atoms: N_7  and  C_8
REMARK    4  A    between atoms: C_8  and  C_9
REMARK    5  A    between atoms: C_9  and  C_10
REMARK                            x       y       z     vdW  Elec       q    Type
REMARK                         _______ _______ _______ _____ _____    ______ ____
ROOT
ATOM      1  C   UNL     1       2.233   7.056  18.982  0.00  0.00    +0.000 C 
ATOM      2  O   UNL     1       2.075   7.867  18.085  0.00  0.00    +0.000 OA
ATOM      3  N   UNL     1       2.022   7.312  20.314  0.00  0.00    +0.000 N 
ATOM      4  H   UNL     1       2.081   6.544  20.971  0.00  0.00    +0.000 HD
ENDROOT
BRANCH   1   8
ATOM      5  C   UNL     1       1.890   2.332  19.835  0.00  0.00    +0.000 C 
ATOM      6  N   UNL     1       2.515   3.378  19.050  0.00  0.00    +0.000 N 
ATOM      7  N   UNL     1       2.155   4.674  19.340  0.00  0.00    +0.000 NA
ATOM      8  C   UNL     1       2.714   5.638  18.668  0.00  0.00    +0.000 A 
ATOM      9  C   UNL     1       3.762   5.426  17.649  0.00  0.00    +0.000 A 
ATOM     10  C   UNL     1       4.469   6.468  17.031  0.00  0.00    +0.000 A 
ATOM     11  C   UNL     1       5.434   6.187  16.060  0.00  0.00    +0.000 A 
ATOM     12  C   UNL     1       5.702   4.868  15.705  0.00  0.00    +0.000 A 
ATOM     13  C   UNL     1       5.018   3.828  16.332  0.00  0.00    +0.000 A 
ATOM     14  C   UNL     1       4.057   4.112  17.312  0.00  0.00    +0.000 A 
ATOM     15  C   UNL     1       3.386   3.011  18.027  0.00  0.00    +0.000 A 
ATOM     16  O   UNL     1       3.635   1.847  17.723  0.00  0.00    +0.000 OA
ENDBRANCH   1   8
BRANCH   3  17
ATOM     17  C   UNL     1       1.722   8.663  20.743  0.00  0.00    +0.000 C 
BRANCH  17  18
ATOM     18  C   UNL     1       0.706   8.767  21.873  0.00  0.00    +0.000 C 
BRANCH  18  19
ATOM     19  C   UNL     1      -0.135  10.016  22.001  0.00  0.00    +0.000 A 
ATOM     20  C   UNL     1      -0.768  10.449  23.174  0.00  0.00    +0.000 A 
ATOM     21  C   UNL     1      -1.738  11.458  23.121  0.00  0.00    +0.000 A 
ATOM     22  C   UNL     1      -2.076  12.029  21.897  0.00  0.00    +0.000 A 
ATOM     23  C   UNL     1      -1.333  11.711  20.765  0.00  0.00    +0.000 A 
ATOM     24  C   UNL     1      -0.359  10.728  20.815  0.00  0.00    +0.000 A 
ATOM     25  O   UNL     1      -1.594  12.274  19.546  0.00  0.00    +0.000 OA
ATOM     26  C   UNL     1      -3.010  12.300  19.405  0.00  0.00    +0.000 C 
ATOM     27  C   UNL     1      -3.666  13.098  20.529  0.00  0.00    +0.000 C 
ATOM     28  O   UNL     1      -3.176  12.836  21.855  0.00  0.00    +0.000 OA
ENDBRANCH  18  19
ENDBRANCH  17  18
ENDBRANCH   3  17
TORSDOF 4
ENDMDL
