MODEL 1
REMARK VINA RESULT:      -7.5      0.000      0.000
REMARK  Name = 
REMARK  7 active torsions:
REMARK  status: ('A' for Active; 'I' for Inactive)
REMARK    1  A    between atoms: C_1  and  C_2
REMARK    2  A    between atoms: C_2  and  N_3
REMARK    3  A    between atoms: C_2  and  C_4
REMARK    4  A    between atoms: N_6  and  C_7
REMARK    5  A    between atoms: C_13  and  C_14
REMARK    6  A    between atoms: N_16  and  C_17
REMARK    7  A    between atoms: C_17  and  C_18
REMARK                            x       y       z     vdW  Elec       q    Type
REMARK                         _______ _______ _______ _____ _____    ______ ____
ROOT
ATOM      1  C   UNL     1       3.547   3.014  17.042  0.00  0.00    +0.000 C 
ATOM      2  C   UNL     1       3.626   1.675  17.819  0.00  0.00    +0.000 C 
ATOM      3  C   UNL     1       3.680   1.915  19.333  0.00  0.00    +0.000 C 
ATOM      4  C   UNL     1       2.553   2.840  19.783  0.00  0.00    +0.000 C 
ATOM      5  C   UNL     1       2.694   3.309  21.212  0.00  0.00    +0.000 C 
ATOM      6  C   UNL     1       1.723   4.474  21.271  0.00  0.00    +0.000 C 
ATOM      7  C   UNL     1       1.690   5.047  19.831  0.00  0.00    +0.000 C 
ATOM      8  N   UNL     1       2.592   4.129  19.063  0.00  0.00    +0.000 NA
ATOM      9  C   UNL     1       2.354   3.864  17.630  0.00  0.00    +0.000 C 
ENDROOT
BRANCH   1  12
ATOM     10  C   UNL     1       5.634   4.160  16.036  0.00  0.00    +0.000 C 
ATOM     11  O   UNL     1       5.196   4.249  14.916  0.00  0.00    +0.000 OA
ATOM     12  N   UNL     1       4.900   3.647  17.081  0.00  0.00    +0.000 N 
ATOM     13  H   UNL     1       5.327   3.796  18.001  0.00  0.00    +0.000 HD
BRANCH  10  15
ATOM     14  C   UNL     1       7.370   4.716  17.895  0.00  0.00    +0.000 C 
ATOM     15  C   UNL     1       7.110   4.596  16.388  0.00  0.00    +0.000 C 
BRANCH  15  16
ATOM     16  N   UNL     1       7.483   5.896  15.781  0.00  0.00    +0.000 NA
ATOM     17  H   UNL     1       8.019   5.685  14.938  0.00  0.00    +0.000 HD
ATOM     18  H   UNL     1       6.627   6.313  15.421  0.00  0.00    +0.000 HD
ENDBRANCH  15  16
ENDBRANCH  10  15
ENDBRANCH   1  12
BRANCH   7  19
ATOM     19  C   UNL     1       2.189   6.523  19.941  0.00  0.00    +0.000 C 
ATOM     20  O   UNL     1       3.087   6.934  19.211  0.00  0.00    +0.000 OA
ATOM     21  N   UNL     1       1.479   7.372  20.766  0.00  0.00    +0.000 N 
ATOM     22  H   UNL     1       0.897   6.914  21.465  0.00  0.00    +0.000 HD
BRANCH  21  23
ATOM     23  C   UNL     1       1.889   8.754  20.943  0.00  0.00    +0.000 C 
BRANCH  23  24
ATOM     24  C   UNL     1       0.796   9.622  21.520  0.00  0.00    +0.000 A 
ATOM     25  C   UNL     1       0.302  10.741  20.831  0.00  0.00    +0.000 A 
ATOM     26  C   UNL     1      -0.718  11.527  21.381  0.00  0.00    +0.000 A 
ATOM     27  C   UNL     1      -1.267  11.193  22.618  0.00  0.00    +0.000 A 
ATOM     28  C   UNL     1      -0.809  10.067  23.297  0.00  0.00    +0.000 A 
ATOM     29  C   UNL     1       0.209   9.283  22.749  0.00  0.00    +0.000 A 
ENDBRANCH  23  24
ENDBRANCH  21  23
ENDBRANCH   7  19
TORSDOF 6
ENDMDL
MODEL 2
REMARK VINA RESULT:      -7.5      2.255      8.014
REMARK  Name = 
REMARK  7 active torsions:
REMARK  status: ('A' for Active; 'I' for Inactive)
REMARK    1  A    between atoms: C_1  and  C_2
REMARK    2  A    between atoms: C_2  and  N_3
REMARK    3  A    between atoms: C_2  and  C_4
REMARK    4  A    between atoms: N_6  and  C_7
REMARK    5  A    between atoms: C_13  and  C_14
REMARK    6  A    between atoms: N_16  and  C_17
REMARK    7  A    between atoms: C_17  and  C_18
REMARK                            x       y       z     vdW  Elec       q    Type
REMARK                         _______ _______ _______ _____ _____    ______ ____
ROOT
ATOM      1  C   UNL     1       2.059   5.395  20.821  0.00  0.00    +0.000 C 
ATOM      2  C   UNL     1       0.795   4.593  20.417  0.00  0.00    +0.000 C 
ATOM      3  C   UNL     1       0.966   3.950  19.034  0.00  0.00    +0.000 C 
ATOM      4  C   UNL     1       2.267   3.159  18.953  0.00  0.00    +0.000 C 
ATOM      5  C   UNL     1       2.611   2.708  17.553  0.00  0.00    +0.000 C 
ATOM      6  C   UNL     1       4.073   2.323  17.683  0.00  0.00    +0.000 C 
ATOM      7  C   UNL     1       4.633   3.229  18.810  0.00  0.00    +0.000 C 
ATOM      8  N   UNL     1       3.435   4.007  19.266  0.00  0.00    +0.000 NA
ATOM      9  C   UNL     1       3.318   4.455  20.668  0.00  0.00    +0.000 C 
ENDROOT
BRANCH   1  12
ATOM     10  C   UNL     1       1.641   7.912  20.410  0.00  0.00    +0.000 C 
ATOM     11  O   UNL     1       1.274   8.159  21.531  0.00  0.00    +0.000 OA
ATOM     12  N   UNL     1       2.071   6.660  20.029  0.00  0.00    +0.000 N 
ATOM     13  H   UNL     1       2.518   6.638  19.106  0.00  0.00    +0.000 HD
BRANCH  10  15
ATOM     14  C   UNL     1       0.304   9.781  19.187  0.00  0.00    +0.000 C 
ATOM     15  C   UNL     1       1.623   9.004  19.270  0.00  0.00    +0.000 C 
BRANCH  15  16
ATOM     16  N   UNL     1       1.870   8.430  17.925  0.00  0.00    +0.000 NA
ATOM     17  H   UNL     1       2.234   9.187  17.344  0.00  0.00    +0.000 HD
ATOM     18  H   UNL     1       2.660   7.795  18.012  0.00  0.00    +0.000 HD
ENDBRANCH  15  16
ENDBRANCH  10  15
ENDBRANCH   1  12
BRANCH   7  19
ATOM     19  C   UNL     1       5.765   4.083  18.156  0.00  0.00    +0.000 C 
ATOM     20  O   UNL     1       6.683   4.528  18.838  0.00  0.00    +0.000 OA
ATOM     21  N   UNL     1       5.773   4.176  16.779  0.00  0.00    +0.000 N 
ATOM     22  H   UNL     1       4.890   3.957  16.322  0.00  0.00    +0.000 HD
BRANCH  21  23
ATOM     23  C   UNL     1       6.778   4.969  16.092  0.00  0.00    +0.000 C 
BRANCH  23  24
ATOM     24  C   UNL     1       6.825   4.698  14.606  0.00  0.00    +0.000 A 
ATOM     25  C   UNL     1       7.735   5.359  13.765  0.00  0.00    +0.000 A 
ATOM     26  C   UNL     1       7.767   5.086  12.392  0.00  0.00    +0.000 A 
ATOM     27  C   UNL     1       6.903   4.138  11.848  0.00  0.00    +0.000 A 
ATOM     28  C   UNL     1       6.019   3.451  12.676  0.00  0.00    +0.000 A 
ATOM     29  C   UNL     1       5.985   3.724  14.045  0.00  0.00    +0.000 A 
ENDBRANCH  23  24
ENDBRANCH  21  23
ENDBRANCH   7  19
TORSDOF 6
ENDMDL
MODEL 3
REMARK VINA RESULT:      -7.5      0.791      1.371
REMARK  Name = 
REMARK  7 active torsions:
REMARK  status: ('A' for Active; 'I' for Inactive)
REMARK    1  A    between atoms: C_1  and  C_2
REMARK    2  A    between atoms: C_2  and  N_3
REMARK    3  A    between atoms: C_2  and  C_4
REMARK    4  A    between atoms: N_6  and  C_7
REMARK    5  A    between atoms: C_13  and  C_14
REMARK    6  A    between atoms: N_16  and  C_17
REMARK    7  A    between atoms: C_17  and  C_18
REMARK                            x       y       z     vdW  Elec       q    Type
REMARK                         _______ _______ _______ _____ _____    ______ ____
ROOT
ATOM      1  C   UNL     1       3.537   3.248  16.957  0.00  0.00    +0.000 C 
ATOM      2  C   UNL     1       3.677   1.836  17.581  0.00  0.00    +0.000 C 
ATOM      3  C   UNL     1       3.730   1.910  19.113  0.00  0.00    +0.000 C 
ATOM      4  C   UNL     1       2.567   2.730  19.663  0.00  0.00    +0.000 C 
ATOM      5  C   UNL     1       2.696   3.044  21.135  0.00  0.00    +0.000 C 
ATOM      6  C   UNL     1       1.677   4.153  21.323  0.00  0.00    +0.000 C 
ATOM      7  C   UNL     1       1.611   4.880  19.956  0.00  0.00    +0.000 C 
ATOM      8  N   UNL     1       2.548   4.091  19.090  0.00  0.00    +0.000 NA
ATOM      9  C   UNL     1       2.313   3.976  17.637  0.00  0.00    +0.000 C 
ENDROOT
BRANCH   1  12
ATOM     10  C   UNL     1       5.774   4.186  16.066  0.00  0.00    +0.000 C 
ATOM     11  O   UNL     1       5.547   3.962  14.904  0.00  0.00    +0.000 OA
ATOM     12  N   UNL     1       4.862   3.930  17.065  0.00  0.00    +0.000 N 
ATOM     13  H   UNL     1       5.116   4.332  17.973  0.00  0.00    +0.000 HD
BRANCH  10  15
ATOM     14  C   UNL     1       7.346   4.740  18.067  0.00  0.00    +0.000 C 
ATOM     15  C   UNL     1       7.164   4.765  16.544  0.00  0.00    +0.000 C 
BRANCH  15  16
ATOM     16  N   UNL     1       7.382   6.164  16.107  0.00  0.00    +0.000 NA
ATOM     17  H   UNL     1       7.805   6.121  15.179  0.00  0.00    +0.000 HD
ATOM     18  H   UNL     1       6.464   6.568  15.931  0.00  0.00    +0.000 HD
ENDBRANCH  15  16
ENDBRANCH  10  15
ENDBRANCH   1  12
BRANCH   7  19
ATOM     19  C   UNL     1       2.048   6.354  20.227  0.00  0.00    +0.000 C 
ATOM     20  O   UNL     1       2.971   6.858  19.593  0.00  0.00    +0.000 OA
ATOM     21  N   UNL     1       1.261   7.101  21.081  0.00  0.00    +0.000 N 
ATOM     22  H   UNL     1       0.658   6.563  21.700  0.00  0.00    +0.000 HD
BRANCH  21  23
ATOM     23  C   UNL     1       1.609   8.473  21.405  0.00  0.00    +0.000 C 
BRANCH  23  24
ATOM     24  C   UNL     1       0.693   9.482  20.752  0.00  0.00    +0.000 A 
ATOM     25  C   UNL     1      -0.122  10.337  21.511  0.00  0.00    +0.000 A 
ATOM     26  C   UNL     1      -0.957  11.270  20.885  0.00  0.00    +0.000 A 
ATOM     27  C   UNL     1      -0.975  11.370  19.494  0.00  0.00    +0.000 A 
ATOM     28  C   UNL     1      -0.147  10.550  18.731  0.00  0.00    +0.000 A 
ATOM     29  C   UNL     1       0.685   9.618  19.355  0.00  0.00    +0.000 A 
ENDBRANCH  23  24
ENDBRANCH  21  23
ENDBRANCH   7  19
TORSDOF 6
ENDMDL
MODEL 4
REMARK VINA RESULT:      -7.4      1.030      1.382
REMARK  Name = 
REMARK  7 active torsions:
REMARK  status: ('A' for Active; 'I' for Inactive)
REMARK    1  A    between atoms: C_1  and  C_2
REMARK    2  A    between atoms: C_2  and  N_3
REMARK    3  A    between atoms: C_2  and  C_4
REMARK    4  A    between atoms: N_6  and  C_7
REMARK    5  A    between atoms: C_13  and  C_14
REMARK    6  A    between atoms: N_16  and  C_17
REMARK    7  A    between atoms: C_17  and  C_18
REMARK                            x       y       z     vdW  Elec       q    Type
REMARK                         _______ _______ _______ _____ _____    ______ ____
ROOT
ATOM      1  C   UNL     1       3.830   3.027  17.147  0.00  0.00    +0.000 C 
ATOM      2  C   UNL     1       3.893   1.637  17.831  0.00  0.00    +0.000 C 
ATOM      3  C   UNL     1       3.807   1.766  19.357  0.00  0.00    +0.000 C 
ATOM      4  C   UNL     1       2.612   2.619  19.770  0.00  0.00    +0.000 C 
ATOM      5  C   UNL     1       2.612   2.985  21.236  0.00  0.00    +0.000 C 
ATOM      6  C   UNL     1       1.596   4.112  21.291  0.00  0.00    +0.000 C 
ATOM      7  C   UNL     1       1.665   4.789  19.898  0.00  0.00    +0.000 C 
ATOM      8  N   UNL     1       2.664   3.958  19.149  0.00  0.00    +0.000 NA
ATOM      9  C   UNL     1       2.560   3.792  17.686  0.00  0.00    +0.000 C 
ENDROOT
BRANCH   1  12
ATOM     10  C   UNL     1       5.553   4.939  16.915  0.00  0.00    +0.000 C 
ATOM     11  O   UNL     1       4.805   5.712  16.370  0.00  0.00    +0.000 OA
ATOM     12  N   UNL     1       5.149   3.697  17.350  0.00  0.00    +0.000 N 
ATOM     13  H   UNL     1       5.834   3.224  17.948  0.00  0.00    +0.000 HD
BRANCH  10  15
ATOM     14  C   UNL     1       7.440   5.514  18.613  0.00  0.00    +0.000 C 
ATOM     15  C   UNL     1       7.078   5.279  17.141  0.00  0.00    +0.000 C 
BRANCH  15  16
ATOM     16  N   UNL     1       7.513   6.483  16.393  0.00  0.00    +0.000 NA
ATOM     17  H   UNL     1       6.858   6.601  15.619  0.00  0.00    +0.000 HD
ATOM     18  H   UNL     1       7.327   7.287  16.988  0.00  0.00    +0.000 HD
ENDBRANCH  15  16
ENDBRANCH  10  15
ENDBRANCH   1  12
BRANCH   7  19
ATOM     19  C   UNL     1       2.096   6.267  20.155  0.00  0.00    +0.000 C 
ATOM     20  O   UNL     1       3.009   6.772  19.508  0.00  0.00    +0.000 OA
ATOM     21  N   UNL     1       1.315   7.014  21.014  0.00  0.00    +0.000 N 
ATOM     22  H   UNL     1       0.722   6.477  21.642  0.00  0.00    +0.000 HD
BRANCH  21  23
ATOM     23  C   UNL     1       1.658   8.391  21.325  0.00  0.00    +0.000 C 
BRANCH  23  24
ATOM     24  C   UNL     1       0.794   9.392  20.595  0.00  0.00    +0.000 A 
ATOM     25  C   UNL     1       0.862   9.546  19.201  0.00  0.00    +0.000 A 
ATOM     26  C   UNL     1       0.046  10.475  18.544  0.00  0.00    +0.000 A 
ATOM     27  C   UNL     1      -0.859  11.247  19.270  0.00  0.00    +0.000 A 
ATOM     28  C   UNL     1      -0.960  11.081  20.650  0.00  0.00    +0.000 A 
ATOM     29  C   UNL     1      -0.145  10.156  21.306  0.00  0.00    +0.000 A 
ENDBRANCH  23  24
ENDBRANCH  21  23
ENDBRANCH   7  19
TORSDOF 6
ENDMDL
MODEL 5
REMARK VINA RESULT:      -7.4      0.747      1.206
REMARK  Name = 
REMARK  7 active torsions:
REMARK  status: ('A' for Active; 'I' for Inactive)
REMARK    1  A    between atoms: C_1  and  C_2
REMARK    2  A    between atoms: C_2  and  N_3
REMARK    3  A    between atoms: C_2  and  C_4
REMARK    4  A    between atoms: N_6  and  C_7
REMARK    5  A    between atoms: C_13  and  C_14
REMARK    6  A    between atoms: N_16  and  C_17
REMARK    7  A    between atoms: C_17  and  C_18
REMARK                            x       y       z     vdW  Elec       q    Type
REMARK                         _______ _______ _______ _____ _____    ______ ____
ROOT
ATOM      1  C   UNL     1       3.615   3.199  16.994  0.00  0.00    +0.000 C 
ATOM      2  C   UNL     1       3.663   1.807  17.676  0.00  0.00    +0.000 C 
ATOM      3  C   UNL     1       3.642   1.938  19.204  0.00  0.00    +0.000 C 
ATOM      4  C   UNL     1       2.491   2.827  19.664  0.00  0.00    +0.000 C 
ATOM      5  C   UNL     1       2.560   3.192  21.128  0.00  0.00    +0.000 C 
ATOM      6  C   UNL     1       1.582   4.349  21.223  0.00  0.00    +0.000 C 
ATOM      7  C   UNL     1       1.615   5.024  19.828  0.00  0.00    +0.000 C 
ATOM      8  N   UNL     1       2.558   4.164  19.040  0.00  0.00    +0.000 NA
ATOM      9  C   UNL     1       2.391   4.002  17.583  0.00  0.00    +0.000 C 
ENDROOT
BRANCH   1  12
ATOM     10  C   UNL     1       5.348   5.107  16.809  0.00  0.00    +0.000 C 
ATOM     11  O   UNL     1       4.570   5.942  16.424  0.00  0.00    +0.000 OA
ATOM     12  N   UNL     1       4.960   3.829  17.144  0.00  0.00    +0.000 N 
ATOM     13  H   UNL     1       5.687   3.285  17.621  0.00  0.00    +0.000 HD
BRANCH  10  15
ATOM     14  C   UNL     1       7.211   6.728  17.632  0.00  0.00    +0.000 C 
ATOM     15  C   UNL     1       6.894   5.404  16.927  0.00  0.00    +0.000 C 
BRANCH  15  16
ATOM     16  N   UNL     1       7.571   5.445  15.609  0.00  0.00    +0.000 NA
ATOM     17  H   UNL     1       7.722   4.476  15.325  0.00  0.00    +0.000 HD
ATOM     18  H   UNL     1       6.890   5.787  14.935  0.00  0.00    +0.000 HD
ENDBRANCH  15  16
ENDBRANCH  10  15
ENDBRANCH   1  12
BRANCH   7  19
ATOM     19  C   UNL     1       2.101   6.488  20.067  0.00  0.00    +0.000 C 
ATOM     20  O   UNL     1       2.891   7.018  19.290  0.00  0.00    +0.000 OA
ATOM     21  N   UNL     1       1.490   7.201  21.079  0.00  0.00    +0.000 N 
ATOM     22  H   UNL     1       1.011   6.639  21.780  0.00  0.00    +0.000 HD
BRANCH  21  23
ATOM     23  C   UNL     1       1.898   8.562  21.383  0.00  0.00    +0.000 C 
BRANCH  23  24
ATOM     24  C   UNL     1       0.732   9.467  21.703  0.00  0.00    +0.000 A 
ATOM     25  C   UNL     1       0.129   9.472  22.972  0.00  0.00    +0.000 A 
ATOM     26  C   UNL     1      -0.946  10.325  23.249  0.00  0.00    +0.000 A 
ATOM     27  C   UNL     1      -1.418  11.195  22.268  0.00  0.00    +0.000 A 
ATOM     28  C   UNL     1      -0.808  11.224  21.016  0.00  0.00    +0.000 A 
ATOM     29  C   UNL     1       0.263  10.372  20.739  0.00  0.00    +0.000 A 
ENDBRANCH  23  24
ENDBRANCH  21  23
ENDBRANCH   7  19
TORSDOF 6
ENDMDL
MODEL 6
REMARK VINA RESULT:      -7.4      2.380      8.002
REMARK  Name = 
REMARK  7 active torsions:
REMARK  status: ('A' for Active; 'I' for Inactive)
REMARK    1  A    between atoms: C_1  and  C_2
REMARK    2  A    between atoms: C_2  and  N_3
REMARK    3  A    between atoms: C_2  and  C_4
REMARK    4  A    between atoms: N_6  and  C_7
REMARK    5  A    between atoms: C_13  and  C_14
REMARK    6  A    between atoms: N_16  and  C_17
REMARK    7  A    between atoms: C_17  and  C_18
REMARK                            x       y       z     vdW  Elec       q    Type
REMARK                         _______ _______ _______ _____ _____    ______ ____
ROOT
ATOM      1  C   UNL     1       1.916   5.264  20.798  0.00  0.00    +0.000 C 
ATOM      2  C   UNL     1       0.728   4.332  20.446  0.00  0.00    +0.000 C 
ATOM      3  C   UNL     1       0.955   3.629  19.102  0.00  0.00    +0.000 C 
ATOM      4  C   UNL     1       2.322   2.952  19.060  0.00  0.00    +0.000 C 
ATOM      5  C   UNL     1       2.705   2.454  17.687  0.00  0.00    +0.000 C 
ATOM      6  C   UNL     1       4.195   2.207  17.832  0.00  0.00    +0.000 C 
ATOM      7  C   UNL     1       4.672   3.222  18.902  0.00  0.00    +0.000 C 
ATOM      8  N   UNL     1       3.410   3.917  19.319  0.00  0.00    +0.000 NA
ATOM      9  C   UNL     1       3.253   4.432  20.693  0.00  0.00    +0.000 C 
ENDROOT
BRANCH   1  12
ATOM     10  C   UNL     1       1.548   7.776  20.311  0.00  0.00    +0.000 C 
ATOM     11  O   UNL     1       1.454   8.111  21.465  0.00  0.00    +0.000 OA
ATOM     12  N   UNL     1       1.817   6.479  19.935  0.00  0.00    +0.000 N 
ATOM     13  H   UNL     1       2.045   6.373  18.941  0.00  0.00    +0.000 HD
BRANCH  10  15
ATOM     14  C   UNL     1       2.426   8.731  18.054  0.00  0.00    +0.000 C 
ATOM     15  C   UNL     1       1.333   8.799  19.128  0.00  0.00    +0.000 C 
BRANCH  15  16
ATOM     16  N   UNL     1       1.271  10.205  19.592  0.00  0.00    +0.000 NA
ATOM     17  H   UNL     1       2.164  10.406  20.046  0.00  0.00    +0.000 HD
ATOM     18  H   UNL     1       1.288  10.794  18.762  0.00  0.00    +0.000 HD
ENDBRANCH  15  16
ENDBRANCH  10  15
ENDBRANCH   1  12
BRANCH   7  19
ATOM     19  C   UNL     1       5.725   4.134  18.196  0.00  0.00    +0.000 C 
ATOM     20  O   UNL     1       6.560   4.747  18.853  0.00  0.00    +0.000 OA
ATOM     21  N   UNL     1       5.774   4.092  16.817  0.00  0.00    +0.000 N 
ATOM     22  H   UNL     1       4.940   3.728  16.361  0.00  0.00    +0.000 HD
BRANCH  21  23
ATOM     23  C   UNL     1       6.709   4.925  16.080  0.00  0.00    +0.000 C 
BRANCH  23  24
ATOM     24  C   UNL     1       6.751   4.598  14.606  0.00  0.00    +0.000 A 
ATOM     25  C   UNL     1       5.845   3.696  14.024  0.00  0.00    +0.000 A 
ATOM     26  C   UNL     1       5.897   3.414  12.654  0.00  0.00    +0.000 A 
ATOM     27  C   UNL     1       6.843   4.044  11.846  0.00  0.00    +0.000 A 
ATOM     28  C   UNL     1       7.726   4.965  12.404  0.00  0.00    +0.000 A 
ATOM     29  C   UNL     1       7.675   5.245  13.771  0.00  0.00    +0.000 A 
ENDBRANCH  23  24
ENDBRANCH  21  23
ENDBRANCH   7  19
TORSDOF 6
ENDMDL
MODEL 7
REMARK VINA RESULT:      -7.4      3.483      8.702
REMARK  Name = 
REMARK  7 active torsions:
REMARK  status: ('A' for Active; 'I' for Inactive)
REMARK    1  A    between atoms: C_1  and  C_2
REMARK    2  A    between atoms: C_2  and  N_3
REMARK    3  A    between atoms: C_2  and  C_4
REMARK    4  A    between atoms: N_6  and  C_7
REMARK    5  A    between atoms: C_13  and  C_14
REMARK    6  A    between atoms: N_16  and  C_17
REMARK    7  A    between atoms: C_17  and  C_18
REMARK                            x       y       z     vdW  Elec       q    Type
REMARK                         _______ _______ _______ _____ _____    ______ ____
ROOT
ATOM      1  C   UNL     1      -1.112  12.756  20.460  0.00  0.00    +0.000 C 
ATOM      2  C   UNL     1      -1.787  12.850  21.853  0.00  0.00    +0.000 C 
ATOM      3  C   UNL     1      -1.798  11.487  22.556  0.00  0.00    +0.000 C 
ATOM      4  C   UNL     1      -0.405  10.865  22.570  0.00  0.00    +0.000 C 
ATOM      5  C   UNL     1      -0.394   9.425  23.028  0.00  0.00    +0.000 C 
ATOM      6  C   UNL     1       0.977   8.951  22.581  0.00  0.00    +0.000 C 
ATOM      7  C   UNL     1       1.312   9.802  21.329  0.00  0.00    +0.000 C 
ATOM      8  N   UNL     1       0.139  10.727  21.204  0.00  0.00    +0.000 NA
ATOM      9  C   UNL     1       0.302  12.078  20.634  0.00  0.00    +0.000 C 
ENDROOT
BRANCH   1  12
ATOM     10  C   UNL     1      -2.029  12.019  18.159  0.00  0.00    +0.000 C 
ATOM     11  O   UNL     1      -1.109  12.454  17.515  0.00  0.00    +0.000 OA
ATOM     12  N   UNL     1      -2.068  12.077  19.534  0.00  0.00    +0.000 N 
ATOM     13  H   UNL     1      -2.815  11.515  19.953  0.00  0.00    +0.000 HD
BRANCH  10  15
ATOM     14  C   UNL     1      -3.399   9.857  17.678  0.00  0.00    +0.000 C 
ATOM     15  C   UNL     1      -3.294  11.373  17.468  0.00  0.00    +0.000 C 
BRANCH  15  16
ATOM     16  N   UNL     1      -3.330  11.608  16.005  0.00  0.00    +0.000 NA
ATOM     17  H   UNL     1      -4.209  11.217  15.665  0.00  0.00    +0.000 HD
ATOM     18  H   UNL     1      -3.446  12.610  15.867  0.00  0.00    +0.000 HD
ENDBRANCH  15  16
ENDBRANCH  10  15
ENDBRANCH   1  12
BRANCH   7  19
ATOM     19  C   UNL     1       1.484   8.791  20.152  0.00  0.00    +0.000 C 
ATOM     20  O   UNL     1       1.185   9.112  19.005  0.00  0.00    +0.000 OA
ATOM     21  N   UNL     1       2.126   7.600  20.428  0.00  0.00    +0.000 N 
ATOM     22  H   UNL     1       2.154   7.338  21.411  0.00  0.00    +0.000 HD
BRANCH  21  23
ATOM     23  C   UNL     1       2.307   6.595  19.395  0.00  0.00    +0.000 C 
BRANCH  23  24
ATOM     24  C   UNL     1       1.970   5.200  19.867  0.00  0.00    +0.000 A 
ATOM     25  C   UNL     1       1.396   4.249  19.008  0.00  0.00    +0.000 A 
ATOM     26  C   UNL     1       1.100   2.959  19.465  0.00  0.00    +0.000 A 
ATOM     27  C   UNL     1       1.391   2.600  20.780  0.00  0.00    +0.000 A 
ATOM     28  C   UNL     1       1.991   3.523  21.633  0.00  0.00    +0.000 A 
ATOM     29  C   UNL     1       2.285   4.810  21.178  0.00  0.00    +0.000 A 
ENDBRANCH  23  24
ENDBRANCH  21  23
ENDBRANCH   7  19
TORSDOF 6
ENDMDL
MODEL 8
REMARK VINA RESULT:      -7.3      2.078      2.148
REMARK  Name = 
REMARK  7 active torsions:
REMARK  status: ('A' for Active; 'I' for Inactive)
REMARK    1  A    between atoms: C_1  and  C_2
REMARK    2  A    between atoms: C_2  and  N_3
REMARK    3  A    between atoms: C_2  and  C_4
REMARK    4  A    between atoms: N_6  and  C_7
REMARK    5  A    between atoms: C_13  and  C_14
REMARK    6  A    between atoms: N_16  and  C_17
REMARK    7  A    between atoms: C_17  and  C_18
REMARK                            x       y       z     vdW  Elec       q    Type
REMARK                         _______ _______ _______ _____ _____    ______ ____
ROOT
ATOM      1  C   UNL     1       3.695   2.668  17.354  0.00  0.00    +0.000 C 
ATOM      2  C   UNL     1       3.639   1.758  18.609  0.00  0.00    +0.000 C 
ATOM      3  C   UNL     1       3.627   2.591  19.897  0.00  0.00    +0.000 C 
ATOM      4  C   UNL     1       2.543   3.664  19.847  0.00  0.00    +0.000 C 
ATOM      5  C   UNL     1       2.638   4.667  20.972  0.00  0.00    +0.000 C 
ATOM      6  C   UNL     1       1.747   5.794  20.481  0.00  0.00    +0.000 C 
ATOM      7  C   UNL     1       1.832   5.733  18.934  0.00  0.00    +0.000 C 
ATOM      8  N   UNL     1       2.710   4.546  18.674  0.00  0.00    +0.000 NA
ATOM      9  C   UNL     1       2.533   3.731  17.456  0.00  0.00    +0.000 C 
ENDROOT
BRANCH   1  12
ATOM     10  C   UNL     1       5.576   4.117  16.333  0.00  0.00    +0.000 C 
ATOM     11  O   UNL     1       4.872   4.691  15.541  0.00  0.00    +0.000 OA
ATOM     12  N   UNL     1       5.084   3.206  17.241  0.00  0.00    +0.000 N 
ATOM     13  H   UNL     1       5.758   2.934  17.963  0.00  0.00    +0.000 HD
BRANCH  10  15
ATOM     14  C   UNL     1       7.679   4.662  17.768  0.00  0.00    +0.000 C 
ATOM     15  C   UNL     1       7.138   4.340  16.369  0.00  0.00    +0.000 C 
BRANCH  15  16
ATOM     16  N   UNL     1       7.581   5.437  15.475  0.00  0.00    +0.000 NA
ATOM     17  H   UNL     1       8.598   5.380  15.419  0.00  0.00    +0.000 HD
ATOM     18  H   UNL     1       7.276   5.195  14.534  0.00  0.00    +0.000 HD
ENDBRANCH  15  16
ENDBRANCH  10  15
ENDBRANCH   1  12
BRANCH   7  19
ATOM     19  C   UNL     1       2.425   7.104  18.479  0.00  0.00    +0.000 C 
ATOM     20  O   UNL     1       3.546   7.165  17.981  0.00  0.00    +0.000 OA
ATOM     21  N   UNL     1       1.585   8.199  18.512  0.00  0.00    +0.000 N 
ATOM     22  H   UNL     1       0.768   8.104  19.111  0.00  0.00    +0.000 HD
BRANCH  21  23
ATOM     23  C   UNL     1       2.063   9.516  18.127  0.00  0.00    +0.000 C 
BRANCH  23  24
ATOM     24  C   UNL     1       1.069  10.613  18.427  0.00  0.00    +0.000 A 
ATOM     25  C   UNL     1       1.481  11.930  18.690  0.00  0.00    +0.000 A 
ATOM     26  C   UNL     1       0.541  12.932  18.958  0.00  0.00    +0.000 A 
ATOM     27  C   UNL     1      -0.821  12.635  18.949  0.00  0.00    +0.000 A 
ATOM     28  C   UNL     1      -1.244  11.340  18.658  0.00  0.00    +0.000 A 
ATOM     29  C   UNL     1      -0.307  10.339  18.392  0.00  0.00    +0.000 A 
ENDBRANCH  23  24
ENDBRANCH  21  23
ENDBRANCH   7  19
TORSDOF 6
ENDMDL
MODEL 9
REMARK VINA RESULT:      -7.2      2.070      2.220
REMARK  Name = 
REMARK  7 active torsions:
REMARK  status: ('A' for Active; 'I' for Inactive)
REMARK    1  A    between atoms: C_1  and  C_2
REMARK    2  A    between atoms: C_2  and  N_3
REMARK    3  A    between atoms: C_2  and  C_4
REMARK    4  A    between atoms: N_6  and  C_7
REMARK    5  A    between atoms: C_13  and  C_14
REMARK    6  A    between atoms: N_16  and  C_17
REMARK    7  A    between atoms: C_17  and  C_18
REMARK                            x       y       z     vdW  Elec       q    Type
REMARK                         _______ _______ _______ _____ _____    ______ ____
ROOT
ATOM      1  C   UNL     1       3.753   2.813  17.209  0.00  0.00    +0.000 C 
ATOM      2  C   UNL     1       3.769   1.643  18.227  0.00  0.00    +0.000 C 
ATOM      3  C   UNL     1       3.658   2.161  19.667  0.00  0.00    +0.000 C 
ATOM      4  C   UNL     1       2.477   3.115  19.819  0.00  0.00    +0.000 C 
ATOM      5  C   UNL     1       2.459   3.845  21.141  0.00  0.00    +0.000 C 
ATOM      6  C   UNL     1       1.471   4.967  20.882  0.00  0.00    +0.000 C 
ATOM      7  C   UNL     1       1.582   5.263  19.364  0.00  0.00    +0.000 C 
ATOM      8  N   UNL     1       2.574   4.249  18.877  0.00  0.00    +0.000 NA
ATOM      9  C   UNL     1       2.493   3.715  17.503  0.00  0.00    +0.000 C 
ENDROOT
BRANCH   1  12
ATOM     10  C   UNL     1       5.663   4.317  16.332  0.00  0.00    +0.000 C 
ATOM     11  O   UNL     1       5.080   4.692  15.346  0.00  0.00    +0.000 OA
ATOM     12  N   UNL     1       5.085   3.487  17.266  0.00  0.00    +0.000 N 
ATOM     13  H   UNL     1       5.626   3.394  18.132  0.00  0.00    +0.000 HD
BRANCH  10  15
ATOM     14  C   UNL     1       7.481   4.891  18.105  0.00  0.00    +0.000 C 
ATOM     15  C   UNL     1       7.163   4.721  16.614  0.00  0.00    +0.000 C 
BRANCH  15  16
ATOM     16  N   UNL     1       7.551   5.985  15.944  0.00  0.00    +0.000 NA
ATOM     17  H   UNL     1       6.692   6.517  15.799  0.00  0.00    +0.000 HD
ATOM     18  H   UNL     1       8.062   6.540  16.627  0.00  0.00    +0.000 HD
ENDBRANCH  15  16
ENDBRANCH  10  15
ENDBRANCH   1  12
BRANCH   7  19
ATOM     19  C   UNL     1       2.046   6.749  19.245  0.00  0.00    +0.000 C 
ATOM     20  O   UNL     1       2.519   7.334  20.215  0.00  0.00    +0.000 OA
ATOM     21  N   UNL     1       2.050   7.312  17.985  0.00  0.00    +0.000 N 
ATOM     22  H   UNL     1       1.469   6.841  17.295  0.00  0.00    +0.000 HD
BRANCH  21  23
ATOM     23  C   UNL     1       2.446   8.696  17.789  0.00  0.00    +0.000 C 
BRANCH  23  24
ATOM     24  C   UNL     1       1.320   9.671  18.042  0.00  0.00    +0.000 A 
ATOM     25  C   UNL     1      -0.020   9.328  17.800  0.00  0.00    +0.000 A 
ATOM     26  C   UNL     1      -1.049  10.245  18.050  0.00  0.00    +0.000 A 
ATOM     27  C   UNL     1      -0.751  11.507  18.561  0.00  0.00    +0.000 A 
ATOM     28  C   UNL     1       0.571  11.848  18.836  0.00  0.00    +0.000 A 
ATOM     29  C   UNL     1       1.597  10.935  18.585  0.00  0.00    +0.000 A 
ENDBRANCH  23  24
ENDBRANCH  21  23
ENDBRANCH   7  19
TORSDOF 6
ENDMDL
