MODEL 1
REMARK VINA RESULT:      -7.8      0.000      0.000
REMARK  Name = 
REMARK  2 active torsions:
REMARK  status: ('A' for Active; 'I' for Inactive)
REMARK    1  A    between atoms: N_3  and  C_4
REMARK    2  A    between atoms: N_11  and  C_12
REMARK                            x       y       z     vdW  Elec       q    Type
REMARK                         _______ _______ _______ _____ _____    ______ ____
ROOT
ATOM      1  O   UNL     1       4.894   5.551  16.408  0.00  0.00    +0.000 OA
ATOM      2  C   UNL     1       5.210   4.383  16.580  0.00  0.00    +0.000 C 
ATOM      3  N   UNL     1       5.925   3.595  15.705  0.00  0.00    +0.000 N 
ATOM      4  N   UNL     1       4.902   3.666  17.718  0.00  0.00    +0.000 N 
ATOM      5  H   UNL     1       6.457   2.845  16.127  0.00  0.00    +0.000 HD
ATOM      6  H   UNL     1       5.129   2.686  17.728  0.00  0.00    +0.000 HD
ENDROOT
BRANCH   4   7
ATOM      7  C   UNL     1       4.306   4.237  18.937  0.00  0.00    +0.000 C 
ATOM      8  C   UNL     1       3.094   5.091  18.531  0.00  0.00    +0.000 C 
ATOM      9  C   UNL     1       2.318   5.783  19.653  0.00  0.00    +0.000 C 
ATOM     10  C   UNL     1       1.500   4.927  20.627  0.00  0.00    +0.000 C 
ATOM     11  C   UNL     1       0.799   3.708  20.031  0.00  0.00    +0.000 C 
ATOM     12  C   UNL     1       1.533   2.386  20.269  0.00  0.00    +0.000 C 
ATOM     13  C   UNL     1       2.841   2.184  19.502  0.00  0.00    +0.000 C 
ATOM     14  C   UNL     1       3.997   3.101  19.925  0.00  0.00    +0.000 C 
ENDBRANCH   4   7
BRANCH   3  15
ATOM     15  C   UNL     1       6.275   3.883  14.371  0.00  0.00    +0.000 A 
ATOM     16  C   UNL     1       5.738   3.236  13.258  0.00  0.00    +0.000 A 
ATOM     17  C   UNL     1       6.205   3.550  11.972  0.00  0.00    +0.000 A 
ATOM     18  C   UNL     1       7.195   4.520  11.790  0.00  0.00    +0.000 A 
ATOM     19  C   UNL     1       7.729   5.176  12.894  0.00  0.00    +0.000 A 
ATOM     20  C   UNL     1       7.280   4.842  14.168  0.00  0.00    +0.000 A 
ATOM     21  F   UNL     1       7.813   5.468  15.229  0.00  0.00    +0.000 F 
ENDBRANCH   3  15
TORSDOF 2
ENDMDL
MODEL 2
REMARK VINA RESULT:      -7.4      4.617      6.811
REMARK  Name = 
REMARK  2 active torsions:
REMARK  status: ('A' for Active; 'I' for Inactive)
REMARK    1  A    between atoms: N_3  and  C_4
REMARK    2  A    between atoms: N_11  and  C_12
REMARK                            x       y       z     vdW  Elec       q    Type
REMARK                         _______ _______ _______ _____ _____    ______ ____
ROOT
ATOM      1  O   UNL     1       3.155   6.908  19.330  0.00  0.00    +0.000 OA
ATOM      2  C   UNL     1       2.248   6.507  20.044  0.00  0.00    +0.000 C 
ATOM      3  N   UNL     1       1.902   5.191  20.262  0.00  0.00    +0.000 N 
ATOM      4  N   UNL     1       1.421   7.339  20.771  0.00  0.00    +0.000 N 
ATOM      5  H   UNL     1       1.455   4.998  21.148  0.00  0.00    +0.000 HD
ATOM      6  H   UNL     1       0.648   6.918  21.259  0.00  0.00    +0.000 HD
ENDROOT
BRANCH   4   7
ATOM      7  C   UNL     1       1.610   8.790  20.923  0.00  0.00    +0.000 C 
ATOM      8  C   UNL     1       0.716   9.507  19.898  0.00  0.00    +0.000 C 
ATOM      9  C   UNL     1       0.756  11.036  19.882  0.00  0.00    +0.000 C 
ATOM     10  C   UNL     1       0.165  11.806  21.068  0.00  0.00    +0.000 C 
ATOM     11  C   UNL     1      -1.092  11.212  21.702  0.00  0.00    +0.000 C 
ATOM     12  C   UNL     1      -0.832  10.423  22.987  0.00  0.00    +0.000 C 
ATOM     13  C   UNL     1      -0.108   9.084  22.831  0.00  0.00    +0.000 C 
ATOM     14  C   UNL     1       1.358   9.180  22.388  0.00  0.00    +0.000 C 
ENDBRANCH   4   7
BRANCH   3  15
ATOM     15  C   UNL     1       2.374   4.050  19.583  0.00  0.00    +0.000 A 
ATOM     16  C   UNL     1       3.274   3.129  20.120  0.00  0.00    +0.000 A 
ATOM     17  C   UNL     1       3.736   2.061  19.334  0.00  0.00    +0.000 A 
ATOM     18  C   UNL     1       3.289   1.897  18.020  0.00  0.00    +0.000 A 
ATOM     19  C   UNL     1       2.384   2.805  17.481  0.00  0.00    +0.000 A 
ATOM     20  C   UNL     1       1.950   3.876  18.255  0.00  0.00    +0.000 A 
ATOM     21  F   UNL     1       1.090   4.758  17.720  0.00  0.00    +0.000 F 
ENDBRANCH   3  15
TORSDOF 2
ENDMDL
MODEL 3
REMARK VINA RESULT:      -7.3      1.169      1.605
REMARK  Name = 
REMARK  2 active torsions:
REMARK  status: ('A' for Active; 'I' for Inactive)
REMARK    1  A    between atoms: N_3  and  C_4
REMARK    2  A    between atoms: N_11  and  C_12
REMARK                            x       y       z     vdW  Elec       q    Type
REMARK                         _______ _______ _______ _____ _____    ______ ____
ROOT
ATOM      1  O   UNL     1       5.987   5.425  16.824  0.00  0.00    +0.000 OA
ATOM      2  C   UNL     1       5.589   4.311  16.515  0.00  0.00    +0.000 C 
ATOM      3  N   UNL     1       5.897   3.627  15.360  0.00  0.00    +0.000 N 
ATOM      4  N   UNL     1       4.762   3.546  17.312  0.00  0.00    +0.000 N 
ATOM      5  H   UNL     1       5.864   2.618  15.428  0.00  0.00    +0.000 HD
ATOM      6  H   UNL     1       4.419   2.679  16.931  0.00  0.00    +0.000 HD
ENDROOT
BRANCH   4   7
ATOM      7  C   UNL     1       4.378   3.880  18.693  0.00  0.00    +0.000 C 
ATOM      8  C   UNL     1       3.331   5.004  18.647  0.00  0.00    +0.000 C 
ATOM      9  C   UNL     1       2.788   5.509  19.985  0.00  0.00    +0.000 C 
ATOM     10  C   UNL     1       1.891   4.587  20.818  0.00  0.00    +0.000 C 
ATOM     11  C   UNL     1       0.924   3.698  20.037  0.00  0.00    +0.000 C 
ATOM     12  C   UNL     1       1.401   2.254  19.866  0.00  0.00    +0.000 C 
ATOM     13  C   UNL     1       2.585   2.033  18.923  0.00  0.00    +0.000 C 
ATOM     14  C   UNL     1       3.925   2.600  19.412  0.00  0.00    +0.000 C 
ENDBRANCH   4   7
BRANCH   3  15
ATOM     15  C   UNL     1       6.560   4.115  14.217  0.00  0.00    +0.000 A 
ATOM     16  C   UNL     1       7.535   5.113  14.237  0.00  0.00    +0.000 A 
ATOM     17  C   UNL     1       8.087   5.578  13.033  0.00  0.00    +0.000 A 
ATOM     18  C   UNL     1       7.682   5.040  11.809  0.00  0.00    +0.000 A 
ATOM     19  C   UNL     1       6.718   4.038  11.780  0.00  0.00    +0.000 A 
ATOM     20  C   UNL     1       6.157   3.599  12.975  0.00  0.00    +0.000 A 
ATOM     21  F   UNL     1       5.214   2.644  12.936  0.00  0.00    +0.000 F 
ENDBRANCH   3  15
TORSDOF 2
ENDMDL
MODEL 4
REMARK VINA RESULT:      -7.3      4.840      7.285
REMARK  Name = 
REMARK  2 active torsions:
REMARK  status: ('A' for Active; 'I' for Inactive)
REMARK    1  A    between atoms: N_3  and  C_4
REMARK    2  A    between atoms: N_11  and  C_12
REMARK                            x       y       z     vdW  Elec       q    Type
REMARK                         _______ _______ _______ _____ _____    ______ ____
ROOT
ATOM      1  O   UNL     1       2.633   7.294  19.318  0.00  0.00    +0.000 OA
ATOM      2  C   UNL     1       1.881   6.841  20.168  0.00  0.00    +0.000 C 
ATOM      3  N   UNL     1       1.565   5.512  20.352  0.00  0.00    +0.000 N 
ATOM      4  N   UNL     1       1.231   7.615  21.107  0.00  0.00    +0.000 N 
ATOM      5  H   UNL     1       1.302   5.252  21.293  0.00  0.00    +0.000 HD
ATOM      6  H   UNL     1       0.564   7.158  21.707  0.00  0.00    +0.000 HD
ENDROOT
BRANCH   4   7
ATOM      7  C   UNL     1       1.469   9.050  21.326  0.00  0.00    +0.000 C 
ATOM      8  C   UNL     1       0.750   9.837  20.218  0.00  0.00    +0.000 C 
ATOM      9  C   UNL     1       0.867  11.362  20.254  0.00  0.00    +0.000 C 
ATOM     10  C   UNL     1       0.167  12.133  21.379  0.00  0.00    +0.000 C 
ATOM     11  C   UNL     1      -1.188  11.591  21.829  0.00  0.00    +0.000 C 
ATOM     12  C   UNL     1      -1.134  10.758  23.112  0.00  0.00    +0.000 C 
ATOM     13  C   UNL     1      -0.463   9.387  23.009  0.00  0.00    +0.000 C 
ATOM     14  C   UNL     1       1.051   9.417  22.758  0.00  0.00    +0.000 C 
ENDBRANCH   4   7
BRANCH   3  15
ATOM     15  C   UNL     1       1.873   4.426  19.508  0.00  0.00    +0.000 A 
ATOM     16  C   UNL     1       2.352   4.552  18.204  0.00  0.00    +0.000 A 
ATOM     17  C   UNL     1       2.562   3.406  17.421  0.00  0.00    +0.000 A 
ATOM     18  C   UNL     1       2.313   2.133  17.940  0.00  0.00    +0.000 A 
ATOM     19  C   UNL     1       1.845   1.998  19.242  0.00  0.00    +0.000 A 
ATOM     20  C   UNL     1       1.614   3.138  20.004  0.00  0.00    +0.000 A 
ATOM     21  F   UNL     1       1.145   2.999  21.255  0.00  0.00    +0.000 F 
ENDBRANCH   3  15
TORSDOF 2
ENDMDL
MODEL 5
REMARK VINA RESULT:      -7.3      5.052      7.692
REMARK  Name = 
REMARK  2 active torsions:
REMARK  status: ('A' for Active; 'I' for Inactive)
REMARK    1  A    between atoms: N_3  and  C_4
REMARK    2  A    between atoms: N_11  and  C_12
REMARK                            x       y       z     vdW  Elec       q    Type
REMARK                         _______ _______ _______ _____ _____    ______ ____
ROOT
ATOM      1  O   UNL     1       2.397   8.684  17.201  0.00  0.00    +0.000 OA
ATOM      2  C   UNL     1       2.017   8.459  18.340  0.00  0.00    +0.000 C 
ATOM      3  N   UNL     1       1.201   9.269  19.102  0.00  0.00    +0.000 N 
ATOM      4  N   UNL     1       2.344   7.320  19.047  0.00  0.00    +0.000 N 
ATOM      5  H   UNL     1       0.647   8.794  19.803  0.00  0.00    +0.000 HD
ATOM      6  H   UNL     1       2.055   7.269  20.009  0.00  0.00    +0.000 HD
ENDROOT
BRANCH   4   7
ATOM      7  C   UNL     1       3.047   6.155  18.486  0.00  0.00    +0.000 C 
ATOM      8  C   UNL     1       4.136   5.720  19.481  0.00  0.00    +0.000 C 
ATOM      9  C   UNL     1       4.996   4.515  19.094  0.00  0.00    +0.000 C 
ATOM     10  C   UNL     1       4.351   3.126  19.057  0.00  0.00    +0.000 C 
ATOM     11  C   UNL     1       3.302   2.838  20.130  0.00  0.00    +0.000 C 
ATOM     12  C   UNL     1       1.856   2.973  19.644  0.00  0.00    +0.000 C 
ATOM     13  C   UNL     1       1.366   4.391  19.346  0.00  0.00    +0.000 C 
ATOM     14  C   UNL     1       2.020   5.068  18.134  0.00  0.00    +0.000 C 
ENDBRANCH   4   7
BRANCH   3  15
ATOM     15  C   UNL     1       0.792  10.588  18.825  0.00  0.00    +0.000 A 
ATOM     16  C   UNL     1       1.645  11.692  18.813  0.00  0.00    +0.000 A 
ATOM     17  C   UNL     1       1.125  12.977  18.594  0.00  0.00    +0.000 A 
ATOM     18  C   UNL     1      -0.242  13.164  18.368  0.00  0.00    +0.000 A 
ATOM     19  C   UNL     1      -1.097  12.068  18.369  0.00  0.00    +0.000 A 
ATOM     20  C   UNL     1      -0.580  10.800  18.613  0.00  0.00    +0.000 A 
ATOM     21  F   UNL     1      -1.416   9.749  18.629  0.00  0.00    +0.000 F 
ENDBRANCH   3  15
TORSDOF 2
ENDMDL
MODEL 6
REMARK VINA RESULT:      -7.2      3.287      4.048
REMARK  Name = 
REMARK  2 active torsions:
REMARK  status: ('A' for Active; 'I' for Inactive)
REMARK    1  A    between atoms: N_3  and  C_4
REMARK    2  A    between atoms: N_11  and  C_12
REMARK                            x       y       z     vdW  Elec       q    Type
REMARK                         _______ _______ _______ _____ _____    ______ ____
ROOT
ATOM      1  O   UNL     1       4.613   5.115  19.609  0.00  0.00    +0.000 OA
ATOM      2  C   UNL     1       5.411   4.326  19.124  0.00  0.00    +0.000 C 
ATOM      3  N   UNL     1       6.643   4.635  18.592  0.00  0.00    +0.000 N 
ATOM      4  N   UNL     1       5.193   2.965  19.053  0.00  0.00    +0.000 N 
ATOM      5  H   UNL     1       7.333   3.895  18.628  0.00  0.00    +0.000 HD
ATOM      6  H   UNL     1       5.870   2.409  18.557  0.00  0.00    +0.000 HD
ENDROOT
BRANCH   4   7
ATOM      7  C   UNL     1       4.068   2.258  19.685  0.00  0.00    +0.000 C 
ATOM      8  C   UNL     1       3.547   3.116  20.850  0.00  0.00    +0.000 C 
ATOM      9  C   UNL     1       2.367   2.565  21.652  0.00  0.00    +0.000 C 
ATOM     10  C   UNL     1       0.991   2.480  20.983  0.00  0.00    +0.000 C 
ATOM     11  C   UNL     1       0.632   3.617  20.027  0.00  0.00    +0.000 C 
ATOM     12  C   UNL     1       0.818   3.272  18.547  0.00  0.00    +0.000 C 
ATOM     13  C   UNL     1       2.260   3.127  18.056  0.00  0.00    +0.000 C 
ATOM     14  C   UNL     1       3.022   1.917  18.613  0.00  0.00    +0.000 C 
ENDBRANCH   4   7
BRANCH   3  15
ATOM     15  C   UNL     1       7.169   5.912  18.313  0.00  0.00    +0.000 A 
ATOM     16  C   UNL     1       8.152   6.543  19.075  0.00  0.00    +0.000 A 
ATOM     17  C   UNL     1       8.559   7.847  18.753  0.00  0.00    +0.000 A 
ATOM     18  C   UNL     1       8.001   8.519  17.662  0.00  0.00    +0.000 A 
ATOM     19  C   UNL     1       7.027   7.893  16.891  0.00  0.00    +0.000 A 
ATOM     20  C   UNL     1       6.609   6.611  17.232  0.00  0.00    +0.000 A 
ATOM     21  F   UNL     1       5.655   6.021  16.493  0.00  0.00    +0.000 F 
ENDBRANCH   3  15
TORSDOF 2
ENDMDL
MODEL 7
REMARK VINA RESULT:      -7.2      5.008      8.577
REMARK  Name = 
REMARK  2 active torsions:
REMARK  status: ('A' for Active; 'I' for Inactive)
REMARK    1  A    between atoms: N_3  and  C_4
REMARK    2  A    between atoms: N_11  and  C_12
REMARK                            x       y       z     vdW  Elec       q    Type
REMARK                         _______ _______ _______ _____ _____    ______ ____
ROOT
ATOM      1  O   UNL     1       1.844   8.764  18.828  0.00  0.00    +0.000 OA
ATOM      2  C   UNL     1       1.822   8.086  19.845  0.00  0.00    +0.000 C 
ATOM      3  N   UNL     1       1.172   8.399  21.019  0.00  0.00    +0.000 N 
ATOM      4  N   UNL     1       2.451   6.864  19.965  0.00  0.00    +0.000 N 
ATOM      5  H   UNL     1       0.888   7.610  21.584  0.00  0.00    +0.000 HD
ATOM      6  H   UNL     1       2.448   6.425  20.870  0.00  0.00    +0.000 HD
ENDROOT
BRANCH   4   7
ATOM      7  C   UNL     1       3.087   6.132  18.858  0.00  0.00    +0.000 C 
ATOM      8  C   UNL     1       4.245   5.298  19.429  0.00  0.00    +0.000 C 
ATOM      9  C   UNL     1       5.051   4.452  18.442  0.00  0.00    +0.000 C 
ATOM     10  C   UNL     1       4.382   3.237  17.788  0.00  0.00    +0.000 C 
ATOM     11  C   UNL     1       3.418   2.441  18.666  0.00  0.00    +0.000 C 
ATOM     12  C   UNL     1       1.941   2.759  18.421  0.00  0.00    +0.000 C 
ATOM     13  C   UNL     1       1.452   4.131  18.886  0.00  0.00    +0.000 C 
ATOM     14  C   UNL     1       2.017   5.326  18.106  0.00  0.00    +0.000 C 
ENDBRANCH   4   7
BRANCH   3  15
ATOM     15  C   UNL     1       0.566   9.621  21.372  0.00  0.00    +0.000 A 
ATOM     16  C   UNL     1       0.903  10.857  20.818  0.00  0.00    +0.000 A 
ATOM     17  C   UNL     1       0.286  12.027  21.288  0.00  0.00    +0.000 A 
ATOM     18  C   UNL     1      -0.678  11.968  22.298  0.00  0.00    +0.000 A 
ATOM     19  C   UNL     1      -1.027  10.740  22.849  0.00  0.00    +0.000 A 
ATOM     20  C   UNL     1      -0.393   9.587  22.397  0.00  0.00    +0.000 A 
ATOM     21  F   UNL     1      -0.723   8.407  22.946  0.00  0.00    +0.000 F 
ENDBRANCH   3  15
TORSDOF 2
ENDMDL
MODEL 8
REMARK VINA RESULT:      -7.2      4.577      7.015
REMARK  Name = 
REMARK  2 active torsions:
REMARK  status: ('A' for Active; 'I' for Inactive)
REMARK    1  A    between atoms: N_3  and  C_4
REMARK    2  A    between atoms: N_11  and  C_12
REMARK                            x       y       z     vdW  Elec       q    Type
REMARK                         _______ _______ _______ _____ _____    ______ ____
ROOT
ATOM      1  O   UNL     1       2.367   7.231  19.134  0.00  0.00    +0.000 OA
ATOM      2  C   UNL     1       1.956   6.809  20.206  0.00  0.00    +0.000 C 
ATOM      3  N   UNL     1       1.915   5.490  20.601  0.00  0.00    +0.000 N 
ATOM      4  N   UNL     1       1.474   7.620  21.214  0.00  0.00    +0.000 N 
ATOM      5  H   UNL     1       1.963   5.331  21.599  0.00  0.00    +0.000 HD
ATOM      6  H   UNL     1       1.077   7.172  22.023  0.00  0.00    +0.000 HD
ENDROOT
BRANCH   4   7
ATOM      7  C   UNL     1       1.536   9.090  21.214  0.00  0.00    +0.000 C 
ATOM      8  C   UNL     1       0.579   9.617  20.133  0.00  0.00    +0.000 C 
ATOM      9  C   UNL     1       0.485  11.134  19.960  0.00  0.00    +0.000 C 
ATOM     10  C   UNL     1      -0.167  11.967  21.068  0.00  0.00    +0.000 C 
ATOM     11  C   UNL     1      -1.365  11.335  21.775  0.00  0.00    +0.000 C 
ATOM     12  C   UNL     1      -1.032  10.708  23.131  0.00  0.00    +0.000 C 
ATOM     13  C   UNL     1      -0.195   9.428  23.104  0.00  0.00    +0.000 C 
ATOM     14  C   UNL     1       1.256   9.605  22.634  0.00  0.00    +0.000 C 
ENDBRANCH   4   7
BRANCH   3  15
ATOM     15  C   UNL     1       2.146   4.345  19.814  0.00  0.00    +0.000 A 
ATOM     16  C   UNL     1       1.152   3.451  19.411  0.00  0.00    +0.000 A 
ATOM     17  C   UNL     1       1.497   2.301  18.684  0.00  0.00    +0.000 A 
ATOM     18  C   UNL     1       2.828   2.047  18.342  0.00  0.00    +0.000 A 
ATOM     19  C   UNL     1       3.823   2.937  18.730  0.00  0.00    +0.000 A 
ATOM     20  C   UNL     1       3.478   4.062  19.473  0.00  0.00    +0.000 A 
ATOM     21  F   UNL     1       4.447   4.907  19.859  0.00  0.00    +0.000 F 
ENDBRANCH   3  15
TORSDOF 2
ENDMDL
MODEL 9
REMARK VINA RESULT:      -7.2      4.912      7.995
REMARK  Name = 
REMARK  2 active torsions:
REMARK  status: ('A' for Active; 'I' for Inactive)
REMARK    1  A    between atoms: N_3  and  C_4
REMARK    2  A    between atoms: N_11  and  C_12
REMARK                            x       y       z     vdW  Elec       q    Type
REMARK                         _______ _______ _______ _____ _____    ______ ____
ROOT
ATOM      1  O   UNL     1       1.196   7.855  21.224  0.00  0.00    +0.000 OA
ATOM      2  C   UNL     1       1.570   7.988  20.068  0.00  0.00    +0.000 C 
ATOM      3  N   UNL     1       1.447   9.123  19.296  0.00  0.00    +0.000 N 
ATOM      4  N   UNL     1       2.204   6.995  19.349  0.00  0.00    +0.000 N 
ATOM      5  H   UNL     1       2.139   9.233  18.568  0.00  0.00    +0.000 HD
ATOM      6  H   UNL     1       2.393   7.171  18.377  0.00  0.00    +0.000 HD
ENDROOT
BRANCH   4   7
ATOM      7  C   UNL     1       2.663   5.714  19.909  0.00  0.00    +0.000 C 
ATOM      8  C   UNL     1       1.446   4.969  20.481  0.00  0.00    +0.000 C 
ATOM      9  C   UNL     1       1.699   3.601  21.117  0.00  0.00    +0.000 C 
ATOM     10  C   UNL     1       2.104   2.428  20.218  0.00  0.00    +0.000 C 
ATOM     11  C   UNL     1       1.448   2.374  18.839  0.00  0.00    +0.000 C 
ATOM     12  C   UNL     1       2.331   2.899  17.705  0.00  0.00    +0.000 C 
ATOM     13  C   UNL     1       2.585   4.408  17.680  0.00  0.00    +0.000 C 
ATOM     14  C   UNL     1       3.445   4.946  18.831  0.00  0.00    +0.000 C 
ENDBRANCH   4   7
BRANCH   3  15
ATOM     15  C   UNL     1       0.711  10.289  19.586  0.00  0.00    +0.000 A 
ATOM     16  C   UNL     1       0.973  11.139  20.662  0.00  0.00    +0.000 A 
ATOM     17  C   UNL     1       0.137  12.240  20.904  0.00  0.00    +0.000 A 
ATOM     18  C   UNL     1      -0.950  12.508  20.067  0.00  0.00    +0.000 A 
ATOM     19  C   UNL     1      -1.212  11.672  18.987  0.00  0.00    +0.000 A 
ATOM     20  C   UNL     1      -0.395  10.567  18.768  0.00  0.00    +0.000 A 
ATOM     21  F   UNL     1      -0.666   9.755  17.733  0.00  0.00    +0.000 F 
ENDBRANCH   3  15
TORSDOF 2
ENDMDL
