MODEL 1
REMARK VINA RESULT:      -6.4      0.000      0.000
REMARK  Name = 
REMARK  2 active torsions:
REMARK  status: ('A' for Active; 'I' for Inactive)
REMARK    1  A    between atoms: C_1  and  N_2
REMARK    2  A    between atoms: C_9  and  C_10
REMARK                            x       y       z     vdW  Elec       q    Type
REMARK                         _______ _______ _______ _____ _____    ______ ____
ROOT
ATOM      1  C   UNL     1       6.691   5.557  19.363  0.00  0.00    +0.000 C 
ATOM      2  N   UNL     1       6.406   4.542  18.357  0.00  0.00    +0.000 N 
ATOM      3  C   UNL     1       5.076   4.038  18.393  0.00  0.00    +0.000 A 
ATOM      4  C   UNL     1       4.553   3.219  19.374  0.00  0.00    +0.000 A 
ATOM      5  C   UNL     1       3.269   2.694  19.186  0.00  0.00    +0.000 A 
ATOM      6  C   UNL     1       2.525   3.012  18.039  0.00  0.00    +0.000 A 
ATOM      7  C   UNL     1       3.045   3.867  17.067  0.00  0.00    +0.000 A 
ATOM      8  C   UNL     1       4.324   4.365  17.256  0.00  0.00    +0.000 A 
ATOM      9  C   UNL     1       5.142   5.293  16.399  0.00  0.00    +0.000 C 
ATOM     10  C   UNL     1       4.725   6.743  16.650  0.00  0.00    +0.000 C 
ATOM     11  C   UNL     1       5.222   4.979  14.908  0.00  0.00    +0.000 C 
ATOM     12  C   UNL     1       6.403   4.037  14.737  0.00  0.00    +0.000 C 
ATOM     13  N   UNL     1       6.998   3.851  16.044  0.00  0.00    +0.000 NA
ATOM     14  C   UNL     1       6.555   4.927  16.941  0.00  0.00    +0.000 C 
ATOM     15  H   UNL     1       8.004   3.748  16.048  0.00  0.00    +0.000 HD
ENDROOT
TORSDOF 0
ENDMDL
MODEL 2
REMARK VINA RESULT:      -6.1      2.342      4.924
REMARK  Name = 
REMARK  2 active torsions:
REMARK  status: ('A' for Active; 'I' for Inactive)
REMARK    1  A    between atoms: C_1  and  N_2
REMARK    2  A    between atoms: C_9  and  C_10
REMARK                            x       y       z     vdW  Elec       q    Type
REMARK                         _______ _______ _______ _____ _____    ______ ____
ROOT
ATOM      1  C   UNL     1       3.950   1.235  17.952  0.00  0.00    +0.000 C 
ATOM      2  N   UNL     1       3.945   2.279  18.969  0.00  0.00    +0.000 N 
ATOM      3  C   UNL     1       3.835   3.600  18.454  0.00  0.00    +0.000 A 
ATOM      4  C   UNL     1       4.819   4.277  17.759  0.00  0.00    +0.000 A 
ATOM      5  C   UNL     1       4.604   5.624  17.445  0.00  0.00    +0.000 A 
ATOM      6  C   UNL     1       3.409   6.262  17.808  0.00  0.00    +0.000 A 
ATOM      7  C   UNL     1       2.403   5.565  18.481  0.00  0.00    +0.000 A 
ATOM      8  C   UNL     1       2.637   4.238  18.802  0.00  0.00    +0.000 A 
ATOM      9  C   UNL     1       1.759   3.242  19.511  0.00  0.00    +0.000 C 
ATOM     10  C   UNL     1       0.742   2.650  18.535  0.00  0.00    +0.000 C 
ATOM     11  C   UNL     1       1.098   3.693  20.810  0.00  0.00    +0.000 C 
ATOM     12  C   UNL     1       2.087   3.375  21.921  0.00  0.00    +0.000 C 
ATOM     13  N   UNL     1       3.232   2.738  21.306  0.00  0.00    +0.000 NA
ATOM     14  C   UNL     1       2.864   2.246  19.972  0.00  0.00    +0.000 C 
ATOM     15  H   UNL     1       3.675   2.018  21.863  0.00  0.00    +0.000 HD
ENDROOT
TORSDOF 0
ENDMDL
MODEL 3
REMARK VINA RESULT:      -6.1      1.577      3.913
REMARK  Name = 
REMARK  2 active torsions:
REMARK  status: ('A' for Active; 'I' for Inactive)
REMARK    1  A    between atoms: C_1  and  N_2
REMARK    2  A    between atoms: C_9  and  C_10
REMARK                            x       y       z     vdW  Elec       q    Type
REMARK                         _______ _______ _______ _____ _____    ______ ____
ROOT
ATOM      1  C   UNL     1       5.299   4.223  15.588  0.00  0.00    +0.000 C 
ATOM      2  N   UNL     1       5.197   4.471  17.020  0.00  0.00    +0.000 N 
ATOM      3  C   UNL     1       4.278   5.497  17.374  0.00  0.00    +0.000 A 
ATOM      4  C   UNL     1       4.456   6.849  17.149  0.00  0.00    +0.000 A 
ATOM      5  C   UNL     1       3.521   7.741  17.687  0.00  0.00    +0.000 A 
ATOM      6  C   UNL     1       2.419   7.270  18.418  0.00  0.00    +0.000 A 
ATOM      7  C   UNL     1       2.226   5.902  18.615  0.00  0.00    +0.000 A 
ATOM      8  C   UNL     1       3.168   5.031  18.093  0.00  0.00    +0.000 A 
ATOM      9  C   UNL     1       3.233   3.528  18.139  0.00  0.00    +0.000 C 
ATOM     10  C   UNL     1       2.331   2.931  17.057  0.00  0.00    +0.000 C 
ATOM     11  C   UNL     1       3.008   2.860  19.492  0.00  0.00    +0.000 C 
ATOM     12  C   UNL     1       4.375   2.781  20.156  0.00  0.00    +0.000 C 
ATOM     13  N   UNL     1       5.337   3.330  19.225  0.00  0.00    +0.000 NA
ATOM     14  C   UNL     1       4.757   3.352  17.875  0.00  0.00    +0.000 C 
ATOM     15  H   UNL     1       6.247   2.888  19.236  0.00  0.00    +0.000 HD
ENDROOT
TORSDOF 0
ENDMDL
MODEL 4
REMARK VINA RESULT:      -6.1      1.939      4.010
REMARK  Name = 
REMARK  2 active torsions:
REMARK  status: ('A' for Active; 'I' for Inactive)
REMARK    1  A    between atoms: C_1  and  N_2
REMARK    2  A    between atoms: C_9  and  C_10
REMARK                            x       y       z     vdW  Elec       q    Type
REMARK                         _______ _______ _______ _____ _____    ______ ____
ROOT
ATOM      1  C   UNL     1       4.523   2.581  19.739  0.00  0.00    +0.000 C 
ATOM      2  N   UNL     1       4.579   4.030  19.591  0.00  0.00    +0.000 N 
ATOM      3  C   UNL     1       5.237   4.474  18.410  0.00  0.00    +0.000 A 
ATOM      4  C   UNL     1       6.595   4.394  18.168  0.00  0.00    +0.000 A 
ATOM      5  C   UNL     1       7.102   5.007  17.017  0.00  0.00    +0.000 A 
ATOM      6  C   UNL     1       6.247   5.668  16.121  0.00  0.00    +0.000 A 
ATOM      7  C   UNL     1       4.871   5.718  16.353  0.00  0.00    +0.000 A 
ATOM      8  C   UNL     1       4.385   5.123  17.505  0.00  0.00    +0.000 A 
ATOM      9  C   UNL     1       2.976   5.013  18.022  0.00  0.00    +0.000 C 
ATOM     10  C   UNL     1       2.250   3.862  17.325  0.00  0.00    +0.000 C 
ATOM     11  C   UNL     1       2.134   6.286  18.032  0.00  0.00    +0.000 C 
ATOM     12  C   UNL     1       2.403   6.959  19.369  0.00  0.00    +0.000 C 
ATOM     13  N   UNL     1       3.310   6.105  20.106  0.00  0.00    +0.000 NA
ATOM     14  C   UNL     1       3.297   4.756  19.524  0.00  0.00    +0.000 C 
ATOM     15  H   UNL     1       3.165   6.085  21.107  0.00  0.00    +0.000 HD
ENDROOT
TORSDOF 0
ENDMDL
MODEL 5
REMARK VINA RESULT:      -6.1      1.615      2.458
REMARK  Name = 
REMARK  2 active torsions:
REMARK  status: ('A' for Active; 'I' for Inactive)
REMARK    1  A    between atoms: C_1  and  N_2
REMARK    2  A    between atoms: C_9  and  C_10
REMARK                            x       y       z     vdW  Elec       q    Type
REMARK                         _______ _______ _______ _____ _____    ______ ____
ROOT
ATOM      1  C   UNL     1       3.453   7.697  17.482  0.00  0.00    +0.000 C 
ATOM      2  N   UNL     1       4.122   6.564  18.109  0.00  0.00    +0.000 N 
ATOM      3  C   UNL     1       3.486   5.312  17.886  0.00  0.00    +0.000 A 
ATOM      4  C   UNL     1       2.284   4.911  18.437  0.00  0.00    +0.000 A 
ATOM      5  C   UNL     1       1.865   3.591  18.231  0.00  0.00    +0.000 A 
ATOM      6  C   UNL     1       2.639   2.705  17.466  0.00  0.00    +0.000 A 
ATOM      7  C   UNL     1       3.837   3.124  16.884  0.00  0.00    +0.000 A 
ATOM      8  C   UNL     1       4.248   4.427  17.111  0.00  0.00    +0.000 A 
ATOM      9  C   UNL     1       5.471   5.158  16.626  0.00  0.00    +0.000 C 
ATOM     10  C   UNL     1       5.253   5.656  15.196  0.00  0.00    +0.000 C 
ATOM     11  C   UNL     1       6.814   4.450  16.777  0.00  0.00    +0.000 C 
ATOM     12  C   UNL     1       7.334   4.820  18.157  0.00  0.00    +0.000 C 
ATOM     13  N   UNL     1       6.371   5.723  18.751  0.00  0.00    +0.000 NA
ATOM     14  C   UNL     1       5.511   6.284  17.700  0.00  0.00    +0.000 C 
ATOM     15  H   UNL     1       6.765   6.445  19.340  0.00  0.00    +0.000 HD
ENDROOT
TORSDOF 0
ENDMDL
MODEL 6
REMARK VINA RESULT:      -5.9      1.409      3.915
REMARK  Name = 
REMARK  2 active torsions:
REMARK  status: ('A' for Active; 'I' for Inactive)
REMARK    1  A    between atoms: C_1  and  N_2
REMARK    2  A    between atoms: C_9  and  C_10
REMARK                            x       y       z     vdW  Elec       q    Type
REMARK                         _______ _______ _______ _____ _____    ______ ____
ROOT
ATOM      1  C   UNL     1       5.103   4.502  15.063  0.00  0.00    +0.000 C 
ATOM      2  N   UNL     1       5.267   3.765  16.309  0.00  0.00    +0.000 N 
ATOM      3  C   UNL     1       6.033   4.445  17.296  0.00  0.00    +0.000 A 
ATOM      4  C   UNL     1       7.396   4.667  17.243  0.00  0.00    +0.000 A 
ATOM      5  C   UNL     1       8.022   5.226  18.364  0.00  0.00    +0.000 A 
ATOM      6  C   UNL     1       7.278   5.572  19.502  0.00  0.00    +0.000 A 
ATOM      7  C   UNL     1       5.896   5.376  19.538  0.00  0.00    +0.000 A 
ATOM      8  C   UNL     1       5.292   4.805  18.430  0.00  0.00    +0.000 A 
ATOM      9  C   UNL     1       3.846   4.475  18.173  0.00  0.00    +0.000 C 
ATOM     10  C   UNL     1       3.093   5.729  17.725  0.00  0.00    +0.000 C 
ATOM     11  C   UNL     1       3.095   3.728  19.271  0.00  0.00    +0.000 C 
ATOM     12  C   UNL     1       3.316   2.248  19.002  0.00  0.00    +0.000 C 
ATOM     13  N   UNL     1       4.110   2.143  17.797  0.00  0.00    +0.000 NA
ATOM     14  C   UNL     1       4.045   3.410  17.055  0.00  0.00    +0.000 C 
ATOM     15  H   UNL     1       3.896   1.350  17.207  0.00  0.00    +0.000 HD
ENDROOT
TORSDOF 0
ENDMDL
MODEL 7
REMARK VINA RESULT:      -5.8      1.486      3.742
REMARK  Name = 
REMARK  2 active torsions:
REMARK  status: ('A' for Active; 'I' for Inactive)
REMARK    1  A    between atoms: C_1  and  N_2
REMARK    2  A    between atoms: C_9  and  C_10
REMARK                            x       y       z     vdW  Elec       q    Type
REMARK                         _______ _______ _______ _____ _____    ______ ____
ROOT
ATOM      1  C   UNL     1       7.009   5.496  19.473  0.00  0.00    +0.000 C 
ATOM      2  N   UNL     1       5.982   5.886  18.515  0.00  0.00    +0.000 N 
ATOM      3  C   UNL     1       6.093   5.253  17.247  0.00  0.00    +0.000 A 
ATOM      4  C   UNL     1       7.072   5.506  16.305  0.00  0.00    +0.000 A 
ATOM      5  C   UNL     1       6.956   4.902  15.047  0.00  0.00    +0.000 A 
ATOM      6  C   UNL     1       5.883   4.043  14.761  0.00  0.00    +0.000 A 
ATOM      7  C   UNL     1       4.915   3.765  15.727  0.00  0.00    +0.000 A 
ATOM      8  C   UNL     1       5.031   4.383  16.960  0.00  0.00    +0.000 A 
ATOM      9  C   UNL     1       4.159   4.284  18.183  0.00  0.00    +0.000 C 
ATOM     10  C   UNL     1       4.506   3.022  18.974  0.00  0.00    +0.000 C 
ATOM     11  C   UNL     1       2.653   4.426  17.981  0.00  0.00    +0.000 C 
ATOM     12  C   UNL     1       2.352   5.914  18.081  0.00  0.00    +0.000 C 
ATOM     13  N   UNL     1       3.601   6.587  18.368  0.00  0.00    +0.000 NA
ATOM     14  C   UNL     1       4.578   5.614  18.876  0.00  0.00    +0.000 C 
ATOM     15  H   UNL     1       3.526   7.395  18.972  0.00  0.00    +0.000 HD
ENDROOT
TORSDOF 0
ENDMDL
MODEL 8
REMARK VINA RESULT:      -5.8      1.518      2.801
REMARK  Name = 
REMARK  2 active torsions:
REMARK  status: ('A' for Active; 'I' for Inactive)
REMARK    1  A    between atoms: C_1  and  N_2
REMARK    2  A    between atoms: C_9  and  C_10
REMARK                            x       y       z     vdW  Elec       q    Type
REMARK                         _______ _______ _______ _____ _____    ______ ____
ROOT
ATOM      1  C   UNL     1       4.439   3.052  19.523  0.00  0.00    +0.000 C 
ATOM      2  N   UNL     1       4.438   3.649  18.194  0.00  0.00    +0.000 N 
ATOM      3  C   UNL     1       3.876   4.955  18.139  0.00  0.00    +0.000 A 
ATOM      4  C   UNL     1       2.537   5.261  18.282  0.00  0.00    +0.000 A 
ATOM      5  C   UNL     1       2.128   6.581  18.058  0.00  0.00    +0.000 A 
ATOM      6  C   UNL     1       3.063   7.572  17.719  0.00  0.00    +0.000 A 
ATOM      7  C   UNL     1       4.420   7.265  17.608  0.00  0.00    +0.000 A 
ATOM      8  C   UNL     1       4.807   5.951  17.814  0.00  0.00    +0.000 A 
ATOM      9  C   UNL     1       6.174   5.323  17.766  0.00  0.00    +0.000 C 
ATOM     10  C   UNL     1       6.911   5.568  19.084  0.00  0.00    +0.000 C 
ATOM     11  C   UNL     1       7.051   5.648  16.561  0.00  0.00    +0.000 C 
ATOM     12  C   UNL     1       6.712   4.613  15.499  0.00  0.00    +0.000 C 
ATOM     13  N   UNL     1       5.730   3.717  16.072  0.00  0.00    +0.000 NA
ATOM     14  C   UNL     1       5.743   3.844  17.535  0.00  0.00    +0.000 C 
ATOM     15  H   UNL     1       5.805   2.752  15.778  0.00  0.00    +0.000 HD
ENDROOT
TORSDOF 0
ENDMDL
MODEL 9
REMARK VINA RESULT:      -5.7      2.334      3.857
REMARK  Name = 
REMARK  2 active torsions:
REMARK  status: ('A' for Active; 'I' for Inactive)
REMARK    1  A    between atoms: C_1  and  N_2
REMARK    2  A    between atoms: C_9  and  C_10
REMARK                            x       y       z     vdW  Elec       q    Type
REMARK                         _______ _______ _______ _____ _____    ______ ____
ROOT
ATOM      1  C   UNL     1       4.521   5.880  16.904  0.00  0.00    +0.000 C 
ATOM      2  N   UNL     1       4.501   5.257  18.222  0.00  0.00    +0.000 N 
ATOM      3  C   UNL     1       3.328   5.525  18.980  0.00  0.00    +0.000 A 
ATOM      4  C   UNL     1       2.997   6.741  19.546  0.00  0.00    +0.000 A 
ATOM      5  C   UNL     1       1.877   6.802  20.383  0.00  0.00    +0.000 A 
ATOM      6  C   UNL     1       1.098   5.659  20.622  0.00  0.00    +0.000 A 
ATOM      7  C   UNL     1       1.417   4.440  20.021  0.00  0.00    +0.000 A 
ATOM      8  C   UNL     1       2.539   4.390  19.210  0.00  0.00    +0.000 A 
ATOM      9  C   UNL     1       3.128   3.240  18.437  0.00  0.00    +0.000 C 
ATOM     10  C   UNL     1       2.376   3.054  17.118  0.00  0.00    +0.000 C 
ATOM     11  C   UNL     1       3.305   1.918  19.177  0.00  0.00    +0.000 C 
ATOM     12  C   UNL     1       4.678   1.978  19.828  0.00  0.00    +0.000 C 
ATOM     13  N   UNL     1       5.278   3.240  19.450  0.00  0.00    +0.000 NA
ATOM     14  C   UNL     1       4.578   3.785  18.279  0.00  0.00    +0.000 C 
ATOM     15  H   UNL     1       6.280   3.217  19.313  0.00  0.00    +0.000 HD
ENDROOT
TORSDOF 0
ENDMDL
