MODEL 1
REMARK VINA RESULT:      -6.9      0.000      0.000
REMARK  Name = 
REMARK  9 active torsions:
REMARK  status: ('A' for Active; 'I' for Inactive)
REMARK    1  A    between atoms: C_1  and  C_2
REMARK    2  A    between atoms: C_2  and  C_3
REMARK    3  A    between atoms: C_2  and  C_4
REMARK    4  A    between atoms: C_4  and  C_5
REMARK    5  A    between atoms: C_5  and  N_6
REMARK    6  A    between atoms: C_5  and  C_7
REMARK    7  A    between atoms: C_13  and  P_14
REMARK    8  A    between atoms: P_14  and  O_16
REMARK    9  A    between atoms: P_14  and  O_17
REMARK                            x       y       z     vdW  Elec       q    Type
REMARK                         _______ _______ _______ _____ _____    ______ ____
ROOT
ATOM      1  C   UNL     1       4.668   4.264  18.003  0.00  0.00    +0.000 C 
ATOM      2  O   UNL     1       3.855   4.109  17.086  0.00  0.00    +0.000 OA
ATOM      3  N   UNL     1       5.853   4.926  17.755  0.00  0.00    +0.000 N 
ATOM      4  C   UNL     1       7.011   5.035  18.616  0.00  0.00    +0.000 C 
ATOM      5  C   UNL     1       7.535   6.430  18.328  0.00  0.00    +0.000 C 
ATOM      6  C   UNL     1       7.218   6.657  16.853  0.00  0.00    +0.000 C 
ATOM      7  C   UNL     1       6.033   5.728  16.534  0.00  0.00    +0.000 C 
ENDROOT
BRANCH   7   8
ATOM      8  P   UNL     1       6.198   4.673  15.048  0.00  0.00    +0.000 P 
ATOM      9  O   UNL     1       7.579   5.246  14.709  0.00  0.00    +0.000 OA
BRANCH   8  10
ATOM     10  O   UNL     1       6.438   3.310  15.923  0.00  0.00    +0.000 OA
ATOM     11  H   UNL     1       5.992   3.377  16.785  0.00  0.00    +0.000 HD
ENDBRANCH   8  10
BRANCH   8  12
ATOM     12  O   UNL     1       6.355   3.676  13.642  0.00  0.00    +0.000 OA
ATOM     13  H   UNL     1       5.423   3.419  13.467  0.00  0.00    +0.000 HD
ENDBRANCH   8  12
ENDBRANCH   7   8
BRANCH   1  14
ATOM     14  C   UNL     1       4.392   3.816  19.469  0.00  0.00    +0.000 C 
BRANCH  14  15
ATOM     15  N   UNL     1       4.784   2.403  19.637  0.00  0.00    +0.000 NA
ATOM     16  H   UNL     1       4.099   1.942  20.236  0.00  0.00    +0.000 HD
ATOM     17  H   UNL     1       5.666   2.366  20.146  0.00  0.00    +0.000 HD
ENDBRANCH  14  15
BRANCH  14  18
ATOM     18  C   UNL     1       2.920   4.042  19.881  0.00  0.00    +0.000 C 
BRANCH  18  20
ATOM     19  C   UNL     1       1.458   2.706  21.506  0.00  0.00    +0.000 C 
ATOM     20  C   UNL     1       2.091   2.753  20.114  0.00  0.00    +0.000 C 
ATOM     21  C   UNL     1       0.992   2.630  19.052  0.00  0.00    +0.000 C 
ENDBRANCH  18  20
ENDBRANCH  14  18
ENDBRANCH   1  14
TORSDOF 7
ENDMDL
MODEL 2
REMARK VINA RESULT:      -6.9      2.057      2.527
REMARK  Name = 
REMARK  9 active torsions:
REMARK  status: ('A' for Active; 'I' for Inactive)
REMARK    1  A    between atoms: C_1  and  C_2
REMARK    2  A    between atoms: C_2  and  C_3
REMARK    3  A    between atoms: C_2  and  C_4
REMARK    4  A    between atoms: C_4  and  C_5
REMARK    5  A    between atoms: C_5  and  N_6
REMARK    6  A    between atoms: C_5  and  C_7
REMARK    7  A    between atoms: C_13  and  P_14
REMARK    8  A    between atoms: P_14  and  O_16
REMARK    9  A    between atoms: P_14  and  O_17
REMARK                            x       y       z     vdW  Elec       q    Type
REMARK                         _______ _______ _______ _____ _____    ______ ____
ROOT
ATOM      1  C   UNL     1       4.379   3.554  18.292  0.00  0.00    +0.000 C 
ATOM      2  O   UNL     1       4.827   3.089  17.238  0.00  0.00    +0.000 OA
ATOM      3  N   UNL     1       4.191   4.915  18.407  0.00  0.00    +0.000 N 
ATOM      4  C   UNL     1       3.878   5.675  19.599  0.00  0.00    +0.000 C 
ATOM      5  C   UNL     1       2.970   6.778  19.086  0.00  0.00    +0.000 C 
ATOM      6  C   UNL     1       3.487   7.072  17.681  0.00  0.00    +0.000 C 
ATOM      7  C   UNL     1       4.194   5.785  17.219  0.00  0.00    +0.000 C 
ENDROOT
BRANCH   7   8
ATOM      8  P   UNL     1       5.876   5.980  16.526  0.00  0.00    +0.000 P 
ATOM      9  O   UNL     1       5.338   6.451  15.171  0.00  0.00    +0.000 OA
BRANCH   8  10
ATOM     10  O   UNL     1       6.193   7.317  17.416  0.00  0.00    +0.000 OA
ATOM     11  H   UNL     1       6.598   7.072  18.266  0.00  0.00    +0.000 HD
ENDBRANCH   8  10
BRANCH   8  12
ATOM     12  O   UNL     1       7.467   6.163  15.870  0.00  0.00    +0.000 OA
ATOM     13  H   UNL     1       7.353   5.824  14.955  0.00  0.00    +0.000 HD
ENDBRANCH   8  12
ENDBRANCH   7   8
BRANCH   1  14
ATOM     14  C   UNL     1       3.935   2.665  19.492  0.00  0.00    +0.000 C 
BRANCH  14  15
ATOM     15  N   UNL     1       4.893   1.555  19.667  0.00  0.00    +0.000 NA
ATOM     16  H   UNL     1       4.589   0.982  20.453  0.00  0.00    +0.000 HD
ATOM     17  H   UNL     1       5.796   1.941  19.938  0.00  0.00    +0.000 HD
ENDBRANCH  14  15
BRANCH  14  18
ATOM     18  C   UNL     1       2.492   2.139  19.326  0.00  0.00    +0.000 C 
BRANCH  18  20
ATOM     19  C   UNL     1       2.182   2.821  21.776  0.00  0.00    +0.000 C 
ATOM     20  C   UNL     1       1.496   2.576  20.430  0.00  0.00    +0.000 C 
ATOM     21  C   UNL     1       0.752   3.846  20.000  0.00  0.00    +0.000 C 
ENDBRANCH  18  20
ENDBRANCH  14  18
ENDBRANCH   1  14
TORSDOF 7
ENDMDL
MODEL 3
REMARK VINA RESULT:      -6.7      1.426      1.768
REMARK  Name = 
REMARK  9 active torsions:
REMARK  status: ('A' for Active; 'I' for Inactive)
REMARK    1  A    between atoms: C_1  and  C_2
REMARK    2  A    between atoms: C_2  and  C_3
REMARK    3  A    between atoms: C_2  and  C_4
REMARK    4  A    between atoms: C_4  and  C_5
REMARK    5  A    between atoms: C_5  and  N_6
REMARK    6  A    between atoms: C_5  and  C_7
REMARK    7  A    between atoms: C_13  and  P_14
REMARK    8  A    between atoms: P_14  and  O_16
REMARK    9  A    between atoms: P_14  and  O_17
REMARK                            x       y       z     vdW  Elec       q    Type
REMARK                         _______ _______ _______ _____ _____    ______ ____
ROOT
ATOM      1  C   UNL     1       3.450   3.491  17.622  0.00  0.00    +0.000 C 
ATOM      2  O   UNL     1       3.013   3.549  16.468  0.00  0.00    +0.000 OA
ATOM      3  N   UNL     1       4.625   4.142  17.936  0.00  0.00    +0.000 N 
ATOM      4  C   UNL     1       5.406   4.036  19.150  0.00  0.00    +0.000 C 
ATOM      5  C   UNL     1       5.951   5.440  19.344  0.00  0.00    +0.000 C 
ATOM      6  C   UNL     1       6.160   5.963  17.925  0.00  0.00    +0.000 C 
ATOM      7  C   UNL     1       5.193   5.161  17.038  0.00  0.00    +0.000 C 
ENDROOT
BRANCH   7   8
ATOM      8  P   UNL     1       5.899   4.412  15.525  0.00  0.00    +0.000 P 
ATOM      9  O   UNL     1       5.709   5.700  14.716  0.00  0.00    +0.000 OA
BRANCH   8  10
ATOM     10  O   UNL     1       7.427   4.429  16.114  0.00  0.00    +0.000 OA
ATOM     11  H   UNL     1       7.959   3.727  15.701  0.00  0.00    +0.000 HD
ENDBRANCH   8  10
BRANCH   8  12
ATOM     12  O   UNL     1       6.567   3.705  14.094  0.00  0.00    +0.000 OA
ATOM     13  H   UNL     1       6.323   2.759  14.198  0.00  0.00    +0.000 HD
ENDBRANCH   8  12
ENDBRANCH   7   8
BRANCH   1  14
ATOM     14  C   UNL     1       2.696   2.775  18.782  0.00  0.00    +0.000 C 
BRANCH  14  15
ATOM     15  N   UNL     1       2.581   1.334  18.482  0.00  0.00    +0.000 NA
ATOM     16  H   UNL     1       3.033   0.807  19.229  0.00  0.00    +0.000 HD
ATOM     17  H   UNL     1       3.115   1.131  17.638  0.00  0.00    +0.000 HD
ENDBRANCH  14  15
BRANCH  14  18
ATOM     18  C   UNL     1       1.310   3.403  19.052  0.00  0.00    +0.000 C 
BRANCH  18  20
ATOM     19  C   UNL     1       1.491   2.925  21.563  0.00  0.00    +0.000 C 
ATOM     20  C   UNL     1       1.095   3.941  20.489  0.00  0.00    +0.000 C 
ATOM     21  C   UNL     1       1.892   5.235  20.696  0.00  0.00    +0.000 C 
ENDBRANCH  18  20
ENDBRANCH  14  18
ENDBRANCH   1  14
TORSDOF 7
ENDMDL
MODEL 4
REMARK VINA RESULT:      -6.5      0.715      1.073
REMARK  Name = 
REMARK  9 active torsions:
REMARK  status: ('A' for Active; 'I' for Inactive)
REMARK    1  A    between atoms: C_1  and  C_2
REMARK    2  A    between atoms: C_2  and  C_3
REMARK    3  A    between atoms: C_2  and  C_4
REMARK    4  A    between atoms: C_4  and  C_5
REMARK    5  A    between atoms: C_5  and  N_6
REMARK    6  A    between atoms: C_5  and  C_7
REMARK    7  A    between atoms: C_13  and  P_14
REMARK    8  A    between atoms: P_14  and  O_16
REMARK    9  A    between atoms: P_14  and  O_17
REMARK                            x       y       z     vdW  Elec       q    Type
REMARK                         _______ _______ _______ _____ _____    ______ ____
ROOT
ATOM      1  C   UNL     1       4.516   3.984  17.625  0.00  0.00    +0.000 C 
ATOM      2  O   UNL     1       3.756   3.926  16.652  0.00  0.00    +0.000 OA
ATOM      3  N   UNL     1       5.711   4.665  17.512  0.00  0.00    +0.000 N 
ATOM      4  C   UNL     1       6.818   4.681  18.444  0.00  0.00    +0.000 C 
ATOM      5  C   UNL     1       7.353   6.097  18.332  0.00  0.00    +0.000 C 
ATOM      6  C   UNL     1       7.117   6.477  16.873  0.00  0.00    +0.000 C 
ATOM      7  C   UNL     1       5.956   5.589  16.393  0.00  0.00    +0.000 C 
ENDROOT
BRANCH   7   8
ATOM      8  P   UNL     1       6.207   4.695  14.817  0.00  0.00    +0.000 P 
ATOM      9  O   UNL     1       7.612   5.276  14.631  0.00  0.00    +0.000 OA
BRANCH   8  10
ATOM     10  O   UNL     1       6.375   3.243  15.556  0.00  0.00    +0.000 OA
ATOM     11  H   UNL     1       5.897   2.553  15.064  0.00  0.00    +0.000 HD
ENDBRANCH   8  10
BRANCH   8  12
ATOM     12  O   UNL     1       6.444   3.849  13.326  0.00  0.00    +0.000 OA
ATOM     13  H   UNL     1       6.706   2.954  13.636  0.00  0.00    +0.000 HD
ENDBRANCH   8  12
ENDBRANCH   7   8
BRANCH   1  14
ATOM     14  C   UNL     1       4.160   3.386  19.018  0.00  0.00    +0.000 C 
BRANCH  14  15
ATOM     15  N   UNL     1       4.573   1.969  19.070  0.00  0.00    +0.000 NA
ATOM     16  H   UNL     1       5.476   1.909  19.539  0.00  0.00    +0.000 HD
ATOM     17  H   UNL     1       4.733   1.641  18.118  0.00  0.00    +0.000 HD
ENDBRANCH  14  15
BRANCH  14  18
ATOM     18  C   UNL     1       2.661   3.545  19.356  0.00  0.00    +0.000 C 
BRANCH  18  20
ATOM     19  C   UNL     1       1.522   5.339  20.787  0.00  0.00    +0.000 C 
ATOM     20  C   UNL     1       2.353   4.054  20.787  0.00  0.00    +0.000 C 
ATOM     21  C   UNL     1       1.616   2.973  21.587  0.00  0.00    +0.000 C 
ENDBRANCH  18  20
ENDBRANCH  14  18
ENDBRANCH   1  14
TORSDOF 7
ENDMDL
MODEL 5
REMARK VINA RESULT:      -6.4      2.684      3.402
REMARK  Name = 
REMARK  9 active torsions:
REMARK  status: ('A' for Active; 'I' for Inactive)
REMARK    1  A    between atoms: C_1  and  C_2
REMARK    2  A    between atoms: C_2  and  C_3
REMARK    3  A    between atoms: C_2  and  C_4
REMARK    4  A    between atoms: C_4  and  C_5
REMARK    5  A    between atoms: C_5  and  N_6
REMARK    6  A    between atoms: C_5  and  C_7
REMARK    7  A    between atoms: C_13  and  P_14
REMARK    8  A    between atoms: P_14  and  O_16
REMARK    9  A    between atoms: P_14  and  O_17
REMARK                            x       y       z     vdW  Elec       q    Type
REMARK                         _______ _______ _______ _____ _____    ______ ____
ROOT
ATOM      1  C   UNL     1       3.961   5.215  19.247  0.00  0.00    +0.000 C 
ATOM      2  O   UNL     1       4.499   4.330  19.920  0.00  0.00    +0.000 OA
ATOM      3  N   UNL     1       4.667   5.813  18.223  0.00  0.00    +0.000 N 
ATOM      4  C   UNL     1       4.307   6.989  17.460  0.00  0.00    +0.000 C 
ATOM      5  C   UNL     1       4.839   6.686  16.072  0.00  0.00    +0.000 C 
ATOM      6  C   UNL     1       6.099   5.860  16.321  0.00  0.00    +0.000 C 
ATOM      7  C   UNL     1       5.906   5.212  17.703  0.00  0.00    +0.000 C 
ENDROOT
BRANCH   7   8
ATOM      8  P   UNL     1       7.291   5.381  18.887  0.00  0.00    +0.000 P 
ATOM      9  O   UNL     1       8.115   4.297  18.183  0.00  0.00    +0.000 OA
BRANCH   8  10
ATOM     10  O   UNL     1       7.764   6.825  18.277  0.00  0.00    +0.000 OA
ATOM     11  H   UNL     1       8.511   7.181  18.787  0.00  0.00    +0.000 HD
ENDBRANCH   8  10
BRANCH   8  12
ATOM     12  O   UNL     1       8.600   5.539  20.006  0.00  0.00    +0.000 OA
ATOM     13  H   UNL     1       8.306   4.969  20.750  0.00  0.00    +0.000 HD
ENDBRANCH   8  12
ENDBRANCH   7   8
BRANCH   1  14
ATOM     14  C   UNL     1       2.477   5.647  19.441  0.00  0.00    +0.000 C 
BRANCH  14  15
ATOM     15  N   UNL     1       2.418   6.834  20.318  0.00  0.00    +0.000 NA
ATOM     16  H   UNL     1       3.333   7.284  20.321  0.00  0.00    +0.000 HD
ATOM     17  H   UNL     1       2.258   6.526  21.276  0.00  0.00    +0.000 HD
ENDBRANCH  14  15
BRANCH  14  18
ATOM     18  C   UNL     1       1.602   4.500  19.993  0.00  0.00    +0.000 C 
BRANCH  18  20
ATOM     19  C   UNL     1       1.412   3.916  17.505  0.00  0.00    +0.000 C 
ATOM     20  C   UNL     1       1.112   3.475  18.940  0.00  0.00    +0.000 C 
ATOM     21  C   UNL     1       1.754   2.105  19.194  0.00  0.00    +0.000 C 
ENDBRANCH  18  20
ENDBRANCH  14  18
ENDBRANCH   1  14
TORSDOF 7
ENDMDL
MODEL 6
REMARK VINA RESULT:      -6.3      2.777      5.612
REMARK  Name = 
REMARK  9 active torsions:
REMARK  status: ('A' for Active; 'I' for Inactive)
REMARK    1  A    between atoms: C_1  and  C_2
REMARK    2  A    between atoms: C_2  and  C_3
REMARK    3  A    between atoms: C_2  and  C_4
REMARK    4  A    between atoms: C_4  and  C_5
REMARK    5  A    between atoms: C_5  and  N_6
REMARK    6  A    between atoms: C_5  and  C_7
REMARK    7  A    between atoms: C_13  and  P_14
REMARK    8  A    between atoms: P_14  and  O_16
REMARK    9  A    between atoms: P_14  and  O_17
REMARK                            x       y       z     vdW  Elec       q    Type
REMARK                         _______ _______ _______ _____ _____    ______ ____
ROOT
ATOM      1  C   UNL     1       4.374   4.141  17.317  0.00  0.00    +0.000 C 
ATOM      2  O   UNL     1       4.417   2.912  17.441  0.00  0.00    +0.000 OA
ATOM      3  N   UNL     1       3.482   4.868  18.078  0.00  0.00    +0.000 N 
ATOM      4  C   UNL     1       3.131   6.266  17.945  0.00  0.00    +0.000 C 
ATOM      5  C   UNL     1       2.905   6.711  19.378  0.00  0.00    +0.000 C 
ATOM      6  C   UNL     1       2.333   5.478  20.073  0.00  0.00    +0.000 C 
ATOM      7  C   UNL     1       2.822   4.273  19.251  0.00  0.00    +0.000 C 
ENDROOT
BRANCH   7   8
ATOM      8  P   UNL     1       1.555   3.046  18.765  0.00  0.00    +0.000 P 
ATOM      9  O   UNL     1       0.678   3.368  19.980  0.00  0.00    +0.000 OA
BRANCH   8  10
ATOM     10  O   UNL     1       1.011   3.957  17.518  0.00  0.00    +0.000 OA
ATOM     11  H   UNL     1       1.114   4.903  17.718  0.00  0.00    +0.000 HD
ENDBRANCH   8  10
BRANCH   8  12
ATOM     12  O   UNL     1       0.356   1.885  18.306  0.00  0.00    +0.000 OA
ATOM     13  H   UNL     1       0.898   1.082  18.143  0.00  0.00    +0.000 HD
ENDBRANCH   8  12
ENDBRANCH   7   8
BRANCH   1  14
ATOM     14  C   UNL     1       5.341   4.936  16.390  0.00  0.00    +0.000 C 
BRANCH  14  15
ATOM     15  N   UNL     1       5.386   4.299  15.059  0.00  0.00    +0.000 NA
ATOM     16  H   UNL     1       4.431   4.128  14.746  0.00  0.00    +0.000 HD
ATOM     17  H   UNL     1       5.817   3.380  15.150  0.00  0.00    +0.000 HD
ENDBRANCH  14  15
BRANCH  14  18
ATOM     18  C   UNL     1       6.756   5.066  16.997  0.00  0.00    +0.000 C 
BRANCH  18  20
ATOM     19  C   UNL     1       7.795   5.708  19.249  0.00  0.00    +0.000 C 
ATOM     20  C   UNL     1       6.915   6.161  18.082  0.00  0.00    +0.000 C 
ATOM     21  C   UNL     1       7.505   7.435  17.466  0.00  0.00    +0.000 C 
ENDBRANCH  18  20
ENDBRANCH  14  18
ENDBRANCH   1  14
TORSDOF 7
ENDMDL
MODEL 7
REMARK VINA RESULT:      -6.3      2.814      5.859
REMARK  Name = 
REMARK  9 active torsions:
REMARK  status: ('A' for Active; 'I' for Inactive)
REMARK    1  A    between atoms: C_1  and  C_2
REMARK    2  A    between atoms: C_2  and  C_3
REMARK    3  A    between atoms: C_2  and  C_4
REMARK    4  A    between atoms: C_4  and  C_5
REMARK    5  A    between atoms: C_5  and  N_6
REMARK    6  A    between atoms: C_5  and  C_7
REMARK    7  A    between atoms: C_13  and  P_14
REMARK    8  A    between atoms: P_14  and  O_16
REMARK    9  A    between atoms: P_14  and  O_17
REMARK                            x       y       z     vdW  Elec       q    Type
REMARK                         _______ _______ _______ _____ _____    ______ ____
ROOT
ATOM      1  C   UNL     1       3.997   4.776  17.478  0.00  0.00    +0.000 C 
ATOM      2  O   UNL     1       4.232   3.563  17.453  0.00  0.00    +0.000 OA
ATOM      3  N   UNL     1       3.053   5.266  18.356  0.00  0.00    +0.000 N 
ATOM      4  C   UNL     1       2.487   6.598  18.406  0.00  0.00    +0.000 C 
ATOM      5  C   UNL     1       2.283   6.840  19.890  0.00  0.00    +0.000 C 
ATOM      6  C   UNL     1       1.946   5.463  20.456  0.00  0.00    +0.000 C 
ATOM      7  C   UNL     1       2.561   4.448  19.477  0.00  0.00    +0.000 C 
ENDROOT
BRANCH   7   8
ATOM      8  P   UNL     1       1.466   3.099  18.902  0.00  0.00    +0.000 P 
ATOM      9  O   UNL     1       2.407   2.014  19.438  0.00  0.00    +0.000 OA
BRANCH   8  10
ATOM     10  O   UNL     1       0.344   3.386  20.059  0.00  0.00    +0.000 OA
ATOM     11  H   UNL     1      -0.211   2.599  20.198  0.00  0.00    +0.000 HD
ENDBRANCH   8  10
BRANCH   8  12
ATOM     12  O   UNL     1       0.432   1.823  18.358  0.00  0.00    +0.000 OA
ATOM     13  H   UNL     1       0.188   2.125  17.456  0.00  0.00    +0.000 HD
ENDBRANCH   8  12
ENDBRANCH   7   8
BRANCH   1  14
ATOM     14  C   UNL     1       4.776   5.811  16.613  0.00  0.00    +0.000 C 
BRANCH  14  15
ATOM     15  N   UNL     1       5.664   5.101  15.671  0.00  0.00    +0.000 NA
ATOM     16  H   UNL     1       6.629   5.230  15.970  0.00  0.00    +0.000 HD
ATOM     17  H   UNL     1       5.595   5.546  14.757  0.00  0.00    +0.000 HD
ENDBRANCH  14  15
BRANCH  14  18
ATOM     18  C   UNL     1       5.568   6.817  17.478  0.00  0.00    +0.000 C 
BRANCH  18  20
ATOM     19  C   UNL     1       7.842   7.994  17.543  0.00  0.00    +0.000 C 
ATOM     20  C   UNL     1       7.108   6.655  17.440  0.00  0.00    +0.000 C 
ATOM     21  C   UNL     1       7.572   5.734  18.576  0.00  0.00    +0.000 C 
ENDBRANCH  18  20
ENDBRANCH  14  18
ENDBRANCH   1  14
TORSDOF 7
ENDMDL
MODEL 8
REMARK VINA RESULT:      -6.3      2.528      5.679
REMARK  Name = 
REMARK  9 active torsions:
REMARK  status: ('A' for Active; 'I' for Inactive)
REMARK    1  A    between atoms: C_1  and  C_2
REMARK    2  A    between atoms: C_2  and  C_3
REMARK    3  A    between atoms: C_2  and  C_4
REMARK    4  A    between atoms: C_4  and  C_5
REMARK    5  A    between atoms: C_5  and  N_6
REMARK    6  A    between atoms: C_5  and  C_7
REMARK    7  A    between atoms: C_13  and  P_14
REMARK    8  A    between atoms: P_14  and  O_16
REMARK    9  A    between atoms: P_14  and  O_17
REMARK                            x       y       z     vdW  Elec       q    Type
REMARK                         _______ _______ _______ _____ _____    ______ ____
ROOT
ATOM      1  C   UNL     1       5.628   4.907  17.542  0.00  0.00    +0.000 C 
ATOM      2  O   UNL     1       6.432   4.016  17.839  0.00  0.00    +0.000 OA
ATOM      3  N   UNL     1       4.386   4.927  18.141  0.00  0.00    +0.000 N 
ATOM      4  C   UNL     1       3.241   5.742  17.794  0.00  0.00    +0.000 C 
ATOM      5  C   UNL     1       2.593   6.031  19.135  0.00  0.00    +0.000 C 
ATOM      6  C   UNL     1       2.858   4.775  19.962  0.00  0.00    +0.000 C 
ATOM      7  C   UNL     1       4.111   4.128  19.347  0.00  0.00    +0.000 C 
ENDROOT
BRANCH   7   8
ATOM      8  P   UNL     1       4.006   2.341  18.967  0.00  0.00    +0.000 P 
ATOM      9  O   UNL     1       4.840   1.961  20.195  0.00  0.00    +0.000 OA
BRANCH   8  10
ATOM     10  O   UNL     1       2.430   2.243  19.399  0.00  0.00    +0.000 OA
ATOM     11  H   UNL     1       2.294   2.635  20.280  0.00  0.00    +0.000 HD
ENDBRANCH   8  10
BRANCH   8  12
ATOM     12  O   UNL     1       3.907   0.651  18.608  0.00  0.00    +0.000 OA
ATOM     13  H   UNL     1       4.752   0.312  18.977  0.00  0.00    +0.000 HD
ENDBRANCH   8  12
ENDBRANCH   7   8
BRANCH   1  14
ATOM     14  C   UNL     1       5.974   6.074  16.570  0.00  0.00    +0.000 C 
BRANCH  14  15
ATOM     15  N   UNL     1       7.096   5.675  15.697  0.00  0.00    +0.000 NA
ATOM     16  H   UNL     1       7.240   6.401  14.996  0.00  0.00    +0.000 HD
ATOM     17  H   UNL     1       6.828   4.840  15.180  0.00  0.00    +0.000 HD
ENDBRANCH  14  15
BRANCH  14  18
ATOM     18  C   UNL     1       6.287   7.386  17.321  0.00  0.00    +0.000 C 
BRANCH  18  20
ATOM     19  C   UNL     1       8.103   9.110  17.864  0.00  0.00    +0.000 C 
ATOM     20  C   UNL     1       7.785   7.631  17.633  0.00  0.00    +0.000 C 
ATOM     21  C   UNL     1       8.209   6.823  18.866  0.00  0.00    +0.000 C 
ENDBRANCH  18  20
ENDBRANCH  14  18
ENDBRANCH   1  14
TORSDOF 7
ENDMDL
MODEL 9
REMARK VINA RESULT:      -6.3      3.315      5.886
REMARK  Name = 
REMARK  9 active torsions:
REMARK  status: ('A' for Active; 'I' for Inactive)
REMARK    1  A    between atoms: C_1  and  C_2
REMARK    2  A    between atoms: C_2  and  C_3
REMARK    3  A    between atoms: C_2  and  C_4
REMARK    4  A    between atoms: C_4  and  C_5
REMARK    5  A    between atoms: C_5  and  N_6
REMARK    6  A    between atoms: C_5  and  C_7
REMARK    7  A    between atoms: C_13  and  P_14
REMARK    8  A    between atoms: P_14  and  O_16
REMARK    9  A    between atoms: P_14  and  O_17
REMARK                            x       y       z     vdW  Elec       q    Type
REMARK                         _______ _______ _______ _____ _____    ______ ____
ROOT
ATOM      1  C   UNL     1       4.726   4.128  18.573  0.00  0.00    +0.000 C 
ATOM      2  O   UNL     1       5.047   3.298  19.431  0.00  0.00    +0.000 OA
ATOM      3  N   UNL     1       3.625   4.932  18.785  0.00  0.00    +0.000 N 
ATOM      4  C   UNL     1       2.967   5.809  17.840  0.00  0.00    +0.000 C 
ATOM      5  C   UNL     1       2.519   6.979  18.697  0.00  0.00    +0.000 C 
ATOM      6  C   UNL     1       2.196   6.355  20.052  0.00  0.00    +0.000 C 
ATOM      7  C   UNL     1       3.024   5.060  20.123  0.00  0.00    +0.000 C 
ENDROOT
BRANCH   7   8
ATOM      8  P   UNL     1       2.130   3.541  20.612  0.00  0.00    +0.000 P 
ATOM      9  O   UNL     1       2.432   3.759  22.099  0.00  0.00    +0.000 OA
BRANCH   8  10
ATOM     10  O   UNL     1       0.659   4.196  20.314  0.00  0.00    +0.000 OA
ATOM     11  H   UNL     1      -0.014   3.801  20.896  0.00  0.00    +0.000 HD
ENDBRANCH   8  10
BRANCH   8  12
ATOM     12  O   UNL     1       1.284   2.105  21.076  0.00  0.00    +0.000 OA
ATOM     13  H   UNL     1       1.948   1.405  20.890  0.00  0.00    +0.000 HD
ENDBRANCH   8  12
ENDBRANCH   7   8
BRANCH   1  14
ATOM     14  C   UNL     1       5.555   4.375  17.278  0.00  0.00    +0.000 C 
BRANCH  14  15
ATOM     15  N   UNL     1       5.516   3.169  16.427  0.00  0.00    +0.000 NA
ATOM     16  H   UNL     1       5.195   2.382  16.990  0.00  0.00    +0.000 HD
ATOM     17  H   UNL     1       6.467   2.937  16.144  0.00  0.00    +0.000 HD
ENDBRANCH  14  15
BRANCH  14  18
ATOM     18  C   UNL     1       7.009   4.795  17.587  0.00  0.00    +0.000 C 
BRANCH  18  20
ATOM     19  C   UNL     1       8.149   5.836  19.632  0.00  0.00    +0.000 C 
ATOM     20  C   UNL     1       7.161   6.050  18.483  0.00  0.00    +0.000 C 
ATOM     21  C   UNL     1       7.613   7.251  17.642  0.00  0.00    +0.000 C 
ENDBRANCH  18  20
ENDBRANCH  14  18
ENDBRANCH   1  14
TORSDOF 7
ENDMDL
