MODEL 1
REMARK VINA RESULT:      -8.8      0.000      0.000
REMARK  Name = 
REMARK  5 active torsions:
REMARK  status: ('A' for Active; 'I' for Inactive)
REMARK    1  A    between atoms: C_1  and  C_2
REMARK    2  A    between atoms: C_5  and  C_6
REMARK    3  A    between atoms: N_8  and  C_9
REMARK    4  A    between atoms: C_13  and  C_14
REMARK    5  A    between atoms: C_17  and  C_18
REMARK                            x       y       z     vdW  Elec       q    Type
REMARK                         _______ _______ _______ _____ _____    ______ ____
ROOT
ATOM      1  C   UNL     1       3.105   5.474  18.776  0.00  0.00    +0.000 A 
ATOM      2  C   UNL     1       2.845   4.403  19.638  0.00  0.00    +0.000 A 
ATOM      3  C   UNL     1       2.083   4.572  20.784  0.00  0.00    +0.000 A 
ATOM      4  C   UNL     1       1.567   5.824  21.082  0.00  0.00    +0.000 A 
ATOM      5  C   UNL     1       1.782   6.940  20.244  0.00  0.00    +0.000 A 
ATOM      6  C   UNL     1       2.596   6.748  19.103  0.00  0.00    +0.000 A 
ENDROOT
BRANCH   5   7
ATOM      7  C   UNL     1       1.102   8.221  20.576  0.00  0.00    +0.000 A 
ATOM      8  C   UNL     1       1.060   9.333  19.719  0.00  0.00    +0.000 A 
ATOM      9  C   UNL     1       0.449  10.546  20.113  0.00  0.00    +0.000 A 
ATOM     10  C   UNL     1      -0.135  10.672  21.380  0.00  0.00    +0.000 A 
ATOM     11  C   UNL     1      -0.118   9.562  22.225  0.00  0.00    +0.000 A 
ATOM     12  C   UNL     1       0.472   8.364  21.827  0.00  0.00    +0.000 A 
BRANCH  10  13
ATOM     13  C   UNL     1      -0.842  11.861  21.856  0.00  0.00    +0.000 A 
ATOM     14  N   UNL     1      -0.456  12.573  22.901  0.00  0.00    +0.000 NA
ATOM     15  C   UNL     1      -1.410  13.527  23.094  0.00  0.00    +0.000 A 
ATOM     16  C   UNL     1      -1.506  14.478  24.114  0.00  0.00    +0.000 A 
ATOM     17  C   UNL     1      -2.622  15.308  24.117  0.00  0.00    +0.000 A 
ATOM     18  F   UNL     1      -2.766  16.201  25.107  0.00  0.00    +0.000 F 
ATOM     19  C   UNL     1      -3.601  15.228  23.128  0.00  0.00    +0.000 A 
ATOM     20  C   UNL     1      -3.498  14.302  22.080  0.00  0.00    +0.000 A 
ATOM     21  C   UNL     1      -2.387  13.455  22.108  0.00  0.00    +0.000 A 
ATOM     22  N   UNL     1      -1.971  12.421  21.300  0.00  0.00    +0.000 N 
ATOM     23  H   UNL     1      -2.425  12.110  20.455  0.00  0.00    +0.000 HD
ENDBRANCH  10  13
ENDBRANCH   5   7
BRANCH   1  26
ATOM     24  C   UNL     1       5.180   4.870  17.547  0.00  0.00    +0.000 C 
ATOM     25  O   UNL     1       5.847   4.516  18.514  0.00  0.00    +0.000 OA
ATOM     26  N   UNL     1       3.856   5.299  17.585  0.00  0.00    +0.000 N 
ATOM     27  H   UNL     1       3.390   5.399  16.689  0.00  0.00    +0.000 HD
BRANCH  24  32
ATOM     28  C   UNL     1       7.809   4.864  12.522  0.00  0.00    +0.000 C 
ATOM     29  C   UNL     1       7.098   4.834  13.837  0.00  0.00    +0.000 A 
ATOM     30  C   UNL     1       5.924   4.106  14.038  0.00  0.00    +0.000 A 
ATOM     31  N   UNL     1       5.257   4.062  15.226  0.00  0.00    +0.000 NA
ATOM     32  C   UNL     1       5.831   4.803  16.212  0.00  0.00    +0.000 A 
ATOM     33  C   UNL     1       7.002   5.528  16.020  0.00  0.00    +0.000 A 
ATOM     34  N   UNL     1       7.658   5.555  14.836  0.00  0.00    +0.000 NA
ENDBRANCH  24  32
ENDBRANCH   1  26
TORSDOF 4
ENDMDL
MODEL 2
REMARK VINA RESULT:      -8.6      0.855      1.215
REMARK  Name = 
REMARK  5 active torsions:
REMARK  status: ('A' for Active; 'I' for Inactive)
REMARK    1  A    between atoms: C_1  and  C_2
REMARK    2  A    between atoms: C_5  and  C_6
REMARK    3  A    between atoms: N_8  and  C_9
REMARK    4  A    between atoms: C_13  and  C_14
REMARK    5  A    between atoms: C_17  and  C_18
REMARK                            x       y       z     vdW  Elec       q    Type
REMARK                         _______ _______ _______ _____ _____    ______ ____
ROOT
ATOM      1  C   UNL     1       3.110   5.041  18.554  0.00  0.00    +0.000 A 
ATOM      2  C   UNL     1       2.746   3.944  19.342  0.00  0.00    +0.000 A 
ATOM      3  C   UNL     1       2.014   4.109  20.508  0.00  0.00    +0.000 A 
ATOM      4  C   UNL     1       1.635   5.383  20.901  0.00  0.00    +0.000 A 
ATOM      5  C   UNL     1       1.960   6.528  20.140  0.00  0.00    +0.000 A 
ATOM      6  C   UNL     1       2.741   6.334  18.977  0.00  0.00    +0.000 A 
ENDROOT
BRANCH   5   7
ATOM      7  C   UNL     1       1.421   7.846  20.572  0.00  0.00    +0.000 A 
ATOM      8  C   UNL     1       0.908   8.104  21.854  0.00  0.00    +0.000 A 
ATOM      9  C   UNL     1       0.355   9.362  22.188  0.00  0.00    +0.000 A 
ATOM     10  C   UNL     1       0.304  10.392  21.242  0.00  0.00    +0.000 A 
ATOM     11  C   UNL     1       0.836  10.150  19.975  0.00  0.00    +0.000 A 
ATOM     12  C   UNL     1       1.392   8.914  19.654  0.00  0.00    +0.000 A 
BRANCH  10  13
ATOM     13  C   UNL     1      -0.191  11.743  21.509  0.00  0.00    +0.000 A 
ATOM     14  N   UNL     1      -0.336  12.244  22.723  0.00  0.00    +0.000 NA
ATOM     15  C   UNL     1      -0.910  13.471  22.572  0.00  0.00    +0.000 A 
ATOM     16  C   UNL     1      -1.338  14.367  23.555  0.00  0.00    +0.000 A 
ATOM     17  C   UNL     1      -1.952  15.541  23.133  0.00  0.00    +0.000 A 
ATOM     18  F   UNL     1      -2.413  16.401  24.053  0.00  0.00    +0.000 F 
ATOM     19  C   UNL     1      -2.115  15.841  21.781  0.00  0.00    +0.000 A 
ATOM     20  C   UNL     1      -1.659  14.966  20.785  0.00  0.00    +0.000 A 
ATOM     21  C   UNL     1      -1.071  13.778  21.225  0.00  0.00    +0.000 A 
ATOM     22  N   UNL     1      -0.553  12.684  20.569  0.00  0.00    +0.000 N 
ATOM     23  H   UNL     1      -0.470  12.577  19.570  0.00  0.00    +0.000 HD
ENDBRANCH  10  13
ENDBRANCH   5   7
BRANCH   1  26
ATOM     24  C   UNL     1       5.218   4.803  17.255  0.00  0.00    +0.000 C 
ATOM     25  O   UNL     1       5.996   4.799  18.204  0.00  0.00    +0.000 OA
ATOM     26  N   UNL     1       3.830   4.873  17.342  0.00  0.00    +0.000 N 
ATOM     27  H   UNL     1       3.317   4.701  16.484  0.00  0.00    +0.000 HD
BRANCH  24  32
ATOM     28  C   UNL     1       7.616   4.614  12.120  0.00  0.00    +0.000 C 
ATOM     29  C   UNL     1       6.965   4.633  13.465  0.00  0.00    +0.000 A 
ATOM     30  C   UNL     1       5.776   3.950  13.732  0.00  0.00    +0.000 A 
ATOM     31  N   UNL     1       5.163   3.951  14.950  0.00  0.00    +0.000 NA
ATOM     32  C   UNL     1       5.805   4.690  15.895  0.00  0.00    +0.000 A 
ATOM     33  C   UNL     1       6.991   5.370  15.636  0.00  0.00    +0.000 A 
ATOM     34  N   UNL     1       7.593   5.352  14.424  0.00  0.00    +0.000 NA
ENDBRANCH  24  32
ENDBRANCH   1  26
TORSDOF 4
ENDMDL
MODEL 3
REMARK VINA RESULT:      -8.6      1.107      1.491
REMARK  Name = 
REMARK  5 active torsions:
REMARK  status: ('A' for Active; 'I' for Inactive)
REMARK    1  A    between atoms: C_1  and  C_2
REMARK    2  A    between atoms: C_5  and  C_6
REMARK    3  A    between atoms: N_8  and  C_9
REMARK    4  A    between atoms: C_13  and  C_14
REMARK    5  A    between atoms: C_17  and  C_18
REMARK                            x       y       z     vdW  Elec       q    Type
REMARK                         _______ _______ _______ _____ _____    ______ ____
ROOT
ATOM      1  C   UNL     1       3.214   5.207  18.462  0.00  0.00    +0.000 A 
ATOM      2  C   UNL     1       2.858   4.142  19.296  0.00  0.00    +0.000 A 
ATOM      3  C   UNL     1       2.129   4.351  20.457  0.00  0.00    +0.000 A 
ATOM      4  C   UNL     1       1.744   5.639  20.798  0.00  0.00    +0.000 A 
ATOM      5  C   UNL     1       2.061   6.753  19.990  0.00  0.00    +0.000 A 
ATOM      6  C   UNL     1       2.840   6.515  18.833  0.00  0.00    +0.000 A 
ENDROOT
BRANCH   5   7
ATOM      7  C   UNL     1       1.517   8.085  20.369  0.00  0.00    +0.000 A 
ATOM      8  C   UNL     1       1.303   9.133  19.459  0.00  0.00    +0.000 A 
ATOM      9  C   UNL     1       0.839  10.398  19.887  0.00  0.00    +0.000 A 
ATOM     10  C   UNL     1       0.579  10.642  21.241  0.00  0.00    +0.000 A 
ATOM     11  C   UNL     1       0.765   9.596  22.145  0.00  0.00    +0.000 A 
ATOM     12  C   UNL     1       1.209   8.347  21.718  0.00  0.00    +0.000 A 
BRANCH  10  13
ATOM     13  C   UNL     1       0.040  11.894  21.774  0.00  0.00    +0.000 A 
ATOM     14  N   UNL     1       0.567  13.081  21.529  0.00  0.00    +0.000 NA
ATOM     15  C   UNL     1      -0.140  13.980  22.270  0.00  0.00    +0.000 A 
ATOM     16  C   UNL     1       0.073  15.353  22.421  0.00  0.00    +0.000 A 
ATOM     17  C   UNL     1      -0.764  16.042  23.292  0.00  0.00    +0.000 A 
ATOM     18  F   UNL     1      -0.558  17.352  23.493  0.00  0.00    +0.000 F 
ATOM     19  C   UNL     1      -1.801  15.406  23.973  0.00  0.00    +0.000 A 
ATOM     20  C   UNL     1      -2.047  14.037  23.803  0.00  0.00    +0.000 A 
ATOM     21  C   UNL     1      -1.179  13.352  22.948  0.00  0.00    +0.000 A 
ATOM     22  N   UNL     1      -1.076  12.032  22.570  0.00  0.00    +0.000 N 
ATOM     23  H   UNL     1      -1.698  11.288  22.843  0.00  0.00    +0.000 HD
ENDBRANCH  10  13
ENDBRANCH   5   7
BRANCH   1  26
ATOM     24  C   UNL     1       5.310   5.134  17.125  0.00  0.00    +0.000 C 
ATOM     25  O   UNL     1       6.094   5.382  18.036  0.00  0.00    +0.000 OA
ATOM     26  N   UNL     1       3.931   4.993  17.256  0.00  0.00    +0.000 N 
ATOM     27  H   UNL     1       3.438   4.627  16.448  0.00  0.00    +0.000 HD
BRANCH  24  32
ATOM     28  C   UNL     1       7.323   4.129  11.920  0.00  0.00    +0.000 C 
ATOM     29  C   UNL     1       6.816   4.423  13.295  0.00  0.00    +0.000 A 
ATOM     30  C   UNL     1       7.530   5.203  14.207  0.00  0.00    +0.000 A 
ATOM     31  N   UNL     1       7.089   5.486  15.466  0.00  0.00    +0.000 NA
ATOM     32  C   UNL     1       5.885   4.932  15.770  0.00  0.00    +0.000 A 
ATOM     33  C   UNL     1       5.167   4.156  14.865  0.00  0.00    +0.000 A 
ATOM     34  N   UNL     1       5.613   3.891  13.615  0.00  0.00    +0.000 NA
ENDBRANCH  24  32
ENDBRANCH   1  26
TORSDOF 4
ENDMDL
MODEL 4
REMARK VINA RESULT:      -8.6      1.070      1.531
REMARK  Name = 
REMARK  5 active torsions:
REMARK  status: ('A' for Active; 'I' for Inactive)
REMARK    1  A    between atoms: C_1  and  C_2
REMARK    2  A    between atoms: C_5  and  C_6
REMARK    3  A    between atoms: N_8  and  C_9
REMARK    4  A    between atoms: C_13  and  C_14
REMARK    5  A    between atoms: C_17  and  C_18
REMARK                            x       y       z     vdW  Elec       q    Type
REMARK                         _______ _______ _______ _____ _____    ______ ____
ROOT
ATOM      1  C   UNL     1       2.887   5.375  18.645  0.00  0.00    +0.000 A 
ATOM      2  C   UNL     1       2.342   4.239  19.255  0.00  0.00    +0.000 A 
ATOM      3  C   UNL     1       1.511   4.347  20.359  0.00  0.00    +0.000 A 
ATOM      4  C   UNL     1       1.211   5.601  20.869  0.00  0.00    +0.000 A 
ATOM      5  C   UNL     1       1.719   6.784  20.288  0.00  0.00    +0.000 A 
ATOM      6  C   UNL     1       2.597   6.643  19.188  0.00  0.00    +0.000 A 
ENDROOT
BRANCH   5   7
ATOM      7  C   UNL     1       1.262   8.094  20.826  0.00  0.00    +0.000 A 
ATOM      8  C   UNL     1       0.893   8.308  22.165  0.00  0.00    +0.000 A 
ATOM      9  C   UNL     1       0.411   9.562  22.605  0.00  0.00    +0.000 A 
ATOM     10  C   UNL     1       0.286  10.633  21.712  0.00  0.00    +0.000 A 
ATOM     11  C   UNL     1       0.676  10.433  20.387  0.00  0.00    +0.000 A 
ATOM     12  C   UNL     1       1.164   9.200  19.960  0.00  0.00    +0.000 A 
BRANCH  10  13
ATOM     13  C   UNL     1      -0.144  11.981  22.083  0.00  0.00    +0.000 A 
ATOM     14  N   UNL     1       0.409  13.083  21.606  0.00  0.00    +0.000 NA
ATOM     15  C   UNL     1      -0.184  14.126  22.253  0.00  0.00    +0.000 A 
ATOM     16  C   UNL     1       0.103  15.492  22.163  0.00  0.00    +0.000 A 
ATOM     17  C   UNL     1      -0.615  16.355  22.983  0.00  0.00    +0.000 A 
ATOM     18  F   UNL     1      -0.334  17.666  22.952  0.00  0.00    +0.000 F 
ATOM     19  C   UNL     1      -1.609  15.894  23.845  0.00  0.00    +0.000 A 
ATOM     20  C   UNL     1      -1.930  14.531  23.919  0.00  0.00    +0.000 A 
ATOM     21  C   UNL     1      -1.179  13.673  23.112  0.00  0.00    +0.000 A 
ATOM     22  N   UNL     1      -1.170  12.307  22.942  0.00  0.00    +0.000 N 
ATOM     23  H   UNL     1      -1.795  11.651  23.385  0.00  0.00    +0.000 HD
ENDBRANCH  10  13
ENDBRANCH   5   7
BRANCH   1  26
ATOM     24  C   UNL     1       4.990   4.719  17.490  0.00  0.00    +0.000 C 
ATOM     25  O   UNL     1       5.543   4.185  18.446  0.00  0.00    +0.000 OA
ATOM     26  N   UNL     1       3.711   5.271  17.494  0.00  0.00    +0.000 N 
ATOM     27  H   UNL     1       3.329   5.526  16.589  0.00  0.00    +0.000 HD
BRANCH  24  32
ATOM     28  C   UNL     1       7.972   5.084  12.681  0.00  0.00    +0.000 C 
ATOM     29  C   UNL     1       7.169   4.957  13.935  0.00  0.00    +0.000 A 
ATOM     30  C   UNL     1       5.995   4.204  14.001  0.00  0.00    +0.000 A 
ATOM     31  N   UNL     1       5.246   4.071  15.132  0.00  0.00    +0.000 NA
ATOM     32  C   UNL     1       5.735   4.750  16.205  0.00  0.00    +0.000 A 
ATOM     33  C   UNL     1       6.905   5.500  16.147  0.00  0.00    +0.000 A 
ATOM     34  N   UNL     1       7.644   5.615  15.019  0.00  0.00    +0.000 NA
ENDBRANCH  24  32
ENDBRANCH   1  26
TORSDOF 4
ENDMDL
MODEL 5
REMARK VINA RESULT:      -8.6      4.554     12.045
REMARK  Name = 
REMARK  5 active torsions:
REMARK  status: ('A' for Active; 'I' for Inactive)
REMARK    1  A    between atoms: C_1  and  C_2
REMARK    2  A    between atoms: C_5  and  C_6
REMARK    3  A    between atoms: N_8  and  C_9
REMARK    4  A    between atoms: C_13  and  C_14
REMARK    5  A    between atoms: C_17  and  C_18
REMARK                            x       y       z     vdW  Elec       q    Type
REMARK                         _______ _______ _______ _____ _____    ______ ____
ROOT
ATOM      1  C   UNL     1      -1.333  11.909  21.739  0.00  0.00    +0.000 A 
ATOM      2  C   UNL     1      -1.522  11.367  23.016  0.00  0.00    +0.000 A 
ATOM      3  C   UNL     1      -0.973  10.143  23.364  0.00  0.00    +0.000 A 
ATOM      4  C   UNL     1      -0.223   9.441  22.433  0.00  0.00    +0.000 A 
ATOM      5  C   UNL     1       0.015   9.941  21.135  0.00  0.00    +0.000 A 
ATOM      6  C   UNL     1      -0.590  11.174  20.793  0.00  0.00    +0.000 A 
ENDROOT
BRANCH   5   7
ATOM      7  C   UNL     1       0.922   9.180  20.233  0.00  0.00    +0.000 A 
ATOM      8  C   UNL     1       1.232   9.570  18.919  0.00  0.00    +0.000 A 
ATOM      9  C   UNL     1       2.054   8.774  18.089  0.00  0.00    +0.000 A 
ATOM     10  C   UNL     1       2.585   7.566  18.557  0.00  0.00    +0.000 A 
ATOM     11  C   UNL     1       2.301   7.188  19.870  0.00  0.00    +0.000 A 
ATOM     12  C   UNL     1       1.502   7.981  20.689  0.00  0.00    +0.000 A 
BRANCH  10  13
ATOM     13  C   UNL     1       3.492   6.705  17.797  0.00  0.00    +0.000 A 
ATOM     14  N   UNL     1       4.354   7.158  16.904  0.00  0.00    +0.000 NA
ATOM     15  C   UNL     1       4.941   6.063  16.342  0.00  0.00    +0.000 A 
ATOM     16  C   UNL     1       5.864   6.004  15.293  0.00  0.00    +0.000 A 
ATOM     17  C   UNL     1       6.268   4.745  14.862  0.00  0.00    +0.000 A 
ATOM     18  F   UNL     1       7.118   4.653  13.829  0.00  0.00    +0.000 F 
ATOM     19  C   UNL     1       5.802   3.577  15.464  0.00  0.00    +0.000 A 
ATOM     20  C   UNL     1       4.903   3.624  16.539  0.00  0.00    +0.000 A 
ATOM     21  C   UNL     1       4.484   4.895  16.941  0.00  0.00    +0.000 A 
ATOM     22  N   UNL     1       3.603   5.336  17.904  0.00  0.00    +0.000 N 
ATOM     23  H   UNL     1       3.107   4.756  18.562  0.00  0.00    +0.000 HD
ENDBRANCH  10  13
ENDBRANCH   5   7
BRANCH   1  26
ATOM     24  C   UNL     1      -3.224  13.456  21.278  0.00  0.00    +0.000 C 
ATOM     25  O   UNL     1      -4.138  12.681  21.537  0.00  0.00    +0.000 OA
ATOM     26  N   UNL     1      -1.864  13.177  21.389  0.00  0.00    +0.000 N 
ATOM     27  H   UNL     1      -1.234  13.967  21.298  0.00  0.00    +0.000 HD
BRANCH  24  32
ATOM     28  C   UNL     1      -4.904  18.569  19.489  0.00  0.00    +0.000 C 
ATOM     29  C   UNL     1      -4.430  17.237  19.974  0.00  0.00    +0.000 A 
ATOM     30  C   UNL     1      -3.089  16.979  20.268  0.00  0.00    +0.000 A 
ATOM     31  N   UNL     1      -2.632  15.774  20.712  0.00  0.00    +0.000 NA
ATOM     32  C   UNL     1      -3.599  14.825  20.838  0.00  0.00    +0.000 A 
ATOM     33  C   UNL     1      -4.936  15.076  20.550  0.00  0.00    +0.000 A 
ATOM     34  N   UNL     1      -5.377  16.281  20.119  0.00  0.00    +0.000 NA
ENDBRANCH  24  32
ENDBRANCH   1  26
TORSDOF 4
ENDMDL
MODEL 6
REMARK VINA RESULT:      -8.4      0.903      1.302
REMARK  Name = 
REMARK  5 active torsions:
REMARK  status: ('A' for Active; 'I' for Inactive)
REMARK    1  A    between atoms: C_1  and  C_2
REMARK    2  A    between atoms: C_5  and  C_6
REMARK    3  A    between atoms: N_8  and  C_9
REMARK    4  A    between atoms: C_13  and  C_14
REMARK    5  A    between atoms: C_17  and  C_18
REMARK                            x       y       z     vdW  Elec       q    Type
REMARK                         _______ _______ _______ _____ _____    ______ ____
ROOT
ATOM      1  C   UNL     1       3.225   5.403  18.518  0.00  0.00    +0.000 A 
ATOM      2  C   UNL     1       2.913   4.323  19.351  0.00  0.00    +0.000 A 
ATOM      3  C   UNL     1       2.187   4.503  20.519  0.00  0.00    +0.000 A 
ATOM      4  C   UNL     1       1.761   5.776  20.868  0.00  0.00    +0.000 A 
ATOM      5  C   UNL     1       2.033   6.903  20.062  0.00  0.00    +0.000 A 
ATOM      6  C   UNL     1       2.809   6.696  18.897  0.00  0.00    +0.000 A 
ENDROOT
BRANCH   5   7
ATOM      7  C   UNL     1       1.447   8.214  20.450  0.00  0.00    +0.000 A 
ATOM      8  C   UNL     1       1.177   9.253  19.544  0.00  0.00    +0.000 A 
ATOM      9  C   UNL     1       0.675  10.501  19.981  0.00  0.00    +0.000 A 
ATOM     10  C   UNL     1       0.431  10.735  21.340  0.00  0.00    +0.000 A 
ATOM     11  C   UNL     1       0.672   9.698  22.240  0.00  0.00    +0.000 A 
ATOM     12  C   UNL     1       1.154   8.466  21.805  0.00  0.00    +0.000 A 
BRANCH  10  13
ATOM     13  C   UNL     1      -0.144  11.967  21.882  0.00  0.00    +0.000 A 
ATOM     14  N   UNL     1      -1.113  11.989  22.781  0.00  0.00    +0.000 NA
ATOM     15  C   UNL     1      -1.447  13.298  22.960  0.00  0.00    +0.000 A 
ATOM     16  C   UNL     1      -2.465  13.845  23.746  0.00  0.00    +0.000 A 
ATOM     17  C   UNL     1      -2.638  15.224  23.709  0.00  0.00    +0.000 A 
ATOM     18  F   UNL     1      -3.633  15.774  24.418  0.00  0.00    +0.000 F 
ATOM     19  C   UNL     1      -1.813  16.048  22.944  0.00  0.00    +0.000 A 
ATOM     20  C   UNL     1      -0.766  15.515  22.178  0.00  0.00    +0.000 A 
ATOM     21  C   UNL     1      -0.625  14.125  22.203  0.00  0.00    +0.000 A 
ATOM     22  N   UNL     1       0.233  13.255  21.569  0.00  0.00    +0.000 N 
ATOM     23  H   UNL     1       0.995  13.511  20.962  0.00  0.00    +0.000 HD
ENDBRANCH  10  13
ENDBRANCH   5   7
BRANCH   1  26
ATOM     24  C   UNL     1       5.297   4.924  17.229  0.00  0.00    +0.000 C 
ATOM     25  O   UNL     1       6.038   4.711  18.183  0.00  0.00    +0.000 OA
ATOM     26  N   UNL     1       3.938   5.218  17.305  0.00  0.00    +0.000 N 
ATOM     27  H   UNL     1       3.425   5.206  16.429  0.00  0.00    +0.000 HD
BRANCH  24  32
ATOM     28  C   UNL     1       7.395   4.318  11.995  0.00  0.00    +0.000 C 
ATOM     29  C   UNL     1       6.864   4.507  13.380  0.00  0.00    +0.000 A 
ATOM     30  C   UNL     1       7.548   5.242  14.351  0.00  0.00    +0.000 A 
ATOM     31  N   UNL     1       7.085   5.430  15.620  0.00  0.00    +0.000 NA
ATOM     32  C   UNL     1       5.892   4.827  15.871  0.00  0.00    +0.000 A 
ATOM     33  C   UNL     1       5.204   4.096  14.907  0.00  0.00    +0.000 A 
ATOM     34  N   UNL     1       5.672   3.926  13.648  0.00  0.00    +0.000 NA
ENDBRANCH  24  32
ENDBRANCH   1  26
TORSDOF 4
ENDMDL
MODEL 7
REMARK VINA RESULT:      -8.3      1.022      1.585
REMARK  Name = 
REMARK  5 active torsions:
REMARK  status: ('A' for Active; 'I' for Inactive)
REMARK    1  A    between atoms: C_1  and  C_2
REMARK    2  A    between atoms: C_5  and  C_6
REMARK    3  A    between atoms: N_8  and  C_9
REMARK    4  A    between atoms: C_13  and  C_14
REMARK    5  A    between atoms: C_17  and  C_18
REMARK                            x       y       z     vdW  Elec       q    Type
REMARK                         _______ _______ _______ _____ _____    ______ ____
ROOT
ATOM      1  C   UNL     1       3.363   5.193  18.488  0.00  0.00    +0.000 A 
ATOM      2  C   UNL     1       3.173   4.163  19.416  0.00  0.00    +0.000 A 
ATOM      3  C   UNL     1       2.475   4.378  20.594  0.00  0.00    +0.000 A 
ATOM      4  C   UNL     1       1.953   5.635  20.858  0.00  0.00    +0.000 A 
ATOM      5  C   UNL     1       2.098   6.710  19.955  0.00  0.00    +0.000 A 
ATOM      6  C   UNL     1       2.850   6.473  18.780  0.00  0.00    +0.000 A 
ENDROOT
BRANCH   5   7
ATOM      7  C   UNL     1       1.415   7.996  20.261  0.00  0.00    +0.000 A 
ATOM      8  C   UNL     1       1.416   9.110  19.405  0.00  0.00    +0.000 A 
ATOM      9  C   UNL     1       0.798  10.326  19.777  0.00  0.00    +0.000 A 
ATOM     10  C   UNL     1       0.163  10.454  21.018  0.00  0.00    +0.000 A 
ATOM     11  C   UNL     1       0.136   9.342  21.861  0.00  0.00    +0.000 A 
ATOM     12  C   UNL     1       0.734   8.141  21.485  0.00  0.00    +0.000 A 
BRANCH  10  13
ATOM     13  C   UNL     1      -0.555  11.647  21.467  0.00  0.00    +0.000 A 
ATOM     14  N   UNL     1      -1.154  12.493  20.648  0.00  0.00    +0.000 NA
ATOM     15  C   UNL     1      -1.618  13.517  21.418  0.00  0.00    +0.000 A 
ATOM     16  C   UNL     1      -2.254  14.697  21.019  0.00  0.00    +0.000 A 
ATOM     17  C   UNL     1      -2.578  15.619  22.008  0.00  0.00    +0.000 A 
ATOM     18  F   UNL     1      -3.148  16.779  21.654  0.00  0.00    +0.000 F 
ATOM     19  C   UNL     1      -2.314  15.376  23.355  0.00  0.00    +0.000 A 
ATOM     20  C   UNL     1      -1.708  14.182  23.772  0.00  0.00    +0.000 A 
ATOM     21  C   UNL     1      -1.361  13.279  22.763  0.00  0.00    +0.000 A 
ATOM     22  N   UNL     1      -0.733  12.054  22.772  0.00  0.00    +0.000 N 
ATOM     23  H   UNL     1      -0.434  11.547  23.590  0.00  0.00    +0.000 HD
ENDBRANCH  10  13
ENDBRANCH   5   7
BRANCH   1  26
ATOM     24  C   UNL     1       5.424   5.104  17.099  0.00  0.00    +0.000 C 
ATOM     25  O   UNL     1       6.232   5.356  17.988  0.00  0.00    +0.000 OA
ATOM     26  N   UNL     1       4.048   4.969  17.265  0.00  0.00    +0.000 N 
ATOM     27  H   UNL     1       3.534   4.598  16.473  0.00  0.00    +0.000 HD
BRANCH  24  32
ATOM     28  C   UNL     1       7.303   4.055  11.853  0.00  0.00    +0.000 C 
ATOM     29  C   UNL     1       6.831   4.361  13.238  0.00  0.00    +0.000 A 
ATOM     30  C   UNL     1       7.566   5.153  14.123  0.00  0.00    +0.000 A 
ATOM     31  N   UNL     1       7.157   5.447  15.389  0.00  0.00    +0.000 NA
ATOM     32  C   UNL     1       5.963   4.891  15.731  0.00  0.00    +0.000 A 
ATOM     33  C   UNL     1       5.225   4.103  14.854  0.00  0.00    +0.000 A 
ATOM     34  N   UNL     1       5.640   3.828  13.595  0.00  0.00    +0.000 NA
ENDBRANCH  24  32
ENDBRANCH   1  26
TORSDOF 4
ENDMDL
MODEL 8
REMARK VINA RESULT:      -8.3      1.279      1.714
REMARK  Name = 
REMARK  5 active torsions:
REMARK  status: ('A' for Active; 'I' for Inactive)
REMARK    1  A    between atoms: C_1  and  C_2
REMARK    2  A    between atoms: C_5  and  C_6
REMARK    3  A    between atoms: N_8  and  C_9
REMARK    4  A    between atoms: C_13  and  C_14
REMARK    5  A    between atoms: C_17  and  C_18
REMARK                            x       y       z     vdW  Elec       q    Type
REMARK                         _______ _______ _______ _____ _____    ______ ____
ROOT
ATOM      1  C   UNL     1       3.346   5.083  18.446  0.00  0.00    +0.000 A 
ATOM      2  C   UNL     1       3.047   4.035  19.324  0.00  0.00    +0.000 A 
ATOM      3  C   UNL     1       2.345   4.260  20.498  0.00  0.00    +0.000 A 
ATOM      4  C   UNL     1       1.929   5.545  20.809  0.00  0.00    +0.000 A 
ATOM      5  C   UNL     1       2.187   6.641  19.957  0.00  0.00    +0.000 A 
ATOM      6  C   UNL     1       2.941   6.390  18.786  0.00  0.00    +0.000 A 
ENDROOT
BRANCH   5   7
ATOM      7  C   UNL     1       1.612   7.968  20.308  0.00  0.00    +0.000 A 
ATOM      8  C   UNL     1       1.139   8.305  21.587  0.00  0.00    +0.000 A 
ATOM      9  C   UNL     1       0.548   9.563  21.847  0.00  0.00    +0.000 A 
ATOM     10  C   UNL     1       0.418  10.514  20.828  0.00  0.00    +0.000 A 
ATOM     11  C   UNL     1       0.910  10.194  19.562  0.00  0.00    +0.000 A 
ATOM     12  C   UNL     1       1.504   8.959  19.314  0.00  0.00    +0.000 A 
BRANCH  10  13
ATOM     13  C   UNL     1      -0.122  11.862  21.011  0.00  0.00    +0.000 A 
ATOM     14  N   UNL     1       0.524  12.830  21.637  0.00  0.00    +0.000 NA
ATOM     15  C   UNL     1      -0.330  13.892  21.694  0.00  0.00    +0.000 A 
ATOM     16  C   UNL     1      -0.151  15.128  22.322  0.00  0.00    +0.000 A 
ATOM     17  C   UNL     1      -1.211  16.028  22.285  0.00  0.00    +0.000 A 
ATOM     18  F   UNL     1      -1.088  17.205  22.914  0.00  0.00    +0.000 F 
ATOM     19  C   UNL     1      -2.402  15.734  21.622  0.00  0.00    +0.000 A 
ATOM     20  C   UNL     1      -2.580  14.511  20.959  0.00  0.00    +0.000 A 
ATOM     21  C   UNL     1      -1.518  13.606  21.032  0.00  0.00    +0.000 A 
ATOM     22  N   UNL     1      -1.337  12.326  20.557  0.00  0.00    +0.000 N 
ATOM     23  H   UNL     1      -1.990  11.807  19.991  0.00  0.00    +0.000 HD
ENDBRANCH  10  13
ENDBRANCH   5   7
BRANCH   1  26
ATOM     24  C   UNL     1       5.370   5.180  17.004  0.00  0.00    +0.000 C 
ATOM     25  O   UNL     1       6.144   5.637  17.839  0.00  0.00    +0.000 OA
ATOM     26  N   UNL     1       4.035   4.852  17.227  0.00  0.00    +0.000 N 
ATOM     27  H   UNL     1       3.570   4.333  16.489  0.00  0.00    +0.000 HD
BRANCH  24  32
ATOM     28  C   UNL     1       7.237   3.981  11.786  0.00  0.00    +0.000 C 
ATOM     29  C   UNL     1       6.770   4.325  13.163  0.00  0.00    +0.000 A 
ATOM     30  C   UNL     1       7.550   5.061  14.058  0.00  0.00    +0.000 A 
ATOM     31  N   UNL     1       7.147   5.388  15.318  0.00  0.00    +0.000 NA
ATOM     32  C   UNL     1       5.910   4.924  15.644  0.00  0.00    +0.000 A 
ATOM     33  C   UNL     1       5.127   4.193  14.757  0.00  0.00    +0.000 A 
ATOM     34  N   UNL     1       5.537   3.884  13.505  0.00  0.00    +0.000 NA
ENDBRANCH  24  32
ENDBRANCH   1  26
TORSDOF 4
ENDMDL
MODEL 9
REMARK VINA RESULT:      -8.2      1.113      1.570
REMARK  Name = 
REMARK  5 active torsions:
REMARK  status: ('A' for Active; 'I' for Inactive)
REMARK    1  A    between atoms: C_1  and  C_2
REMARK    2  A    between atoms: C_5  and  C_6
REMARK    3  A    between atoms: N_8  and  C_9
REMARK    4  A    between atoms: C_13  and  C_14
REMARK    5  A    between atoms: C_17  and  C_18
REMARK                            x       y       z     vdW  Elec       q    Type
REMARK                         _______ _______ _______ _____ _____    ______ ____
ROOT
ATOM      1  C   UNL     1       3.844   4.764  18.113  0.00  0.00    +0.000 A 
ATOM      2  C   UNL     1       3.710   3.748  19.066  0.00  0.00    +0.000 A 
ATOM      3  C   UNL     1       3.016   3.959  20.247  0.00  0.00    +0.000 A 
ATOM      4  C   UNL     1       2.443   5.198  20.490  0.00  0.00    +0.000 A 
ATOM      5  C   UNL     1       2.531   6.258  19.561  0.00  0.00    +0.000 A 
ATOM      6  C   UNL     1       3.279   6.027  18.382  0.00  0.00    +0.000 A 
ENDROOT
BRANCH   5   7
ATOM      7  C   UNL     1       1.796   7.519  19.847  0.00  0.00    +0.000 A 
ATOM      8  C   UNL     1       1.731   8.608  18.962  0.00  0.00    +0.000 A 
ATOM      9  C   UNL     1       1.065   9.805  19.313  0.00  0.00    +0.000 A 
ATOM     10  C   UNL     1       0.450   9.939  20.563  0.00  0.00    +0.000 A 
ATOM     11  C   UNL     1       0.489   8.851  21.436  0.00  0.00    +0.000 A 
ATOM     12  C   UNL     1       1.134   7.668  21.081  0.00  0.00    +0.000 A 
BRANCH  10  13
ATOM     13  C   UNL     1      -0.313  11.111  20.996  0.00  0.00    +0.000 A 
ATOM     14  N   UNL     1      -0.084  11.758  22.125  0.00  0.00    +0.000 NA
ATOM     15  C   UNL     1      -1.049  12.715  22.227  0.00  0.00    +0.000 A 
ATOM     16  C   UNL     1      -1.291  13.609  23.273  0.00  0.00    +0.000 A 
ATOM     17  C   UNL     1      -2.389  14.455  23.157  0.00  0.00    +0.000 A 
ATOM     18  F   UNL     1      -2.674  15.294  24.163  0.00  0.00    +0.000 F 
ATOM     19  C   UNL     1      -3.208  14.445  22.028  0.00  0.00    +0.000 A 
ATOM     20  C   UNL     1      -2.955  13.577  20.956  0.00  0.00    +0.000 A 
ATOM     21  C   UNL     1      -1.867  12.712  21.103  0.00  0.00    +0.000 A 
ATOM     22  N   UNL     1      -1.342  11.718  20.308  0.00  0.00    +0.000 N 
ATOM     23  H   UNL     1      -1.665  11.461  19.389  0.00  0.00    +0.000 HD
ENDBRANCH  10  13
ENDBRANCH   5   7
BRANCH   1  26
ATOM     24  C   UNL     1       5.557   5.341  16.405  0.00  0.00    +0.000 C 
ATOM     25  O   UNL     1       6.066   6.288  16.997  0.00  0.00    +0.000 OA
ATOM     26  N   UNL     1       4.524   4.541  16.887  0.00  0.00    +0.000 N 
ATOM     27  H   UNL     1       4.323   3.700  16.357  0.00  0.00    +0.000 HD
BRANCH  24  32
ATOM     28  C   UNL     1       7.498   3.787  11.308  0.00  0.00    +0.000 C 
ATOM     29  C   UNL     1       7.009   4.226  12.651  0.00  0.00    +0.000 A 
ATOM     30  C   UNL     1       7.733   5.103  13.463  0.00  0.00    +0.000 A 
ATOM     31  N   UNL     1       7.309   5.519  14.690  0.00  0.00    +0.000 NA
ATOM     32  C   UNL     1       6.112   4.996  15.071  0.00  0.00    +0.000 A 
ATOM     33  C   UNL     1       5.385   4.125  14.266  0.00  0.00    +0.000 A 
ATOM     34  N   UNL     1       5.814   3.728  13.045  0.00  0.00    +0.000 NA
ENDBRANCH  24  32
ENDBRANCH   1  26
TORSDOF 4
ENDMDL
