MODEL 1
REMARK VINA RESULT:      -8.0      0.000      0.000
REMARK  Name = 
REMARK  9 active torsions:
REMARK  status: ('A' for Active; 'I' for Inactive)
REMARK    1  A    between atoms: C_1  and  O_2
REMARK    2  A    between atoms: O_2  and  C_3
REMARK    3  A    between atoms: C_6  and  C_7
REMARK    4  A    between atoms: C_7  and  N_8
REMARK    5  A    between atoms: C_9  and  C_11
REMARK    6  A    between atoms: C_11  and  C_13
REMARK    7  A    between atoms: N_15  and  C_16
REMARK    8  A    between atoms: C_24  and  O_25
REMARK    9  A    between atoms: O_25  and  C_26
REMARK                            x       y       z     vdW  Elec       q    Type
REMARK                         _______ _______ _______ _____ _____    ______ ____
ROOT
ATOM      1  N   UNL     1       7.683   7.893  18.031  0.00  0.00    +0.000 N 
ATOM      2  C   UNL     1       7.369   6.724  17.309  0.00  0.00    +0.000 C 
ATOM      3  O   UNL     1       7.706   6.504  16.163  0.00  0.00    +0.000 OA
ATOM      4  H   UNL     1       7.203   7.977  18.925  0.00  0.00    +0.000 HD
ENDROOT
BRANCH   2   5
ATOM      5  C   UNL     1       6.500   5.706  18.094  0.00  0.00    +0.000 C 
ATOM      6  O   UNL     1       7.182   4.930  18.780  0.00  0.00    +0.000 OA
BRANCH   5   7
ATOM      7  C   UNL     1       5.031   5.493  18.003  0.00  0.00    +0.000 A 
ATOM      8  C   UNL     1       4.234   6.558  17.573  0.00  0.00    +0.000 A 
ATOM      9  N   UNL     1       2.993   6.318  18.088  0.00  0.00    +0.000 N 
ATOM     10  C   UNL     1       2.354   7.174  19.069  0.00  0.00    +0.000 C 
ATOM     11  C   UNL     1       2.783   4.962  18.042  0.00  0.00    +0.000 A 
ATOM     12  C   UNL     1       1.581   4.247  18.015  0.00  0.00    +0.000 A 
ATOM     13  C   UNL     1       1.656   2.866  18.113  0.00  0.00    +0.000 A 
ATOM     14  C   UNL     1       2.895   2.257  18.311  0.00  0.00    +0.000 A 
ATOM     15  C   UNL     1       4.102   3.007  18.363  0.00  0.00    +0.000 A 
ATOM     16  C   UNL     1       4.071   4.400  18.162  0.00  0.00    +0.000 A 
ENDBRANCH   5   7
ENDBRANCH   2   5
BRANCH   1  17
ATOM     17  C   UNL     1       8.153   9.131  17.402  0.00  0.00    +0.000 C 
BRANCH  17  21
ATOM     18  C   UNL     1       9.995  12.319  19.785  0.00  0.00    +0.000 A 
ATOM     19  C   UNL     1       9.956  10.993  20.250  0.00  0.00    +0.000 A 
ATOM     20  C   UNL     1       9.326   9.967  19.523  0.00  0.00    +0.000 A 
ATOM     21  C   UNL     1       8.677  10.234  18.321  0.00  0.00    +0.000 A 
ATOM     22  C   UNL     1       8.656  11.589  17.901  0.00  0.00    +0.000 A 
ATOM     23  C   UNL     1       9.295  12.636  18.614  0.00  0.00    +0.000 A 
BRANCH  18  25
ATOM     24  C   UNL     1       9.945  13.978  21.482  0.00  0.00    +0.000 C 
ATOM     25  O   UNL     1      10.678  13.296  20.463  0.00  0.00    +0.000 OA
ENDBRANCH  18  25
BRANCH  23  26
ATOM     26  O   UNL     1       9.166  13.859  17.998  0.00  0.00    +0.000 OA
ATOM     27  C   UNL     1       7.890  14.489  17.952  0.00  0.00    +0.000 C 
ENDBRANCH  23  26
ENDBRANCH  17  21
ENDBRANCH   1  17
TORSDOF 6
ENDMDL
MODEL 2
REMARK VINA RESULT:      -7.8      5.636      8.802
REMARK  Name = 
REMARK  9 active torsions:
REMARK  status: ('A' for Active; 'I' for Inactive)
REMARK    1  A    between atoms: C_1  and  O_2
REMARK    2  A    between atoms: O_2  and  C_3
REMARK    3  A    between atoms: C_6  and  C_7
REMARK    4  A    between atoms: C_7  and  N_8
REMARK    5  A    between atoms: C_9  and  C_11
REMARK    6  A    between atoms: C_11  and  C_13
REMARK    7  A    between atoms: N_15  and  C_16
REMARK    8  A    between atoms: C_24  and  O_25
REMARK    9  A    between atoms: O_25  and  C_26
REMARK                            x       y       z     vdW  Elec       q    Type
REMARK                         _______ _______ _______ _____ _____    ______ ____
ROOT
ATOM      1  N   UNL     1       1.163   9.731  19.257  0.00  0.00    +0.000 N 
ATOM      2  C   UNL     1       1.891   8.775  18.521  0.00  0.00    +0.000 C 
ATOM      3  O   UNL     1       2.287   8.929  17.383  0.00  0.00    +0.000 OA
ATOM      4  H   UNL     1       0.786   9.387  20.139  0.00  0.00    +0.000 HD
ENDROOT
BRANCH   2   5
ATOM      5  C   UNL     1       2.136   7.443  19.277  0.00  0.00    +0.000 C 
ATOM      6  O   UNL     1       1.806   7.507  20.470  0.00  0.00    +0.000 OA
BRANCH   5   7
ATOM      7  C   UNL     1       2.816   6.218  18.778  0.00  0.00    +0.000 A 
ATOM      8  C   UNL     1       4.196   6.270  18.558  0.00  0.00    +0.000 A 
ATOM      9  N   UNL     1       4.457   5.301  17.634  0.00  0.00    +0.000 N 
ATOM     10  C   UNL     1       4.958   5.578  16.301  0.00  0.00    +0.000 C 
ATOM     11  C   UNL     1       3.629   4.239  17.906  0.00  0.00    +0.000 A 
ATOM     12  C   UNL     1       3.780   2.886  17.583  0.00  0.00    +0.000 A 
ATOM     13  C   UNL     1       2.716   2.041  17.858  0.00  0.00    +0.000 A 
ATOM     14  C   UNL     1       1.528   2.572  18.362  0.00  0.00    +0.000 A 
ATOM     15  C   UNL     1       1.388   3.955  18.656  0.00  0.00    +0.000 A 
ATOM     16  C   UNL     1       2.484   4.823  18.486  0.00  0.00    +0.000 A 
ENDBRANCH   5   7
ENDBRANCH   2   5
BRANCH   1  17
ATOM     17  C   UNL     1       0.494  10.886  18.648  0.00  0.00    +0.000 C 
BRANCH  17  21
ATOM     18  C   UNL     1      -3.800  10.926  17.757  0.00  0.00    +0.000 A 
ATOM     19  C   UNL     1      -3.293  11.529  18.921  0.00  0.00    +0.000 A 
ATOM     20  C   UNL     1      -1.925  11.483  19.249  0.00  0.00    +0.000 A 
ATOM     21  C   UNL     1      -1.018  10.799  18.445  0.00  0.00    +0.000 A 
ATOM     22  C   UNL     1      -1.553  10.129  17.315  0.00  0.00    +0.000 A 
ATOM     23  C   UNL     1      -2.927  10.173  16.962  0.00  0.00    +0.000 A 
BRANCH  18  25
ATOM     24  C   UNL     1      -5.555  12.349  17.031  0.00  0.00    +0.000 C 
ATOM     25  O   UNL     1      -5.120  11.042  17.407  0.00  0.00    +0.000 OA
ENDBRANCH  18  25
BRANCH  23  26
ATOM     26  O   UNL     1      -3.205   9.474  15.810  0.00  0.00    +0.000 OA
ATOM     27  C   UNL     1      -3.195  10.153  14.559  0.00  0.00    +0.000 C 
ENDBRANCH  23  26
ENDBRANCH  17  21
ENDBRANCH   1  17
TORSDOF 6
ENDMDL
MODEL 3
REMARK VINA RESULT:      -7.7      1.112      1.678
REMARK  Name = 
REMARK  9 active torsions:
REMARK  status: ('A' for Active; 'I' for Inactive)
REMARK    1  A    between atoms: C_1  and  O_2
REMARK    2  A    between atoms: O_2  and  C_3
REMARK    3  A    between atoms: C_6  and  C_7
REMARK    4  A    between atoms: C_7  and  N_8
REMARK    5  A    between atoms: C_9  and  C_11
REMARK    6  A    between atoms: C_11  and  C_13
REMARK    7  A    between atoms: N_15  and  C_16
REMARK    8  A    between atoms: C_24  and  O_25
REMARK    9  A    between atoms: O_25  and  C_26
REMARK                            x       y       z     vdW  Elec       q    Type
REMARK                         _______ _______ _______ _____ _____    ______ ____
ROOT
ATOM      1  N   UNL     1       7.836   8.016  18.160  0.00  0.00    +0.000 N 
ATOM      2  C   UNL     1       7.434   6.874  17.437  0.00  0.00    +0.000 C 
ATOM      3  O   UNL     1       7.718   6.650  16.278  0.00  0.00    +0.000 OA
ATOM      4  H   UNL     1       7.393   8.115  19.071  0.00  0.00    +0.000 HD
ENDROOT
BRANCH   2   5
ATOM      5  C   UNL     1       6.540   5.894  18.243  0.00  0.00    +0.000 C 
ATOM      6  O   UNL     1       7.196   5.181  19.017  0.00  0.00    +0.000 OA
BRANCH   5   7
ATOM      7  C   UNL     1       5.082   5.645  18.086  0.00  0.00    +0.000 A 
ATOM      8  C   UNL     1       4.283   6.682  17.594  0.00  0.00    +0.000 A 
ATOM      9  N   UNL     1       3.025   6.424  18.055  0.00  0.00    +0.000 N 
ATOM     10  C   UNL     1       2.320   7.286  18.984  0.00  0.00    +0.000 C 
ATOM     11  C   UNL     1       2.848   5.063  18.030  0.00  0.00    +0.000 A 
ATOM     12  C   UNL     1       1.664   4.320  17.962  0.00  0.00    +0.000 A 
ATOM     13  C   UNL     1       1.765   2.943  18.095  0.00  0.00    +0.000 A 
ATOM     14  C   UNL     1       3.007   2.368  18.366  0.00  0.00    +0.000 A 
ATOM     15  C   UNL     1       4.192   3.146  18.458  0.00  0.00    +0.000 A 
ATOM     16  C   UNL     1       4.140   4.534  18.225  0.00  0.00    +0.000 A 
ENDBRANCH   5   7
ENDBRANCH   2   5
BRANCH   1  17
ATOM     17  C   UNL     1       8.349   9.235  17.527  0.00  0.00    +0.000 C 
BRANCH  17  21
ATOM     18  C   UNL     1      10.325  12.226  20.053  0.00  0.00    +0.000 A 
ATOM     19  C   UNL     1      10.615  12.126  18.681  0.00  0.00    +0.000 A 
ATOM     20  C   UNL     1      10.029  11.142  17.866  0.00  0.00    +0.000 A 
ATOM     21  C   UNL     1       9.160  10.194  18.398  0.00  0.00    +0.000 A 
ATOM     22  C   UNL     1       8.936  10.256  19.797  0.00  0.00    +0.000 A 
ATOM     23  C   UNL     1       9.508  11.249  20.635  0.00  0.00    +0.000 A 
BRANCH  18  25
ATOM     24  C   UNL     1      10.561  14.565  20.380  0.00  0.00    +0.000 C 
ATOM     25  O   UNL     1      10.841  13.236  20.823  0.00  0.00    +0.000 OA
ENDBRANCH  18  25
BRANCH  23  26
ATOM     26  O   UNL     1       9.122  11.126  21.949  0.00  0.00    +0.000 OA
ATOM     27  C   UNL     1       8.074  11.948  22.451  0.00  0.00    +0.000 C 
ENDBRANCH  23  26
ENDBRANCH  17  21
ENDBRANCH   1  17
TORSDOF 6
ENDMDL
MODEL 4
REMARK VINA RESULT:      -7.7      3.865      7.369
REMARK  Name = 
REMARK  9 active torsions:
REMARK  status: ('A' for Active; 'I' for Inactive)
REMARK    1  A    between atoms: C_1  and  O_2
REMARK    2  A    between atoms: O_2  and  C_3
REMARK    3  A    between atoms: C_6  and  C_7
REMARK    4  A    between atoms: C_7  and  N_8
REMARK    5  A    between atoms: C_9  and  C_11
REMARK    6  A    between atoms: C_11  and  C_13
REMARK    7  A    between atoms: N_15  and  C_16
REMARK    8  A    between atoms: C_24  and  O_25
REMARK    9  A    between atoms: O_25  and  C_26
REMARK                            x       y       z     vdW  Elec       q    Type
REMARK                         _______ _______ _______ _____ _____    ______ ____
ROOT
ATOM      1  N   UNL     1       3.349   6.787  19.435  0.00  0.00    +0.000 N 
ATOM      2  C   UNL     1       2.306   7.009  18.513  0.00  0.00    +0.000 C 
ATOM      3  O   UNL     1       1.711   6.136  17.914  0.00  0.00    +0.000 OA
ATOM      4  H   UNL     1       3.831   7.631  19.737  0.00  0.00    +0.000 HD
ENDROOT
BRANCH   2   5
ATOM      5  C   UNL     1       1.973   8.506  18.278  0.00  0.00    +0.000 C 
ATOM      6  O   UNL     1       2.469   8.943  17.229  0.00  0.00    +0.000 OA
BRANCH   5   7
ATOM      7  C   UNL     1       1.280   9.446  19.199  0.00  0.00    +0.000 A 
ATOM      8  C   UNL     1       0.896  10.696  18.703  0.00  0.00    +0.000 A 
ATOM      9  N   UNL     1       0.818  11.514  19.793  0.00  0.00    +0.000 N 
ATOM     10  C   UNL     1       1.682  12.661  19.997  0.00  0.00    +0.000 C 
ATOM     11  C   UNL     1       0.321  10.768  20.833  0.00  0.00    +0.000 A 
ATOM     12  C   UNL     1      -0.354  11.185  21.986  0.00  0.00    +0.000 A 
ATOM     13  C   UNL     1      -0.623  10.226  22.951  0.00  0.00    +0.000 A 
ATOM     14  C   UNL     1      -0.151   8.925  22.778  0.00  0.00    +0.000 A 
ATOM     15  C   UNL     1       0.557   8.531  21.610  0.00  0.00    +0.000 A 
ATOM     16  C   UNL     1       0.756   9.454  20.566  0.00  0.00    +0.000 A 
ENDBRANCH   5   7
ENDBRANCH   2   5
BRANCH   1  17
ATOM     17  C   UNL     1       4.082   5.521  19.539  0.00  0.00    +0.000 C 
BRANCH  17  21
ATOM     18  C   UNL     1       6.668   4.807  16.070  0.00  0.00    +0.000 A 
ATOM     19  C   UNL     1       5.744   3.839  16.500  0.00  0.00    +0.000 A 
ATOM     20  C   UNL     1       4.941   4.030  17.639  0.00  0.00    +0.000 A 
ATOM     21  C   UNL     1       5.060   5.179  18.416  0.00  0.00    +0.000 A 
ATOM     22  C   UNL     1       6.051   6.112  18.017  0.00  0.00    +0.000 A 
ATOM     23  C   UNL     1       6.861   5.944  16.864  0.00  0.00    +0.000 A 
BRANCH  18  25
ATOM     24  C   UNL     1       6.649   4.226  13.769  0.00  0.00    +0.000 C 
ATOM     25  O   UNL     1       7.390   4.646  14.915  0.00  0.00    +0.000 OA
ENDBRANCH  18  25
BRANCH  23  26
ATOM     26  O   UNL     1       7.727   6.994  16.662  0.00  0.00    +0.000 OA
ATOM     27  C   UNL     1       7.770   8.058  17.607  0.00  0.00    +0.000 C 
ENDBRANCH  23  26
ENDBRANCH  17  21
ENDBRANCH   1  17
TORSDOF 6
ENDMDL
MODEL 5
REMARK VINA RESULT:      -7.7      4.649      7.098
REMARK  Name = 
REMARK  9 active torsions:
REMARK  status: ('A' for Active; 'I' for Inactive)
REMARK    1  A    between atoms: C_1  and  O_2
REMARK    2  A    between atoms: O_2  and  C_3
REMARK    3  A    between atoms: C_6  and  C_7
REMARK    4  A    between atoms: C_7  and  N_8
REMARK    5  A    between atoms: C_9  and  C_11
REMARK    6  A    between atoms: C_11  and  C_13
REMARK    7  A    between atoms: N_15  and  C_16
REMARK    8  A    between atoms: C_24  and  O_25
REMARK    9  A    between atoms: O_25  and  C_26
REMARK                            x       y       z     vdW  Elec       q    Type
REMARK                         _______ _______ _______ _____ _____    ______ ____
ROOT
ATOM      1  N   UNL     1       3.221   5.804  19.905  0.00  0.00    +0.000 N 
ATOM      2  C   UNL     1       3.177   4.549  19.266  0.00  0.00    +0.000 C 
ATOM      3  O   UNL     1       2.159   3.953  18.976  0.00  0.00    +0.000 OA
ATOM      4  H   UNL     1       4.152   6.092  20.203  0.00  0.00    +0.000 HD
ENDROOT
BRANCH   2   5
ATOM      5  C   UNL     1       4.571   3.935  18.972  0.00  0.00    +0.000 C 
ATOM      6  O   UNL     1       4.872   3.037  19.773  0.00  0.00    +0.000 OA
BRANCH   5   7
ATOM      7  C   UNL     1       5.579   4.384  17.974  0.00  0.00    +0.000 A 
ATOM      8  C   UNL     1       6.800   4.878  18.444  0.00  0.00    +0.000 A 
ATOM      9  N   UNL     1       7.270   5.692  17.455  0.00  0.00    +0.000 N 
ATOM     10  C   UNL     1       7.451   7.122  17.613  0.00  0.00    +0.000 C 
ATOM     11  C   UNL     1       6.934   5.117  16.254  0.00  0.00    +0.000 A 
ATOM     12  C   UNL     1       7.525   5.274  14.995  0.00  0.00    +0.000 A 
ATOM     13  C   UNL     1       6.892   4.680  13.913  0.00  0.00    +0.000 A 
ATOM     14  C   UNL     1       5.672   4.030  14.103  0.00  0.00    +0.000 A 
ATOM     15  C   UNL     1       5.076   3.908  15.387  0.00  0.00    +0.000 A 
ATOM     16  C   UNL     1       5.744   4.409  16.521  0.00  0.00    +0.000 A 
ENDBRANCH   5   7
ENDBRANCH   2   5
BRANCH   1  17
ATOM     17  C   UNL     1       2.079   6.396  20.609  0.00  0.00    +0.000 C 
BRANCH  17  21
ATOM     18  C   UNL     1       0.732  10.487  19.789  0.00  0.00    +0.000 A 
ATOM     19  C   UNL     1       1.301   9.693  18.778  0.00  0.00    +0.000 A 
ATOM     20  C   UNL     1       1.784   8.396  19.034  0.00  0.00    +0.000 A 
ATOM     21  C   UNL     1       1.752   7.860  20.318  0.00  0.00    +0.000 A 
ATOM     22  C   UNL     1       1.248   8.700  21.343  0.00  0.00    +0.000 A 
ATOM     23  C   UNL     1       0.745  10.006  21.103  0.00  0.00    +0.000 A 
BRANCH  18  25
ATOM     24  C   UNL     1      -1.176  11.726  19.110  0.00  0.00    +0.000 C 
ATOM     25  O   UNL     1       0.194  11.718  19.514  0.00  0.00    +0.000 OA
ENDBRANCH  18  25
BRANCH  23  26
ATOM     26  O   UNL     1       0.282  10.617  22.245  0.00  0.00    +0.000 OA
ATOM     27  C   UNL     1      -0.516   9.876  23.161  0.00  0.00    +0.000 C 
ENDBRANCH  23  26
ENDBRANCH  17  21
ENDBRANCH   1  17
TORSDOF 6
ENDMDL
MODEL 6
REMARK VINA RESULT:      -7.5      5.880      9.053
REMARK  Name = 
REMARK  9 active torsions:
REMARK  status: ('A' for Active; 'I' for Inactive)
REMARK    1  A    between atoms: C_1  and  O_2
REMARK    2  A    between atoms: O_2  and  C_3
REMARK    3  A    between atoms: C_6  and  C_7
REMARK    4  A    between atoms: C_7  and  N_8
REMARK    5  A    between atoms: C_9  and  C_11
REMARK    6  A    between atoms: C_11  and  C_13
REMARK    7  A    between atoms: N_15  and  C_16
REMARK    8  A    between atoms: C_24  and  O_25
REMARK    9  A    between atoms: O_25  and  C_26
REMARK                            x       y       z     vdW  Elec       q    Type
REMARK                         _______ _______ _______ _____ _____    ______ ____
ROOT
ATOM      1  N   UNL     1       0.790   9.488  18.679  0.00  0.00    +0.000 N 
ATOM      2  C   UNL     1       1.517   8.572  19.466  0.00  0.00    +0.000 C 
ATOM      3  O   UNL     1       1.393   8.436  20.666  0.00  0.00    +0.000 OA
ATOM      4  H   UNL     1       1.118   9.573  17.719  0.00  0.00    +0.000 HD
ENDROOT
BRANCH   2   5
ATOM      5  C   UNL     1       2.554   7.735  18.670  0.00  0.00    +0.000 C 
ATOM      6  O   UNL     1       2.987   8.336  17.676  0.00  0.00    +0.000 OA
BRANCH   5   7
ATOM      7  C   UNL     1       2.950   6.318  18.891  0.00  0.00    +0.000 A 
ATOM      8  C   UNL     1       4.190   5.894  18.402  0.00  0.00    +0.000 A 
ATOM      9  N   UNL     1       4.074   4.546  18.230  0.00  0.00    +0.000 N 
ATOM     10  C   UNL     1       4.147   3.894  16.936  0.00  0.00    +0.000 C 
ATOM     11  C   UNL     1       3.300   4.065  19.257  0.00  0.00    +0.000 A 
ATOM     12  C   UNL     1       3.242   2.776  19.801  0.00  0.00    +0.000 A 
ATOM     13  C   UNL     1       2.261   2.526  20.748  0.00  0.00    +0.000 A 
ATOM     14  C   UNL     1       1.335   3.522  21.059  0.00  0.00    +0.000 A 
ATOM     15  C   UNL     1       1.396   4.816  20.472  0.00  0.00    +0.000 A 
ATOM     16  C   UNL     1       2.442   5.135  19.585  0.00  0.00    +0.000 A 
ENDBRANCH   5   7
ENDBRANCH   2   5
BRANCH   1  17
ATOM     17  C   UNL     1       0.048  10.623  19.237  0.00  0.00    +0.000 C 
BRANCH  17  21
ATOM     18  C   UNL     1      -3.923  11.430  17.561  0.00  0.00    +0.000 A 
ATOM     19  C   UNL     1      -3.485  12.071  18.733  0.00  0.00    +0.000 A 
ATOM     20  C   UNL     1      -2.235  11.788  19.313  0.00  0.00    +0.000 A 
ATOM     21  C   UNL     1      -1.392  10.825  18.765  0.00  0.00    +0.000 A 
ATOM     22  C   UNL     1      -1.879  10.130  17.629  0.00  0.00    +0.000 A 
ATOM     23  C   UNL     1      -3.131  10.409  17.022  0.00  0.00    +0.000 A 
BRANCH  18  25
ATOM     24  C   UNL     1      -6.130  12.264  17.829  0.00  0.00    +0.000 C 
ATOM     25  O   UNL     1      -5.109  11.768  16.961  0.00  0.00    +0.000 OA
ENDBRANCH  18  25
BRANCH  23  26
ATOM     26  O   UNL     1      -3.373   9.630  15.915  0.00  0.00    +0.000 OA
ATOM     27  C   UNL     1      -3.436  10.239  14.630  0.00  0.00    +0.000 C 
ENDBRANCH  23  26
ENDBRANCH  17  21
ENDBRANCH   1  17
TORSDOF 6
ENDMDL
MODEL 7
REMARK VINA RESULT:      -7.5      0.981      2.037
REMARK  Name = 
REMARK  9 active torsions:
REMARK  status: ('A' for Active; 'I' for Inactive)
REMARK    1  A    between atoms: C_1  and  O_2
REMARK    2  A    between atoms: O_2  and  C_3
REMARK    3  A    between atoms: C_6  and  C_7
REMARK    4  A    between atoms: C_7  and  N_8
REMARK    5  A    between atoms: C_9  and  C_11
REMARK    6  A    between atoms: C_11  and  C_13
REMARK    7  A    between atoms: N_15  and  C_16
REMARK    8  A    between atoms: C_24  and  O_25
REMARK    9  A    between atoms: O_25  and  C_26
REMARK                            x       y       z     vdW  Elec       q    Type
REMARK                         _______ _______ _______ _____ _____    ______ ____
ROOT
ATOM      1  N   UNL     1       8.100   8.072  18.250  0.00  0.00    +0.000 N 
ATOM      2  C   UNL     1       7.700   6.917  17.548  0.00  0.00    +0.000 C 
ATOM      3  O   UNL     1       7.777   6.775  16.345  0.00  0.00    +0.000 OA
ATOM      4  H   UNL     1       7.834   8.080  19.234  0.00  0.00    +0.000 HD
ENDROOT
BRANCH   2   5
ATOM      5  C   UNL     1       7.100   5.803  18.447  0.00  0.00    +0.000 C 
ATOM      6  O   UNL     1       7.973   5.140  19.027  0.00  0.00    +0.000 OA
BRANCH   5   7
ATOM      7  C   UNL     1       5.677   5.388  18.563  0.00  0.00    +0.000 A 
ATOM      8  C   UNL     1       5.392   4.167  19.182  0.00  0.00    +0.000 A 
ATOM      9  N   UNL     1       4.182   3.779  18.687  0.00  0.00    +0.000 N 
ATOM     10  C   UNL     1       3.992   2.592  17.874  0.00  0.00    +0.000 C 
ATOM     11  C   UNL     1       3.417   4.909  18.534  0.00  0.00    +0.000 A 
ATOM     12  C   UNL     1       2.025   5.045  18.499  0.00  0.00    +0.000 A 
ATOM     13  C   UNL     1       1.512   6.296  18.189  0.00  0.00    +0.000 A 
ATOM     14  C   UNL     1       2.384   7.332  17.851  0.00  0.00    +0.000 A 
ATOM     15  C   UNL     1       3.795   7.162  17.866  0.00  0.00    +0.000 A 
ATOM     16  C   UNL     1       4.350   5.935  18.278  0.00  0.00    +0.000 A 
ENDBRANCH   5   7
ENDBRANCH   2   5
BRANCH   1  17
ATOM     17  C   UNL     1       8.335   9.369  17.608  0.00  0.00    +0.000 C 
BRANCH  17  21
ATOM     18  C   UNL     1      10.261  12.588  19.880  0.00  0.00    +0.000 A 
ATOM     19  C   UNL     1      10.082  11.310  20.438  0.00  0.00    +0.000 A 
ATOM     20  C   UNL     1       9.423  10.280  19.744  0.00  0.00    +0.000 A 
ATOM     21  C   UNL     1       8.882  10.499  18.480  0.00  0.00    +0.000 A 
ATOM     22  C   UNL     1       9.000  11.814  17.961  0.00  0.00    +0.000 A 
ATOM     23  C   UNL     1       9.672  12.863  18.640  0.00  0.00    +0.000 A 
BRANCH  18  25
ATOM     24  C   UNL     1      10.230  14.372  21.445  0.00  0.00    +0.000 C 
ATOM     25  O   UNL     1      10.972  13.561  20.533  0.00  0.00    +0.000 OA
ENDBRANCH  18  25
BRANCH  23  26
ATOM     26  O   UNL     1       9.685  14.039  17.927  0.00  0.00    +0.000 OA
ATOM     27  C   UNL     1       8.633  14.980  18.109  0.00  0.00    +0.000 C 
ENDBRANCH  23  26
ENDBRANCH  17  21
ENDBRANCH   1  17
TORSDOF 6
ENDMDL
MODEL 8
REMARK VINA RESULT:      -7.4      6.066      8.732
REMARK  Name = 
REMARK  9 active torsions:
REMARK  status: ('A' for Active; 'I' for Inactive)
REMARK    1  A    between atoms: C_1  and  O_2
REMARK    2  A    between atoms: O_2  and  C_3
REMARK    3  A    between atoms: C_6  and  C_7
REMARK    4  A    between atoms: C_7  and  N_8
REMARK    5  A    between atoms: C_9  and  C_11
REMARK    6  A    between atoms: C_11  and  C_13
REMARK    7  A    between atoms: N_15  and  C_16
REMARK    8  A    between atoms: C_24  and  O_25
REMARK    9  A    between atoms: O_25  and  C_26
REMARK                            x       y       z     vdW  Elec       q    Type
REMARK                         _______ _______ _______ _____ _____    ______ ____
ROOT
ATOM      1  N   UNL     1       1.258   9.324  19.528  0.00  0.00    +0.000 N 
ATOM      2  C   UNL     1       1.916   8.158  19.087  0.00  0.00    +0.000 C 
ATOM      3  O   UNL     1       2.456   8.032  18.006  0.00  0.00    +0.000 OA
ATOM      4  H   UNL     1       0.739   9.211  20.397  0.00  0.00    +0.000 HD
ENDROOT
BRANCH   2   5
ATOM      5  C   UNL     1       1.876   6.984  20.101  0.00  0.00    +0.000 C 
ATOM      6  O   UNL     1       1.827   7.374  21.277  0.00  0.00    +0.000 OA
BRANCH   5   7
ATOM      7  C   UNL     1       2.024   5.530  19.824  0.00  0.00    +0.000 A 
ATOM      8  C   UNL     1       1.189   4.639  20.506  0.00  0.00    +0.000 A 
ATOM      9  N   UNL     1       1.855   3.448  20.517  0.00  0.00    +0.000 N 
ATOM     10  C   UNL     1       2.331   2.807  21.728  0.00  0.00    +0.000 C 
ATOM     11  C   UNL     1       2.506   3.329  19.314  0.00  0.00    +0.000 A 
ATOM     12  C   UNL     1       2.938   2.179  18.644  0.00  0.00    +0.000 A 
ATOM     13  C   UNL     1       3.702   2.354  17.500  0.00  0.00    +0.000 A 
ATOM     14  C   UNL     1       4.073   3.641  17.112  0.00  0.00    +0.000 A 
ATOM     15  C   UNL     1       3.646   4.794  17.824  0.00  0.00    +0.000 A 
ATOM     16  C   UNL     1       2.784   4.657  18.929  0.00  0.00    +0.000 A 
ENDBRANCH   5   7
ENDBRANCH   2   5
BRANCH   1  17
ATOM     17  C   UNL     1       0.840  10.406  18.632  0.00  0.00    +0.000 C 
BRANCH  17  21
ATOM     18  C   UNL     1      -3.369  11.314  17.796  0.00  0.00    +0.000 A 
ATOM     19  C   UNL     1      -2.710  11.875  18.904  0.00  0.00    +0.000 A 
ATOM     20  C   UNL     1      -1.375  11.557  19.216  0.00  0.00    +0.000 A 
ATOM     21  C   UNL     1      -0.661  10.635  18.456  0.00  0.00    +0.000 A 
ATOM     22  C   UNL     1      -1.361  10.018  17.388  0.00  0.00    +0.000 A 
ATOM     23  C   UNL     1      -2.703  10.334  17.050  0.00  0.00    +0.000 A 
BRANCH  18  25
ATOM     24  C   UNL     1      -5.698  11.009  18.139  0.00  0.00    +0.000 C 
ATOM     25  O   UNL     1      -4.643  11.688  17.456  0.00  0.00    +0.000 OA
ENDBRANCH  18  25
BRANCH  23  26
ATOM     26  O   UNL     1      -3.158   9.631  15.959  0.00  0.00    +0.000 OA
ATOM     27  C   UNL     1      -3.199  10.264  14.685  0.00  0.00    +0.000 C 
ENDBRANCH  23  26
ENDBRANCH  17  21
ENDBRANCH   1  17
TORSDOF 6
ENDMDL
MODEL 9
REMARK VINA RESULT:      -7.4      0.999      1.268
REMARK  Name = 
REMARK  9 active torsions:
REMARK  status: ('A' for Active; 'I' for Inactive)
REMARK    1  A    between atoms: C_1  and  O_2
REMARK    2  A    between atoms: O_2  and  C_3
REMARK    3  A    between atoms: C_6  and  C_7
REMARK    4  A    between atoms: C_7  and  N_8
REMARK    5  A    between atoms: C_9  and  C_11
REMARK    6  A    between atoms: C_11  and  C_13
REMARK    7  A    between atoms: N_15  and  C_16
REMARK    8  A    between atoms: C_24  and  O_25
REMARK    9  A    between atoms: O_25  and  C_26
REMARK                            x       y       z     vdW  Elec       q    Type
REMARK                         _______ _______ _______ _____ _____    ______ ____
ROOT
ATOM      1  N   UNL     1       7.115   8.095  17.473  0.00  0.00    +0.000 N 
ATOM      2  C   UNL     1       6.761   6.740  17.317  0.00  0.00    +0.000 C 
ATOM      3  O   UNL     1       7.456   5.799  17.643  0.00  0.00    +0.000 OA
ATOM      4  H   UNL     1       6.482   8.751  17.018  0.00  0.00    +0.000 HD
ENDROOT
BRANCH   2   5
ATOM      5  C   UNL     1       5.380   6.517  16.645  0.00  0.00    +0.000 C 
ATOM      6  O   UNL     1       5.343   6.949  15.483  0.00  0.00    +0.000 OA
BRANCH   5   7
ATOM      7  C   UNL     1       4.133   5.995  17.265  0.00  0.00    +0.000 A 
ATOM      8  C   UNL     1       3.139   6.911  17.623  0.00  0.00    +0.000 A 
ATOM      9  N   UNL     1       2.420   6.303  18.610  0.00  0.00    +0.000 N 
ATOM     10  C   UNL     1       2.357   6.794  19.973  0.00  0.00    +0.000 C 
ATOM     11  C   UNL     1       2.343   4.967  18.301  0.00  0.00    +0.000 A 
ATOM     12  C   UNL     1       1.398   4.014  18.698  0.00  0.00    +0.000 A 
ATOM     13  C   UNL     1       1.640   2.693  18.353  0.00  0.00    +0.000 A 
ATOM     14  C   UNL     1       2.830   2.357  17.707  0.00  0.00    +0.000 A 
ATOM     15  C   UNL     1       3.789   3.340  17.340  0.00  0.00    +0.000 A 
ATOM     16  C   UNL     1       3.527   4.701  17.582  0.00  0.00    +0.000 A 
ENDBRANCH   5   7
ENDBRANCH   2   5
BRANCH   1  17
ATOM     17  C   UNL     1       8.487   8.550  17.723  0.00  0.00    +0.000 C 
BRANCH  17  21
ATOM     18  C   UNL     1       9.330  12.539  19.338  0.00  0.00    +0.000 A 
ATOM     19  C   UNL     1       9.647  11.378  20.065  0.00  0.00    +0.000 A 
ATOM     20  C   UNL     1       9.339  10.092  19.585  0.00  0.00    +0.000 A 
ATOM     21  C   UNL     1       8.667   9.919  18.379  0.00  0.00    +0.000 A 
ATOM     22  C   UNL     1       8.283  11.099  17.693  0.00  0.00    +0.000 A 
ATOM     23  C   UNL     1       8.595  12.405  18.154  0.00  0.00    +0.000 A 
BRANCH  18  25
ATOM     24  C   UNL     1       9.219  14.162  21.066  0.00  0.00    +0.000 C 
ATOM     25  O   UNL     1       9.703  13.783  19.777  0.00  0.00    +0.000 OA
ENDBRANCH  18  25
BRANCH  23  26
ATOM     26  O   UNL     1       8.147  13.392  17.307  0.00  0.00    +0.000 OA
ATOM     27  C   UNL     1       6.993  14.146  17.658  0.00  0.00    +0.000 C 
ENDBRANCH  23  26
ENDBRANCH  17  21
ENDBRANCH   1  17
TORSDOF 6
ENDMDL
