MODEL 1
REMARK VINA RESULT:      -7.2      0.000      0.000
REMARK  Name = 
REMARK  7 active torsions:
REMARK  status: ('A' for Active; 'I' for Inactive)
REMARK    1  A    between atoms: C_1  and  C_2
REMARK    2  A    between atoms: C_4  and  C_5
REMARK    3  A    between atoms: C_5  and  C_6
REMARK    4  A    between atoms: N_8  and  O_9
REMARK    5  A    between atoms: O_9  and  C_10
REMARK    6  A    between atoms: C_10  and  C_11
REMARK    7  A    between atoms: C_14  and  C_15
REMARK                            x       y       z     vdW  Elec       q    Type
REMARK                         _______ _______ _______ _____ _____    ______ ____
ROOT
ATOM      1  O   UNL     1       2.534   8.036  18.740  0.00  0.00    +0.000 OA
ENDROOT
BRANCH   1   4
ATOM      2  C   UNL     1       1.027   9.652  18.889  0.00  0.00    +0.000 C 
ATOM      3  N   UNL     1       1.586  10.140  17.731  0.00  0.00    +0.000 N 
ATOM      4  N   UNL     1       1.445   8.559  19.466  0.00  0.00    +0.000 NA
ATOM      5  H   UNL     1       1.482  11.151  17.621  0.00  0.00    +0.000 HD
ATOM      6  H   UNL     1       2.534   9.803  17.597  0.00  0.00    +0.000 HD
BRANCH   2   7
ATOM      7  C   UNL     1      -0.166  10.379  19.510  0.00  0.00    +0.000 C 
BRANCH   7  11
ATOM      8  C   UNL     1      -2.851   9.772  15.360  0.00  0.00    +0.000 C 
ATOM      9  C   UNL     1      -2.478  10.300  16.701  0.00  0.00    +0.000 A 
ATOM     10  N   UNL     1      -1.367   9.992  17.336  0.00  0.00    +0.000 NA
ATOM     11  C   UNL     1      -1.315  10.631  18.574  0.00  0.00    +0.000 A 
ATOM     12  C   UNL     1      -2.416  11.427  18.840  0.00  0.00    +0.000 A 
ATOM     13  S   UNL     1      -3.522  11.380  17.530  0.00  0.00    +0.000 S 
ENDBRANCH   7  11
ENDBRANCH   2   7
ENDBRANCH   1   4
BRANCH   1  14
ATOM     14  C   UNL     1       2.573   6.617  18.873  0.00  0.00    +0.000 C 
BRANCH  14  15
ATOM     15  C   UNL     1       3.521   6.087  17.825  0.00  0.00    +0.000 A 
ATOM     16  C   UNL     1       3.593   4.715  17.549  0.00  0.00    +0.000 A 
ATOM     17  C   UNL     1       4.497   4.223  16.598  0.00  0.00    +0.000 A 
ATOM     18  C   UNL     1       5.342   5.098  15.905  0.00  0.00    +0.000 A 
ATOM     19  C   UNL     1       5.270   6.471  16.180  0.00  0.00    +0.000 A 
ATOM     20  C   UNL     1       4.367   6.960  17.128  0.00  0.00    +0.000 A 
BRANCH  18  21
ATOM     21  C   UNL     1       6.333   4.646  14.885  0.00  0.00    +0.000 C 
ATOM     22  N   UNL     1       7.570   5.230  14.864  0.00  0.00    +0.000 N 
ATOM     23  O   UNL     1       6.063   3.768  14.073  0.00  0.00    +0.000 OA
ATOM     24  H   UNL     1       7.887   5.949  15.492  0.00  0.00    +0.000 HD
ATOM     25  H   UNL     1       8.213   4.897  14.158  0.00  0.00    +0.000 HD
ENDBRANCH  18  21
ENDBRANCH  14  15
ENDBRANCH   1  14
TORSDOF 6
ENDMDL
MODEL 2
REMARK VINA RESULT:      -6.8      7.303      9.821
REMARK  Name = 
REMARK  7 active torsions:
REMARK  status: ('A' for Active; 'I' for Inactive)
REMARK    1  A    between atoms: C_1  and  C_2
REMARK    2  A    between atoms: C_4  and  C_5
REMARK    3  A    between atoms: C_5  and  C_6
REMARK    4  A    between atoms: N_8  and  O_9
REMARK    5  A    between atoms: O_9  and  C_10
REMARK    6  A    between atoms: C_10  and  C_11
REMARK    7  A    between atoms: C_14  and  C_15
REMARK                            x       y       z     vdW  Elec       q    Type
REMARK                         _______ _______ _______ _____ _____    ______ ____
ROOT
ATOM      1  O   UNL     1       8.936   9.576  18.517  0.00  0.00    +0.000 OA
ENDROOT
BRANCH   1   4
ATOM      2  C   UNL     1       8.011   7.588  18.207  0.00  0.00    +0.000 C 
ATOM      3  N   UNL     1       7.465   8.134  17.069  0.00  0.00    +0.000 N 
ATOM      4  N   UNL     1       8.798   8.260  19.001  0.00  0.00    +0.000 NA
ATOM      5  H   UNL     1       6.585   7.695  16.785  0.00  0.00    +0.000 HD
ATOM      6  H   UNL     1       7.426   9.147  17.115  0.00  0.00    +0.000 HD
BRANCH   2   7
ATOM      7  C   UNL     1       7.734   6.123  18.543  0.00  0.00    +0.000 C 
BRANCH   7  11
ATOM      8  C   UNL     1       6.552   4.253  14.081  0.00  0.00    +0.000 C 
ATOM      9  C   UNL     1       6.413   4.567  15.530  0.00  0.00    +0.000 A 
ATOM     10  N   UNL     1       7.271   5.293  16.215  0.00  0.00    +0.000 NA
ATOM     11  C   UNL     1       6.874   5.393  17.548  0.00  0.00    +0.000 A 
ATOM     12  C   UNL     1       5.695   4.726  17.833  0.00  0.00    +0.000 A 
ATOM     13  S   UNL     1       5.076   3.972  16.424  0.00  0.00    +0.000 S 
ENDBRANCH   7  11
ENDBRANCH   2   7
ENDBRANCH   1   4
BRANCH   1  14
ATOM     14  C   UNL     1       9.406  10.432  19.555  0.00  0.00    +0.000 C 
BRANCH  14  15
ATOM     15  C   UNL     1       9.860  11.721  18.915  0.00  0.00    +0.000 A 
ATOM     16  C   UNL     1       8.934  12.612  18.358  0.00  0.00    +0.000 A 
ATOM     17  C   UNL     1       9.361  13.793  17.736  0.00  0.00    +0.000 A 
ATOM     18  C   UNL     1      10.724  14.102  17.663  0.00  0.00    +0.000 A 
ATOM     19  C   UNL     1      11.653  13.211  18.222  0.00  0.00    +0.000 A 
ATOM     20  C   UNL     1      11.224  12.034  18.843  0.00  0.00    +0.000 A 
BRANCH  18  21
ATOM     21  C   UNL     1      11.253  15.336  17.012  0.00  0.00    +0.000 C 
ATOM     22  N   UNL     1      10.506  15.938  16.038  0.00  0.00    +0.000 N 
ATOM     23  O   UNL     1      12.333  15.818  17.332  0.00  0.00    +0.000 OA
ATOM     24  H   UNL     1       9.606  15.624  15.714  0.00  0.00    +0.000 HD
ATOM     25  H   UNL     1      10.897  16.772  15.620  0.00  0.00    +0.000 HD
ENDBRANCH  18  21
ENDBRANCH  14  15
ENDBRANCH   1  14
TORSDOF 6
ENDMDL
MODEL 3
REMARK VINA RESULT:      -6.7      0.548      1.186
REMARK  Name = 
REMARK  7 active torsions:
REMARK  status: ('A' for Active; 'I' for Inactive)
REMARK    1  A    between atoms: C_1  and  C_2
REMARK    2  A    between atoms: C_4  and  C_5
REMARK    3  A    between atoms: C_5  and  C_6
REMARK    4  A    between atoms: N_8  and  O_9
REMARK    5  A    between atoms: O_9  and  C_10
REMARK    6  A    between atoms: C_10  and  C_11
REMARK    7  A    between atoms: C_14  and  C_15
REMARK                            x       y       z     vdW  Elec       q    Type
REMARK                         _______ _______ _______ _____ _____    ______ ____
ROOT
ATOM      1  O   UNL     1       2.586   7.863  18.477  0.00  0.00    +0.000 OA
ENDROOT
BRANCH   1   4
ATOM      2  C   UNL     1       1.199   9.505  19.010  0.00  0.00    +0.000 C 
ATOM      3  N   UNL     1       1.622  10.103  17.846  0.00  0.00    +0.000 N 
ATOM      4  N   UNL     1       1.633   8.339  19.400  0.00  0.00    +0.000 NA
ATOM      5  H   UNL     1       1.557  11.123  17.862  0.00  0.00    +0.000 HD
ATOM      6  H   UNL     1       2.525   9.749  17.545  0.00  0.00    +0.000 HD
BRANCH   2   7
ATOM      7  C   UNL     1       0.140  10.199  19.867  0.00  0.00    +0.000 C 
BRANCH   7  11
ATOM      8  C   UNL     1      -3.284  10.083  16.253  0.00  0.00    +0.000 C 
ATOM      9  C   UNL     1      -2.587  10.548  17.483  0.00  0.00    +0.000 A 
ATOM     10  N   UNL     1      -1.470  10.028  17.944  0.00  0.00    +0.000 NA
ATOM     11  C   UNL     1      -1.078  10.667  19.119  0.00  0.00    +0.000 A 
ATOM     12  C   UNL     1      -1.932  11.681  19.517  0.00  0.00    +0.000 A 
ATOM     13  S   UNL     1      -3.232  11.839  18.410  0.00  0.00    +0.000 S 
ENDBRANCH   7  11
ENDBRANCH   2   7
ENDBRANCH   1   4
BRANCH   1  14
ATOM     14  C   UNL     1       2.841   6.480  18.707  0.00  0.00    +0.000 C 
BRANCH  14  15
ATOM     15  C   UNL     1       3.818   6.014  17.655  0.00  0.00    +0.000 A 
ATOM     16  C   UNL     1       4.586   6.934  16.929  0.00  0.00    +0.000 A 
ATOM     17  C   UNL     1       5.468   6.500  15.931  0.00  0.00    +0.000 A 
ATOM     18  C   UNL     1       5.598   5.136  15.645  0.00  0.00    +0.000 A 
ATOM     19  C   UNL     1       4.831   4.214  16.372  0.00  0.00    +0.000 A 
ATOM     20  C   UNL     1       3.952   4.649  17.368  0.00  0.00    +0.000 A 
BRANCH  18  21
ATOM     21  C   UNL     1       6.512   4.601  14.594  0.00  0.00    +0.000 C 
ATOM     22  N   UNL     1       7.649   5.299  14.292  0.00  0.00    +0.000 N 
ATOM     23  O   UNL     1       6.268   3.557  14.002  0.00  0.00    +0.000 OA
ATOM     24  H   UNL     1       7.940   6.159  14.728  0.00  0.00    +0.000 HD
ATOM     25  H   UNL     1       8.243   4.905  13.575  0.00  0.00    +0.000 HD
ENDBRANCH  18  21
ENDBRANCH  14  15
ENDBRANCH   1  14
TORSDOF 6
ENDMDL
MODEL 4
REMARK VINA RESULT:      -6.7      5.616      6.363
REMARK  Name = 
REMARK  7 active torsions:
REMARK  status: ('A' for Active; 'I' for Inactive)
REMARK    1  A    between atoms: C_1  and  C_2
REMARK    2  A    between atoms: C_4  and  C_5
REMARK    3  A    between atoms: C_5  and  C_6
REMARK    4  A    between atoms: N_8  and  O_9
REMARK    5  A    between atoms: O_9  and  C_10
REMARK    6  A    between atoms: C_10  and  C_11
REMARK    7  A    between atoms: C_14  and  C_15
REMARK                            x       y       z     vdW  Elec       q    Type
REMARK                         _______ _______ _______ _____ _____    ______ ____
ROOT
ATOM      1  O   UNL     1       6.922   5.106  17.465  0.00  0.00    +0.000 OA
ENDROOT
BRANCH   1   4
ATOM      2  C   UNL     1       5.185   4.974  18.831  0.00  0.00    +0.000 C 
ATOM      3  N   UNL     1       5.438   3.622  18.855  0.00  0.00    +0.000 N 
ATOM      4  N   UNL     1       5.916   5.814  18.153  0.00  0.00    +0.000 NA
ATOM      5  H   UNL     1       4.609   3.053  19.045  0.00  0.00    +0.000 HD
ATOM      6  H   UNL     1       5.971   3.322  18.046  0.00  0.00    +0.000 HD
BRANCH   2   7
ATOM      7  C   UNL     1       4.035   5.536  19.668  0.00  0.00    +0.000 C 
BRANCH   7  11
ATOM      8  C   UNL     1       0.590   2.072  18.704  0.00  0.00    +0.000 C 
ATOM      9  C   UNL     1       1.439   2.991  19.511  0.00  0.00    +0.000 A 
ATOM     10  N   UNL     1       2.301   3.844  18.998  0.00  0.00    +0.000 NA
ATOM     11  C   UNL     1       2.954   4.549  20.009  0.00  0.00    +0.000 A 
ATOM     12  C   UNL     1       2.550   4.201  21.286  0.00  0.00    +0.000 A 
ATOM     13  S   UNL     1       1.341   2.986  21.223  0.00  0.00    +0.000 S 
ENDBRANCH   7  11
ENDBRANCH   2   7
ENDBRANCH   1   4
BRANCH   1  14
ATOM     14  C   UNL     1       7.291   5.810  16.281  0.00  0.00    +0.000 C 
BRANCH  14  15
ATOM     15  C   UNL     1       6.794   5.011  15.101  0.00  0.00    +0.000 A 
ATOM     16  C   UNL     1       7.465   5.049  13.872  0.00  0.00    +0.000 A 
ATOM     17  C   UNL     1       6.981   4.331  12.770  0.00  0.00    +0.000 A 
ATOM     18  C   UNL     1       5.819   3.560  12.882  0.00  0.00    +0.000 A 
ATOM     19  C   UNL     1       5.147   3.519  14.113  0.00  0.00    +0.000 A 
ATOM     20  C   UNL     1       5.631   4.235  15.211  0.00  0.00    +0.000 A 
BRANCH  18  21
ATOM     21  C   UNL     1       5.242   2.774  11.752  0.00  0.00    +0.000 C 
ATOM     22  N   UNL     1       4.098   3.225  11.152  0.00  0.00    +0.000 N 
ATOM     23  O   UNL     1       5.770   1.743  11.351  0.00  0.00    +0.000 OA
ATOM     24  H   UNL     1       3.599   4.062  11.403  0.00  0.00    +0.000 HD
ATOM     25  H   UNL     1       3.739   2.667  10.390  0.00  0.00    +0.000 HD
ENDBRANCH  18  21
ENDBRANCH  14  15
ENDBRANCH   1  14
TORSDOF 6
ENDMDL
MODEL 5
REMARK VINA RESULT:      -6.7      2.550      3.080
REMARK  Name = 
REMARK  7 active torsions:
REMARK  status: ('A' for Active; 'I' for Inactive)
REMARK    1  A    between atoms: C_1  and  C_2
REMARK    2  A    between atoms: C_4  and  C_5
REMARK    3  A    between atoms: C_5  and  C_6
REMARK    4  A    between atoms: N_8  and  O_9
REMARK    5  A    between atoms: O_9  and  C_10
REMARK    6  A    between atoms: C_10  and  C_11
REMARK    7  A    between atoms: C_14  and  C_15
REMARK                            x       y       z     vdW  Elec       q    Type
REMARK                         _______ _______ _______ _____ _____    ______ ____
ROOT
ATOM      1  O   UNL     1       1.390   8.772  19.696  0.00  0.00    +0.000 OA
ENDROOT
BRANCH   1   4
ATOM      2  C   UNL     1       0.089  10.463  19.102  0.00  0.00    +0.000 C 
ATOM      3  N   UNL     1       0.885  10.547  17.983  0.00  0.00    +0.000 N 
ATOM      4  N   UNL     1       0.270   9.562  20.027  0.00  0.00    +0.000 NA
ATOM      5  H   UNL     1       0.926  11.486  17.579  0.00  0.00    +0.000 HD
ATOM      6  H   UNL     1       1.794  10.119  18.131  0.00  0.00    +0.000 HD
BRANCH   2   7
ATOM      7  C   UNL     1      -1.089  11.424  19.257  0.00  0.00    +0.000 C 
BRANCH   7  11
ATOM      8  C   UNL     1      -3.011  10.024  14.882  0.00  0.00    +0.000 C 
ATOM      9  C   UNL     1      -2.967  10.617  16.247  0.00  0.00    +0.000 A 
ATOM     10  N   UNL     1      -1.880  10.697  16.985  0.00  0.00    +0.000 NA
ATOM     11  C   UNL     1      -2.165  11.286  18.216  0.00  0.00    +0.000 A 
ATOM     12  C   UNL     1      -3.492  11.647  18.371  0.00  0.00    +0.000 A 
ATOM     13  S   UNL     1      -4.390  11.251  16.964  0.00  0.00    +0.000 S 
ENDBRANCH   7  11
ENDBRANCH   2   7
ENDBRANCH   1   4
BRANCH   1  14
ATOM     14  C   UNL     1       1.623   7.803  20.716  0.00  0.00    +0.000 C 
BRANCH  14  15
ATOM     15  C   UNL     1       1.991   6.506  20.038  0.00  0.00    +0.000 A 
ATOM     16  C   UNL     1       2.488   6.495  18.728  0.00  0.00    +0.000 A 
ATOM     17  C   UNL     1       2.799   5.286  18.091  0.00  0.00    +0.000 A 
ATOM     18  C   UNL     1       2.619   4.068  18.756  0.00  0.00    +0.000 A 
ATOM     19  C   UNL     1       2.123   4.078  20.068  0.00  0.00    +0.000 A 
ATOM     20  C   UNL     1       1.815   5.285  20.703  0.00  0.00    +0.000 A 
BRANCH  18  21
ATOM     21  C   UNL     1       2.922   2.743  18.140  0.00  0.00    +0.000 C 
ATOM     22  N   UNL     1       4.058   2.084  18.522  0.00  0.00    +0.000 N 
ATOM     23  O   UNL     1       2.179   2.238  17.307  0.00  0.00    +0.000 OA
ATOM     24  H   UNL     1       4.723   2.412  19.202  0.00  0.00    +0.000 HD
ATOM     25  H   UNL     1       4.229   1.189  18.083  0.00  0.00    +0.000 HD
ENDBRANCH  18  21
ENDBRANCH  14  15
ENDBRANCH   1  14
TORSDOF 6
ENDMDL
MODEL 6
REMARK VINA RESULT:      -6.5      3.880      8.718
REMARK  Name = 
REMARK  7 active torsions:
REMARK  status: ('A' for Active; 'I' for Inactive)
REMARK    1  A    between atoms: C_1  and  C_2
REMARK    2  A    between atoms: C_4  and  C_5
REMARK    3  A    between atoms: C_5  and  C_6
REMARK    4  A    between atoms: N_8  and  O_9
REMARK    5  A    between atoms: O_9  and  C_10
REMARK    6  A    between atoms: C_10  and  C_11
REMARK    7  A    between atoms: C_14  and  C_15
REMARK                            x       y       z     vdW  Elec       q    Type
REMARK                         _______ _______ _______ _____ _____    ______ ____
ROOT
ATOM      1  O   UNL     1       1.034   9.256  19.077  0.00  0.00    +0.000 OA
ENDROOT
BRANCH   1   4
ATOM      2  C   UNL     1       2.441   7.573  18.771  0.00  0.00    +0.000 C 
ATOM      3  N   UNL     1       2.225   7.287  20.100  0.00  0.00    +0.000 N 
ATOM      4  N   UNL     1       1.850   8.562  18.160  0.00  0.00    +0.000 NA
ATOM      5  H   UNL     1       3.010   6.807  20.547  0.00  0.00    +0.000 HD
ATOM      6  H   UNL     1       1.887   8.096  20.611  0.00  0.00    +0.000 HD
BRANCH   2   7
ATOM      7  C   UNL     1       3.369   6.676  17.952  0.00  0.00    +0.000 C 
BRANCH   7  11
ATOM      8  C   UNL     1       0.817   2.486  18.807  0.00  0.00    +0.000 C 
ATOM      9  C   UNL     1       1.995   3.361  18.554  0.00  0.00    +0.000 A 
ATOM     10  N   UNL     1       1.934   4.670  18.438  0.00  0.00    +0.000 NA
ATOM     11  C   UNL     1       3.198   5.200  18.188  0.00  0.00    +0.000 A 
ATOM     12  C   UNL     1       4.202   4.250  18.126  0.00  0.00    +0.000 A 
ATOM     13  S   UNL     1       3.561   2.681  18.388  0.00  0.00    +0.000 S 
ENDBRANCH   7  11
ENDBRANCH   2   7
ENDBRANCH   1   4
BRANCH   1  14
ATOM     14  C   UNL     1       0.753  10.564  18.587  0.00  0.00    +0.000 C 
BRANCH  14  15
ATOM     15  C   UNL     1      -0.740  10.669  18.393  0.00  0.00    +0.000 A 
ATOM     16  C   UNL     1      -1.404   9.849  17.471  0.00  0.00    +0.000 A 
ATOM     17  C   UNL     1      -2.786   9.971  17.271  0.00  0.00    +0.000 A 
ATOM     18  C   UNL     1      -3.526  10.914  17.992  0.00  0.00    +0.000 A 
ATOM     19  C   UNL     1      -2.862  11.735  18.916  0.00  0.00    +0.000 A 
ATOM     20  C   UNL     1      -1.484  11.611  19.116  0.00  0.00    +0.000 A 
BRANCH  18  21
ATOM     21  C   UNL     1      -4.997  11.105  17.827  0.00  0.00    +0.000 C 
ATOM     22  N   UNL     1      -5.459  11.709  16.691  0.00  0.00    +0.000 N 
ATOM     23  O   UNL     1      -5.792  10.731  18.682  0.00  0.00    +0.000 OA
ATOM     24  H   UNL     1      -4.888  12.041  15.932  0.00  0.00    +0.000 HD
ATOM     25  H   UNL     1      -6.461  11.820  16.616  0.00  0.00    +0.000 HD
ENDBRANCH  18  21
ENDBRANCH  14  15
ENDBRANCH   1  14
TORSDOF 6
ENDMDL
MODEL 7
REMARK VINA RESULT:      -6.5      2.638      3.540
REMARK  Name = 
REMARK  7 active torsions:
REMARK  status: ('A' for Active; 'I' for Inactive)
REMARK    1  A    between atoms: C_1  and  C_2
REMARK    2  A    between atoms: C_4  and  C_5
REMARK    3  A    between atoms: C_5  and  C_6
REMARK    4  A    between atoms: N_8  and  O_9
REMARK    5  A    between atoms: O_9  and  C_10
REMARK    6  A    between atoms: C_10  and  C_11
REMARK    7  A    between atoms: C_14  and  C_15
REMARK                            x       y       z     vdW  Elec       q    Type
REMARK                         _______ _______ _______ _____ _____    ______ ____
ROOT
ATOM      1  O   UNL     1       2.712   7.052  19.531  0.00  0.00    +0.000 OA
ENDROOT
BRANCH   1   4
ATOM      2  C   UNL     1       1.358   8.562  20.420  0.00  0.00    +0.000 C 
ATOM      3  N   UNL     1       1.778   8.072  21.635  0.00  0.00    +0.000 N 
ATOM      4  N   UNL     1       1.806   8.103  19.284  0.00  0.00    +0.000 NA
ATOM      5  H   UNL     1       1.091   8.191  22.384  0.00  0.00    +0.000 HD
ATOM      6  H   UNL     1       2.148   7.131  21.556  0.00  0.00    +0.000 HD
BRANCH   2   7
ATOM      7  C   UNL     1       0.365   9.723  20.382  0.00  0.00    +0.000 C 
BRANCH   7  11
ATOM      8  C   UNL     1       2.396  14.186  21.254  0.00  0.00    +0.000 C 
ATOM      9  C   UNL     1       1.877  13.032  20.469  0.00  0.00    +0.000 A 
ATOM     10  N   UNL     1       1.326  11.962  21.002  0.00  0.00    +0.000 NA
ATOM     11  C   UNL     1       0.957  11.055  20.010  0.00  0.00    +0.000 A 
ATOM     12  C   UNL     1       1.243  11.482  18.725  0.00  0.00    +0.000 A 
ATOM     13  S   UNL     1       1.976  13.032  18.757  0.00  0.00    +0.000 S 
ENDBRANCH   7  11
ENDBRANCH   2   7
ENDBRANCH   1   4
BRANCH   1  14
ATOM     14  C   UNL     1       2.342   5.900  18.777  0.00  0.00    +0.000 C 
BRANCH  14  15
ATOM     15  C   UNL     1       3.455   5.618  17.798  0.00  0.00    +0.000 A 
ATOM     16  C   UNL     1       4.235   6.657  17.276  0.00  0.00    +0.000 A 
ATOM     17  C   UNL     1       5.246   6.394  16.343  0.00  0.00    +0.000 A 
ATOM     18  C   UNL     1       5.495   5.084  15.919  0.00  0.00    +0.000 A 
ATOM     19  C   UNL     1       4.716   4.042  16.442  0.00  0.00    +0.000 A 
ATOM     20  C   UNL     1       3.708   4.306  17.374  0.00  0.00    +0.000 A 
BRANCH  18  21
ATOM     21  C   UNL     1       6.550   4.729  14.925  0.00  0.00    +0.000 C 
ATOM     22  N   UNL     1       6.346   3.656  14.102  0.00  0.00    +0.000 N 
ATOM     23  O   UNL     1       7.587   5.377  14.830  0.00  0.00    +0.000 OA
ATOM     24  H   UNL     1       5.527   3.070  14.098  0.00  0.00    +0.000 HD
ATOM     25  H   UNL     1       7.083   3.447  13.442  0.00  0.00    +0.000 HD
ENDBRANCH  18  21
ENDBRANCH  14  15
ENDBRANCH   1  14
TORSDOF 6
ENDMDL
MODEL 8
REMARK VINA RESULT:      -6.5      1.472      1.738
REMARK  Name = 
REMARK  7 active torsions:
REMARK  status: ('A' for Active; 'I' for Inactive)
REMARK    1  A    between atoms: C_1  and  C_2
REMARK    2  A    between atoms: C_4  and  C_5
REMARK    3  A    between atoms: C_5  and  C_6
REMARK    4  A    between atoms: N_8  and  O_9
REMARK    5  A    between atoms: O_9  and  C_10
REMARK    6  A    between atoms: C_10  and  C_11
REMARK    7  A    between atoms: C_14  and  C_15
REMARK                            x       y       z     vdW  Elec       q    Type
REMARK                         _______ _______ _______ _____ _____    ______ ____
ROOT
ATOM      1  O   UNL     1       2.772   6.991  19.603  0.00  0.00    +0.000 OA
ENDROOT
BRANCH   1   4
ATOM      2  C   UNL     1       1.255   8.522  20.115  0.00  0.00    +0.000 C 
ATOM      3  N   UNL     1       1.673   9.168  18.974  0.00  0.00    +0.000 N 
ATOM      4  N   UNL     1       1.758   7.382  20.501  0.00  0.00    +0.000 NA
ATOM      5  H   UNL     1       1.535  10.181  19.005  0.00  0.00    +0.000 HD
ATOM      6  H   UNL     1       2.607   8.884  18.699  0.00  0.00    +0.000 HD
BRANCH   2   7
ATOM      7  C   UNL     1       0.123   9.125  20.947  0.00  0.00    +0.000 C 
BRANCH   7  11
ATOM      8  C   UNL     1      -2.450  11.511  17.414  0.00  0.00    +0.000 C 
ATOM      9  C   UNL     1      -1.739  11.304  18.705  0.00  0.00    +0.000 A 
ATOM     10  N   UNL     1      -1.127  10.189  19.043  0.00  0.00    +0.000 NA
ATOM     11  C   UNL     1      -0.573  10.300  20.317  0.00  0.00    +0.000 A 
ATOM     12  C   UNL     1      -0.785  11.530  20.915  0.00  0.00    +0.000 A 
ATOM     13  S   UNL     1      -1.680  12.557  19.874  0.00  0.00    +0.000 S 
ENDBRANCH   7  11
ENDBRANCH   2   7
ENDBRANCH   1   4
BRANCH   1  14
ATOM     14  C   UNL     1       2.533   5.663  19.145  0.00  0.00    +0.000 C 
BRANCH  14  15
ATOM     15  C   UNL     1       3.525   5.373  18.046  0.00  0.00    +0.000 A 
ATOM     16  C   UNL     1       3.818   4.056  17.670  0.00  0.00    +0.000 A 
ATOM     17  C   UNL     1       4.764   3.790  16.671  0.00  0.00    +0.000 A 
ATOM     18  C   UNL     1       5.431   4.840  16.030  0.00  0.00    +0.000 A 
ATOM     19  C   UNL     1       5.137   6.160  16.404  0.00  0.00    +0.000 A 
ATOM     20  C   UNL     1       4.193   6.423  17.400  0.00  0.00    +0.000 A 
BRANCH  18  21
ATOM     21  C   UNL     1       6.453   4.633  14.962  0.00  0.00    +0.000 C 
ATOM     22  N   UNL     1       6.233   3.670  14.017  0.00  0.00    +0.000 N 
ATOM     23  O   UNL     1       7.477   5.306  14.915  0.00  0.00    +0.000 OA
ATOM     24  H   UNL     1       5.422   3.076  13.966  0.00  0.00    +0.000 HD
ATOM     25  H   UNL     1       6.948   3.560  13.310  0.00  0.00    +0.000 HD
ENDBRANCH  18  21
ENDBRANCH  14  15
ENDBRANCH   1  14
TORSDOF 6
ENDMDL
MODEL 9
REMARK VINA RESULT:      -6.5      3.538      4.865
REMARK  Name = 
REMARK  7 active torsions:
REMARK  status: ('A' for Active; 'I' for Inactive)
REMARK    1  A    between atoms: C_1  and  C_2
REMARK    2  A    between atoms: C_4  and  C_5
REMARK    3  A    between atoms: C_5  and  C_6
REMARK    4  A    between atoms: N_8  and  O_9
REMARK    5  A    between atoms: O_9  and  C_10
REMARK    6  A    between atoms: C_10  and  C_11
REMARK    7  A    between atoms: C_14  and  C_15
REMARK                            x       y       z     vdW  Elec       q    Type
REMARK                         _______ _______ _______ _____ _____    ______ ____
ROOT
ATOM      1  O   UNL     1       2.098   8.712  17.406  0.00  0.00    +0.000 OA
ENDROOT
BRANCH   1   4
ATOM      2  C   UNL     1       1.140  10.525  18.243  0.00  0.00    +0.000 C 
ATOM      3  N   UNL     1      -0.051   9.917  17.923  0.00  0.00    +0.000 N 
ATOM      4  N   UNL     1       2.297   9.962  18.026  0.00  0.00    +0.000 NA
ATOM      5  H   UNL     1      -0.812  10.577  17.744  0.00  0.00    +0.000 HD
ATOM      6  H   UNL     1       0.064   9.211  17.204  0.00  0.00    +0.000 HD
BRANCH   2   7
ATOM      7  C   UNL     1       1.125  11.893  18.925  0.00  0.00    +0.000 C 
BRANCH   7  11
ATOM      8  C   UNL     1      -0.734  10.040  23.157  0.00  0.00    +0.000 C 
ATOM      9  C   UNL     1      -0.407  11.054  22.117  0.00  0.00    +0.000 A 
ATOM     10  N   UNL     1       0.208  10.783  20.986  0.00  0.00    +0.000 NA
ATOM     11  C   UNL     1       0.385  11.943  20.233  0.00  0.00    +0.000 A 
ATOM     12  C   UNL     1      -0.119  13.083  20.834  0.00  0.00    +0.000 A 
ATOM     13  S   UNL     1      -0.825  12.701  22.349  0.00  0.00    +0.000 S 
ENDBRANCH   7  11
ENDBRANCH   2   7
ENDBRANCH   1   4
BRANCH   1  14
ATOM     14  C   UNL     1       3.263   7.904  17.553  0.00  0.00    +0.000 C 
BRANCH  14  15
ATOM     15  C   UNL     1       2.916   6.766  18.481  0.00  0.00    +0.000 A 
ATOM     16  C   UNL     1       3.227   5.443  18.145  0.00  0.00    +0.000 A 
ATOM     17  C   UNL     1       2.874   4.386  18.995  0.00  0.00    +0.000 A 
ATOM     18  C   UNL     1       2.206   4.639  20.199  0.00  0.00    +0.000 A 
ATOM     19  C   UNL     1       1.896   5.964  20.538  0.00  0.00    +0.000 A 
ATOM     20  C   UNL     1       2.249   7.016  19.689  0.00  0.00    +0.000 A 
BRANCH  18  21
ATOM     21  C   UNL     1       1.794   3.565  21.150  0.00  0.00    +0.000 C 
ATOM     22  N   UNL     1       0.675   2.830  20.869  0.00  0.00    +0.000 N 
ATOM     23  O   UNL     1       2.434   3.329  22.168  0.00  0.00    +0.000 OA
ATOM     24  H   UNL     1       0.091   2.943  20.057  0.00  0.00    +0.000 HD
ATOM     25  H   UNL     1       0.428   2.112  21.537  0.00  0.00    +0.000 HD
ENDBRANCH  18  21
ENDBRANCH  14  15
ENDBRANCH   1  14
TORSDOF 6
ENDMDL
