MODEL 1
REMARK VINA RESULT:      -8.5      0.000      0.000
REMARK  Name = 
REMARK  9 active torsions:
REMARK  status: ('A' for Active; 'I' for Inactive)
REMARK    1  A    between atoms: C_1  and  C_2
REMARK    2  A    between atoms: C_4  and  C_5
REMARK    3  A    between atoms: C_7  and  C_8
REMARK    4  A    between atoms: C_8  and  N_9
REMARK    5  A    between atoms: C_10  and  C_13
REMARK    6  A    between atoms: N_11  and  O_12
REMARK    7  A    between atoms: C_18  and  O_19
REMARK    8  A    between atoms: O_19  and  C_20
REMARK    9  A    between atoms: C_20  and  C_21
REMARK                            x       y       z     vdW  Elec       q    Type
REMARK                         _______ _______ _______ _____ _____    ______ ____
ROOT
ATOM      1  N   UNL     1       5.537   4.501  16.753  0.00  0.00    +0.000 N 
ATOM      2  C   UNL     1       5.128   4.125  18.028  0.00  0.00    +0.000 C 
ATOM      3  N   UNL     1       5.837   4.121  19.120  0.00  0.00    +0.000 NA
ATOM      4  H   UNL     1       4.849   4.884  16.117  0.00  0.00    +0.000 HD
ENDROOT
BRANCH   2   5
ATOM      5  C   UNL     1       3.704   3.628  18.158  0.00  0.00    +0.000 A 
ATOM      6  C   UNL     1       3.503   2.265  18.440  0.00  0.00    +0.000 A 
ATOM      7  C   UNL     1       2.219   1.757  18.602  0.00  0.00    +0.000 A 
ATOM      8  C   UNL     1       1.158   2.632  18.493  0.00  0.00    +0.000 A 
ATOM      9  N   UNL     1       1.303   3.947  18.243  0.00  0.00    +0.000 NA
ATOM     10  C   UNL     1       2.564   4.439  18.085  0.00  0.00    +0.000 A 
BRANCH  10  11
ATOM     11  O   UNL     1       2.664   5.778  17.758  0.00  0.00    +0.000 OA
BRANCH  11  12
ATOM     12  C   UNL     1       3.008   6.594  18.887  0.00  0.00    +0.000 C 
BRANCH  12  13
ATOM     13  C   UNL     1       2.199   7.872  18.950  0.00  0.00    +0.000 A 
ATOM     14  C   UNL     1       2.119   8.780  17.887  0.00  0.00    +0.000 A 
ATOM     15  C   UNL     1       1.379   9.960  18.019  0.00  0.00    +0.000 A 
ATOM     16  C   UNL     1       0.718  10.253  19.214  0.00  0.00    +0.000 A 
ATOM     17  C   UNL     1       0.800   9.363  20.281  0.00  0.00    +0.000 A 
ATOM     18  C   UNL     1       1.538   8.192  20.144  0.00  0.00    +0.000 A 
ATOM     19  F   UNL     1       1.613   7.356  21.190  0.00  0.00    +0.000 F 
ENDBRANCH  12  13
ENDBRANCH  11  12
ENDBRANCH  10  11
ENDBRANCH   2   5
BRANCH   3  20
ATOM     20  O   UNL     1       7.115   4.659  18.960  0.00  0.00    +0.000 OA
ATOM     21  H   UNL     1       7.521   4.471  19.825  0.00  0.00    +0.000 HD
ENDBRANCH   3  20
BRANCH   1  22
ATOM     22  C   UNL     1       6.896   4.503  16.262  0.00  0.00    +0.000 C 
BRANCH  22  29
ATOM     23  C   UNL     1       8.479   6.356  11.824  0.00  0.00    +0.000 C 
ATOM     24  C   UNL     1       7.675   5.352  12.600  0.00  0.00    +0.000 A 
ATOM     25  C   UNL     1       6.859   4.429  11.935  0.00  0.00    +0.000 A 
ATOM     26  C   UNL     1       6.087   3.509  12.654  0.00  0.00    +0.000 A 
ATOM     27  C   UNL     1       5.193   2.534  11.944  0.00  0.00    +0.000 C 
ATOM     28  C   UNL     1       6.136   3.519  14.055  0.00  0.00    +0.000 A 
ATOM     29  C   UNL     1       6.927   4.450  14.746  0.00  0.00    +0.000 A 
ATOM     30  C   UNL     1       7.710   5.352  14.004  0.00  0.00    +0.000 A 
ENDBRANCH  22  29
ENDBRANCH   1  22
TORSDOF 7
ENDMDL
MODEL 2
REMARK VINA RESULT:      -8.5      0.259      1.648
REMARK  Name = 
REMARK  9 active torsions:
REMARK  status: ('A' for Active; 'I' for Inactive)
REMARK    1  A    between atoms: C_1  and  C_2
REMARK    2  A    between atoms: C_4  and  C_5
REMARK    3  A    between atoms: C_7  and  C_8
REMARK    4  A    between atoms: C_8  and  N_9
REMARK    5  A    between atoms: C_10  and  C_13
REMARK    6  A    between atoms: N_11  and  O_12
REMARK    7  A    between atoms: C_18  and  O_19
REMARK    8  A    between atoms: O_19  and  C_20
REMARK    9  A    between atoms: C_20  and  C_21
REMARK                            x       y       z     vdW  Elec       q    Type
REMARK                         _______ _______ _______ _____ _____    ______ ____
ROOT
ATOM      1  N   UNL     1       5.468   4.336  16.829  0.00  0.00    +0.000 N 
ATOM      2  C   UNL     1       5.089   4.080  18.143  0.00  0.00    +0.000 C 
ATOM      3  N   UNL     1       5.828   4.160  19.212  0.00  0.00    +0.000 NA
ATOM      4  H   UNL     1       4.768   4.673  16.180  0.00  0.00    +0.000 HD
ENDROOT
BRANCH   2   5
ATOM      5  C   UNL     1       3.663   3.618  18.353  0.00  0.00    +0.000 A 
ATOM      6  C   UNL     1       3.455   2.320  18.850  0.00  0.00    +0.000 A 
ATOM      7  C   UNL     1       2.168   1.851  19.092  0.00  0.00    +0.000 A 
ATOM      8  C   UNL     1       1.112   2.703  18.846  0.00  0.00    +0.000 A 
ATOM      9  N   UNL     1       1.264   3.961  18.388  0.00  0.00    +0.000 NA
ATOM     10  C   UNL     1       2.527   4.413  18.152  0.00  0.00    +0.000 A 
BRANCH  10  11
ATOM     11  O   UNL     1       2.633   5.682  17.614  0.00  0.00    +0.000 OA
BRANCH  11  12
ATOM     12  C   UNL     1       3.217   6.619  18.531  0.00  0.00    +0.000 C 
BRANCH  12  13
ATOM     13  C   UNL     1       2.327   7.817  18.784  0.00  0.00    +0.000 A 
ATOM     14  C   UNL     1       2.192   8.875  17.876  0.00  0.00    +0.000 A 
ATOM     15  C   UNL     1       1.378   9.971  18.182  0.00  0.00    +0.000 A 
ATOM     16  C   UNL     1       0.696  10.029  19.399  0.00  0.00    +0.000 A 
ATOM     17  C   UNL     1       0.832   8.990  20.314  0.00  0.00    +0.000 A 
ATOM     18  C   UNL     1       1.643   7.904  20.004  0.00  0.00    +0.000 A 
ATOM     19  F   UNL     1       1.769   6.919  20.907  0.00  0.00    +0.000 F 
ENDBRANCH  12  13
ENDBRANCH  11  12
ENDBRANCH  10  11
ENDBRANCH   2   5
BRANCH   3  20
ATOM     20  O   UNL     1       7.107   4.663  18.972  0.00  0.00    +0.000 OA
ATOM     21  H   UNL     1       7.560   4.466  19.812  0.00  0.00    +0.000 HD
ENDBRANCH   3  20
BRANCH   1  22
ATOM     22  C   UNL     1       6.814   4.274  16.305  0.00  0.00    +0.000 C 
BRANCH  22  29
ATOM     23  C   UNL     1       5.292   2.502  11.813  0.00  0.00    +0.000 C 
ATOM     24  C   UNL     1       6.092   3.486  12.618  0.00  0.00    +0.000 A 
ATOM     25  C   UNL     1       6.929   4.411  11.981  0.00  0.00    +0.000 A 
ATOM     26  C   UNL     1       7.697   5.312  12.726  0.00  0.00    +0.000 A 
ATOM     27  C   UNL     1       8.613   6.288  12.047  0.00  0.00    +0.000 C 
ATOM     28  C   UNL     1       7.623   5.282  14.127  0.00  0.00    +0.000 A 
ATOM     29  C   UNL     1       6.811   4.349  14.789  0.00  0.00    +0.000 A 
ATOM     30  C   UNL     1       6.032   3.466  14.021  0.00  0.00    +0.000 A 
ENDBRANCH  22  29
ENDBRANCH   1  22
TORSDOF 7
ENDMDL
MODEL 3
REMARK VINA RESULT:      -8.5      1.714      4.598
REMARK  Name = 
REMARK  9 active torsions:
REMARK  status: ('A' for Active; 'I' for Inactive)
REMARK    1  A    between atoms: C_1  and  C_2
REMARK    2  A    between atoms: C_4  and  C_5
REMARK    3  A    between atoms: C_7  and  C_8
REMARK    4  A    between atoms: C_8  and  N_9
REMARK    5  A    between atoms: C_10  and  C_13
REMARK    6  A    between atoms: N_11  and  O_12
REMARK    7  A    between atoms: C_18  and  O_19
REMARK    8  A    between atoms: O_19  and  C_20
REMARK    9  A    between atoms: C_20  and  C_21
REMARK                            x       y       z     vdW  Elec       q    Type
REMARK                         _______ _______ _______ _____ _____    ______ ____
ROOT
ATOM      1  N   UNL     1       4.809   5.413  16.776  0.00  0.00    +0.000 N 
ATOM      2  C   UNL     1       4.709   5.859  18.090  0.00  0.00    +0.000 C 
ATOM      3  N   UNL     1       5.431   5.491  19.110  0.00  0.00    +0.000 NA
ATOM      4  H   UNL     1       4.543   6.043  16.030  0.00  0.00    +0.000 HD
ENDROOT
BRANCH   2   5
ATOM      5  C   UNL     1       3.609   6.858  18.379  0.00  0.00    +0.000 A 
ATOM      6  C   UNL     1       3.404   7.901  17.458  0.00  0.00    +0.000 A 
ATOM      7  C   UNL     1       2.389   8.831  17.655  0.00  0.00    +0.000 A 
ATOM      8  C   UNL     1       1.586   8.686  18.767  0.00  0.00    +0.000 A 
ATOM      9  N   UNL     1       1.733   7.694  19.665  0.00  0.00    +0.000 NA
ATOM     10  C   UNL     1       2.730   6.786  19.467  0.00  0.00    +0.000 A 
BRANCH  10  11
ATOM     11  O   UNL     1       2.892   5.828  20.451  0.00  0.00    +0.000 OA
BRANCH  11  12
ATOM     12  C   UNL     1       1.942   4.758  20.335  0.00  0.00    +0.000 C 
BRANCH  12  13
ATOM     13  C   UNL     1       2.496   3.567  19.583  0.00  0.00    +0.000 A 
ATOM     14  C   UNL     1       3.498   2.736  20.099  0.00  0.00    +0.000 A 
ATOM     15  C   UNL     1       3.991   1.668  19.341  0.00  0.00    +0.000 A 
ATOM     16  C   UNL     1       3.497   1.422  18.058  0.00  0.00    +0.000 A 
ATOM     17  C   UNL     1       2.510   2.248  17.530  0.00  0.00    +0.000 A 
ATOM     18  C   UNL     1       2.025   3.308  18.289  0.00  0.00    +0.000 A 
ATOM     19  F   UNL     1       1.082   4.099  17.754  0.00  0.00    +0.000 F 
ENDBRANCH  12  13
ENDBRANCH  11  12
ENDBRANCH  10  11
ENDBRANCH   2   5
BRANCH   3  20
ATOM     20  O   UNL     1       6.476   4.630  18.774  0.00  0.00    +0.000 OA
ATOM     21  H   UNL     1       6.103   4.151  18.012  0.00  0.00    +0.000 HD
ENDBRANCH   3  20
BRANCH   1  22
ATOM     22  C   UNL     1       5.369   4.152  16.347  0.00  0.00    +0.000 C 
BRANCH  22  29
ATOM     23  C   UNL     1       5.015   2.709  11.507  0.00  0.00    +0.000 C 
ATOM     24  C   UNL     1       5.689   3.524  12.573  0.00  0.00    +0.000 A 
ATOM     25  C   UNL     1       6.830   4.279  12.274  0.00  0.00    +0.000 A 
ATOM     26  C   UNL     1       7.477   5.020  13.270  0.00  0.00    +0.000 A 
ATOM     27  C   UNL     1       8.715   5.811  12.958  0.00  0.00    +0.000 C 
ATOM     28  C   UNL     1       6.973   5.000  14.578  0.00  0.00    +0.000 A 
ATOM     29  C   UNL     1       5.846   4.231  14.908  0.00  0.00    +0.000 A 
ATOM     30  C   UNL     1       5.199   3.511  13.888  0.00  0.00    +0.000 A 
ENDBRANCH  22  29
ENDBRANCH   1  22
TORSDOF 7
ENDMDL
MODEL 4
REMARK VINA RESULT:      -8.4      1.710      4.311
REMARK  Name = 
REMARK  9 active torsions:
REMARK  status: ('A' for Active; 'I' for Inactive)
REMARK    1  A    between atoms: C_1  and  C_2
REMARK    2  A    between atoms: C_4  and  C_5
REMARK    3  A    between atoms: C_7  and  C_8
REMARK    4  A    between atoms: C_8  and  N_9
REMARK    5  A    between atoms: C_10  and  C_13
REMARK    6  A    between atoms: N_11  and  O_12
REMARK    7  A    between atoms: C_18  and  O_19
REMARK    8  A    between atoms: O_19  and  C_20
REMARK    9  A    between atoms: C_20  and  C_21
REMARK                            x       y       z     vdW  Elec       q    Type
REMARK                         _______ _______ _______ _____ _____    ______ ____
ROOT
ATOM      1  N   UNL     1       4.804   5.327  16.776  0.00  0.00    +0.000 N 
ATOM      2  C   UNL     1       4.751   5.822  18.075  0.00  0.00    +0.000 C 
ATOM      3  N   UNL     1       5.517   5.503  19.078  0.00  0.00    +0.000 NA
ATOM      4  H   UNL     1       4.501   5.925  16.018  0.00  0.00    +0.000 HD
ENDROOT
BRANCH   2   5
ATOM      5  C   UNL     1       3.651   6.820  18.369  0.00  0.00    +0.000 A 
ATOM      6  C   UNL     1       3.420   7.844  17.435  0.00  0.00    +0.000 A 
ATOM      7  C   UNL     1       2.403   8.772  17.636  0.00  0.00    +0.000 A 
ATOM      8  C   UNL     1       1.624   8.642  18.767  0.00  0.00    +0.000 A 
ATOM      9  N   UNL     1       1.796   7.667  19.680  0.00  0.00    +0.000 NA
ATOM     10  C   UNL     1       2.795   6.762  19.477  0.00  0.00    +0.000 A 
BRANCH  10  11
ATOM     11  O   UNL     1       2.983   5.823  20.473  0.00  0.00    +0.000 OA
BRANCH  11  12
ATOM     12  C   UNL     1       2.027   4.754  20.407  0.00  0.00    +0.000 C 
BRANCH  12  13
ATOM     13  C   UNL     1       2.544   3.558  19.638  0.00  0.00    +0.000 A 
ATOM     14  C   UNL     1       3.559   2.720  20.117  0.00  0.00    +0.000 A 
ATOM     15  C   UNL     1       4.016   1.647  19.344  0.00  0.00    +0.000 A 
ATOM     16  C   UNL     1       3.472   1.402  18.081  0.00  0.00    +0.000 A 
ATOM     17  C   UNL     1       2.471   2.234  17.589  0.00  0.00    +0.000 A 
ATOM     18  C   UNL     1       2.022   3.299  18.363  0.00  0.00    +0.000 A 
ATOM     19  F   UNL     1       1.065   4.095  17.862  0.00  0.00    +0.000 F 
ENDBRANCH  12  13
ENDBRANCH  11  12
ENDBRANCH  10  11
ENDBRANCH   2   5
BRANCH   3  20
ATOM     20  O   UNL     1       6.559   4.640  18.735  0.00  0.00    +0.000 OA
ATOM     21  H   UNL     1       6.628   4.783  17.774  0.00  0.00    +0.000 HD
ENDBRANCH   3  20
BRANCH   1  22
ATOM     22  C   UNL     1       5.363   4.056  16.373  0.00  0.00    +0.000 C 
BRANCH  22  29
ATOM     23  C   UNL     1       8.660   5.822  12.960  0.00  0.00    +0.000 C 
ATOM     24  C   UNL     1       7.460   4.982  13.294  0.00  0.00    +0.000 A 
ATOM     25  C   UNL     1       6.741   4.336  12.280  0.00  0.00    +0.000 A 
ATOM     26  C   UNL     1       5.608   3.574  12.582  0.00  0.00    +0.000 A 
ATOM     27  C   UNL     1       4.821   2.900  11.495  0.00  0.00    +0.000 C 
ATOM     28  C   UNL     1       5.192   3.461  13.917  0.00  0.00    +0.000 A 
ATOM     29  C   UNL     1       5.881   4.118  14.948  0.00  0.00    +0.000 A 
ATOM     30  C   UNL     1       7.029   4.862  14.624  0.00  0.00    +0.000 A 
ENDBRANCH  22  29
ENDBRANCH   1  22
TORSDOF 7
ENDMDL
MODEL 5
REMARK VINA RESULT:      -8.4      0.846      2.046
REMARK  Name = 
REMARK  9 active torsions:
REMARK  status: ('A' for Active; 'I' for Inactive)
REMARK    1  A    between atoms: C_1  and  C_2
REMARK    2  A    between atoms: C_4  and  C_5
REMARK    3  A    between atoms: C_7  and  C_8
REMARK    4  A    between atoms: C_8  and  N_9
REMARK    5  A    between atoms: C_10  and  C_13
REMARK    6  A    between atoms: N_11  and  O_12
REMARK    7  A    between atoms: C_18  and  O_19
REMARK    8  A    between atoms: O_19  and  C_20
REMARK    9  A    between atoms: C_20  and  C_21
REMARK                            x       y       z     vdW  Elec       q    Type
REMARK                         _______ _______ _______ _____ _____    ______ ____
ROOT
ATOM      1  N   UNL     1       5.422   4.342  16.782  0.00  0.00    +0.000 N 
ATOM      2  C   UNL     1       5.036   4.060  18.089  0.00  0.00    +0.000 C 
ATOM      3  N   UNL     1       5.758   4.156  19.168  0.00  0.00    +0.000 NA
ATOM      4  H   UNL     1       4.718   4.660  16.128  0.00  0.00    +0.000 HD
ENDROOT
BRANCH   2   5
ATOM      5  C   UNL     1       3.625   3.545  18.277  0.00  0.00    +0.000 A 
ATOM      6  C   UNL     1       3.443   2.161  18.444  0.00  0.00    +0.000 A 
ATOM      7  C   UNL     1       2.173   1.633  18.652  0.00  0.00    +0.000 A 
ATOM      8  C   UNL     1       1.109   2.509  18.704  0.00  0.00    +0.000 A 
ATOM      9  N   UNL     1       1.237   3.843  18.568  0.00  0.00    +0.000 NA
ATOM     10  C   UNL     1       2.484   4.354  18.364  0.00  0.00    +0.000 A 
BRANCH  10  11
ATOM     11  O   UNL     1       2.562   5.718  18.158  0.00  0.00    +0.000 OA
BRANCH  11  12
ATOM     12  C   UNL     1       2.798   6.444  19.373  0.00  0.00    +0.000 C 
BRANCH  12  13
ATOM     13  C   UNL     1       2.091   7.782  19.399  0.00  0.00    +0.000 A 
ATOM     14  C   UNL     1       1.344   8.232  20.495  0.00  0.00    +0.000 A 
ATOM     15  C   UNL     1       0.687   9.466  20.445  0.00  0.00    +0.000 A 
ATOM     16  C   UNL     1       0.760  10.262  19.300  0.00  0.00    +0.000 A 
ATOM     17  C   UNL     1       1.489   9.821  18.200  0.00  0.00    +0.000 A 
ATOM     18  C   UNL     1       2.139   8.592  18.256  0.00  0.00    +0.000 A 
ATOM     19  F   UNL     1       2.826   8.182  17.179  0.00  0.00    +0.000 F 
ENDBRANCH  12  13
ENDBRANCH  11  12
ENDBRANCH  10  11
ENDBRANCH   2   5
BRANCH   3  20
ATOM     20  O   UNL     1       7.022   4.707  18.949  0.00  0.00    +0.000 OA
ATOM     21  H   UNL     1       7.102   5.326  19.697  0.00  0.00    +0.000 HD
ENDBRANCH   3  20
BRANCH   1  22
ATOM     22  C   UNL     1       6.775   4.333  16.276  0.00  0.00    +0.000 C 
BRANCH  22  29
ATOM     23  C   UNL     1       5.307   2.484  11.797  0.00  0.00    +0.000 C 
ATOM     24  C   UNL     1       6.094   3.484  12.594  0.00  0.00    +0.000 A 
ATOM     25  C   UNL     1       6.933   4.403  11.951  0.00  0.00    +0.000 A 
ATOM     26  C   UNL     1       7.689   5.320  12.690  0.00  0.00    +0.000 A 
ATOM     27  C   UNL     1       8.608   6.289  12.004  0.00  0.00    +0.000 C 
ATOM     28  C   UNL     1       7.601   5.311  14.090  0.00  0.00    +0.000 A 
ATOM     29  C   UNL     1       6.787   4.385  14.758  0.00  0.00    +0.000 A 
ATOM     30  C   UNL     1       6.020   3.486  13.996  0.00  0.00    +0.000 A 
ENDBRANCH  22  29
ENDBRANCH   1  22
TORSDOF 7
ENDMDL
MODEL 6
REMARK VINA RESULT:      -8.3      4.460      7.559
REMARK  Name = 
REMARK  9 active torsions:
REMARK  status: ('A' for Active; 'I' for Inactive)
REMARK    1  A    between atoms: C_1  and  C_2
REMARK    2  A    between atoms: C_4  and  C_5
REMARK    3  A    between atoms: C_7  and  C_8
REMARK    4  A    between atoms: C_8  and  N_9
REMARK    5  A    between atoms: C_10  and  C_13
REMARK    6  A    between atoms: N_11  and  O_12
REMARK    7  A    between atoms: C_18  and  O_19
REMARK    8  A    between atoms: O_19  and  C_20
REMARK    9  A    between atoms: C_20  and  C_21
REMARK                            x       y       z     vdW  Elec       q    Type
REMARK                         _______ _______ _______ _____ _____    ______ ____
ROOT
ATOM      1  N   UNL     1       1.134   9.392  18.697  0.00  0.00    +0.000 N 
ATOM      2  C   UNL     1       1.065  10.605  19.375  0.00  0.00    +0.000 C 
ATOM      3  N   UNL     1       1.619  11.734  19.039  0.00  0.00    +0.000 NA
ATOM      4  H   UNL     1       0.358   8.749  18.777  0.00  0.00    +0.000 HD
ENDROOT
BRANCH   2   5
ATOM      5  C   UNL     1       0.289  10.606  20.675  0.00  0.00    +0.000 A 
ATOM      6  C   UNL     1       0.686   9.710  21.683  0.00  0.00    +0.000 A 
ATOM      7  C   UNL     1       0.030   9.686  22.909  0.00  0.00    +0.000 A 
ATOM      8  C   UNL     1      -1.004  10.577  23.106  0.00  0.00    +0.000 A 
ATOM      9  N   UNL     1      -1.407  11.466  22.177  0.00  0.00    +0.000 NA
ATOM     10  C   UNL     1      -0.760  11.483  20.978  0.00  0.00    +0.000 A 
BRANCH  10  11
ATOM     11  O   UNL     1      -1.252  12.359  20.028  0.00  0.00    +0.000 OA
BRANCH  11  12
ATOM     12  C   UNL     1      -2.664  12.205  19.820  0.00  0.00    +0.000 C 
BRANCH  12  13
ATOM     13  C   UNL     1      -2.993  11.630  18.459  0.00  0.00    +0.000 A 
ATOM     14  C   UNL     1      -2.041  11.006  17.643  0.00  0.00    +0.000 A 
ATOM     15  C   UNL     1      -2.401  10.523  16.380  0.00  0.00    +0.000 A 
ATOM     16  C   UNL     1      -3.710  10.663  15.913  0.00  0.00    +0.000 A 
ATOM     17  C   UNL     1      -4.660  11.292  16.711  0.00  0.00    +0.000 A 
ATOM     18  C   UNL     1      -4.297  11.771  17.965  0.00  0.00    +0.000 A 
ATOM     19  F   UNL     1      -5.228  12.385  18.711  0.00  0.00    +0.000 F 
ENDBRANCH  12  13
ENDBRANCH  11  12
ENDBRANCH  10  11
ENDBRANCH   2   5
BRANCH   3  20
ATOM     20  O   UNL     1       2.257  11.698  17.798  0.00  0.00    +0.000 OA
ATOM     21  H   UNL     1       2.745  10.856  17.849  0.00  0.00    +0.000 HD
ENDBRANCH   3  20
BRANCH   1  22
ATOM     22  C   UNL     1       2.177   8.989  17.781  0.00  0.00    +0.000 C 
BRANCH  22  29
ATOM     23  C   UNL     1       5.402   5.172  16.965  0.00  0.00    +0.000 C 
ATOM     24  C   UNL     1       4.325   5.807  17.798  0.00  0.00    +0.000 A 
ATOM     25  C   UNL     1       3.790   5.132  18.902  0.00  0.00    +0.000 A 
ATOM     26  C   UNL     1       2.768   5.708  19.665  0.00  0.00    +0.000 A 
ATOM     27  C   UNL     1       2.176   4.976  20.835  0.00  0.00    +0.000 C 
ATOM     28  C   UNL     1       2.279   6.974  19.314  0.00  0.00    +0.000 A 
ATOM     29  C   UNL     1       2.781   7.660  18.197  0.00  0.00    +0.000 A 
ATOM     30  C   UNL     1       3.822   7.072  17.456  0.00  0.00    +0.000 A 
ENDBRANCH  22  29
ENDBRANCH   1  22
TORSDOF 7
ENDMDL
MODEL 7
REMARK VINA RESULT:      -8.2      3.164      7.212
REMARK  Name = 
REMARK  9 active torsions:
REMARK  status: ('A' for Active; 'I' for Inactive)
REMARK    1  A    between atoms: C_1  and  C_2
REMARK    2  A    between atoms: C_4  and  C_5
REMARK    3  A    between atoms: C_7  and  C_8
REMARK    4  A    between atoms: C_8  and  N_9
REMARK    5  A    between atoms: C_10  and  C_13
REMARK    6  A    between atoms: N_11  and  O_12
REMARK    7  A    between atoms: C_18  and  O_19
REMARK    8  A    between atoms: O_19  and  C_20
REMARK    9  A    between atoms: C_20  and  C_21
REMARK                            x       y       z     vdW  Elec       q    Type
REMARK                         _______ _______ _______ _____ _____    ______ ____
ROOT
ATOM      1  N   UNL     1       1.932   7.257  18.373  0.00  0.00    +0.000 N 
ATOM      2  C   UNL     1       1.945   6.397  19.467  0.00  0.00    +0.000 C 
ATOM      3  N   UNL     1       2.010   6.716  20.727  0.00  0.00    +0.000 NA
ATOM      4  H   UNL     1       1.451   6.964  17.533  0.00  0.00    +0.000 HD
ENDROOT
BRANCH   2   5
ATOM      5  C   UNL     1       1.921   4.915  19.157  0.00  0.00    +0.000 A 
ATOM      6  C   UNL     1       1.139   4.081  19.976  0.00  0.00    +0.000 A 
ATOM      7  C   UNL     1       1.053   2.717  19.721  0.00  0.00    +0.000 A 
ATOM      8  C   UNL     1       1.742   2.217  18.636  0.00  0.00    +0.000 A 
ATOM      9  N   UNL     1       2.488   2.979  17.813  0.00  0.00    +0.000 NA
ATOM     10  C   UNL     1       2.568   4.315  18.069  0.00  0.00    +0.000 A 
BRANCH  10  11
ATOM     11  O   UNL     1       3.402   5.048  17.245  0.00  0.00    +0.000 OA
BRANCH  11  12
ATOM     12  C   UNL     1       4.673   4.413  17.045  0.00  0.00    +0.000 C 
BRANCH  12  13
ATOM     13  C   UNL     1       5.830   5.259  17.532  0.00  0.00    +0.000 A 
ATOM     14  C   UNL     1       6.589   4.937  18.664  0.00  0.00    +0.000 A 
ATOM     15  C   UNL     1       7.627   5.778  19.082  0.00  0.00    +0.000 A 
ATOM     16  C   UNL     1       7.914   6.952  18.382  0.00  0.00    +0.000 A 
ATOM     17  C   UNL     1       7.158   7.287  17.262  0.00  0.00    +0.000 A 
ATOM     18  C   UNL     1       6.128   6.448  16.853  0.00  0.00    +0.000 A 
ATOM     19  F   UNL     1       5.405   6.798  15.778  0.00  0.00    +0.000 F 
ENDBRANCH  12  13
ENDBRANCH  11  12
ENDBRANCH  10  11
ENDBRANCH   2   5
BRANCH   3  20
ATOM     20  O   UNL     1       1.953   8.091  20.960  0.00  0.00    +0.000 OA
ATOM     21  H   UNL     1       2.150   8.452  20.077  0.00  0.00    +0.000 HD
ENDBRANCH   3  20
BRANCH   1  22
ATOM     22  C   UNL     1       2.454   8.604  18.346  0.00  0.00    +0.000 C 
BRANCH  22  29
ATOM     23  C   UNL     1       0.607  13.139  19.634  0.00  0.00    +0.000 C 
ATOM     24  C   UNL     1       0.427  11.804  18.968  0.00  0.00    +0.000 A 
ATOM     25  C   UNL     1      -0.813  11.442  18.427  0.00  0.00    +0.000 A 
ATOM     26  C   UNL     1      -0.993  10.190  17.829  0.00  0.00    +0.000 A 
ATOM     27  C   UNL     1      -2.328   9.789  17.270  0.00  0.00    +0.000 C 
ATOM     28  C   UNL     1       0.084   9.293  17.777  0.00  0.00    +0.000 A 
ATOM     29  C   UNL     1       1.329   9.623  18.334  0.00  0.00    +0.000 A 
ATOM     30  C   UNL     1       1.494  10.894  18.911  0.00  0.00    +0.000 A 
ENDBRANCH  22  29
ENDBRANCH   1  22
TORSDOF 7
ENDMDL
MODEL 8
REMARK VINA RESULT:      -8.2      2.422      6.426
REMARK  Name = 
REMARK  9 active torsions:
REMARK  status: ('A' for Active; 'I' for Inactive)
REMARK    1  A    between atoms: C_1  and  C_2
REMARK    2  A    between atoms: C_4  and  C_5
REMARK    3  A    between atoms: C_7  and  C_8
REMARK    4  A    between atoms: C_8  and  N_9
REMARK    5  A    between atoms: C_10  and  C_13
REMARK    6  A    between atoms: N_11  and  O_12
REMARK    7  A    between atoms: C_18  and  O_19
REMARK    8  A    between atoms: O_19  and  C_20
REMARK    9  A    between atoms: C_20  and  C_21
REMARK                            x       y       z     vdW  Elec       q    Type
REMARK                         _______ _______ _______ _____ _____    ______ ____
ROOT
ATOM      1  N   UNL     1       6.715   4.817  17.658  0.00  0.00    +0.000 N 
ATOM      2  C   UNL     1       7.005   5.582  16.532  0.00  0.00    +0.000 C 
ATOM      3  N   UNL     1       7.532   6.772  16.495  0.00  0.00    +0.000 NA
ATOM      4  H   UNL     1       6.740   3.809  17.578  0.00  0.00    +0.000 HD
ENDROOT
BRANCH   2   5
ATOM      5  C   UNL     1       6.629   4.979  15.195  0.00  0.00    +0.000 A 
ATOM      6  C   UNL     1       7.586   5.006  14.166  0.00  0.00    +0.000 A 
ATOM      7  C   UNL     1       7.310   4.440  12.926  0.00  0.00    +0.000 A 
ATOM      8  C   UNL     1       6.079   3.841  12.748  0.00  0.00    +0.000 A 
ATOM      9  N   UNL     1       5.139   3.775  13.711  0.00  0.00    +0.000 NA
ATOM     10  C   UNL     1       5.417   4.333  14.923  0.00  0.00    +0.000 A 
BRANCH  10  11
ATOM     11  O   UNL     1       4.398   4.307  15.857  0.00  0.00    +0.000 OA
BRANCH  11  12
ATOM     12  C   UNL     1       4.379   3.087  16.613  0.00  0.00    +0.000 C 
BRANCH  12  13
ATOM     13  C   UNL     1       3.080   2.888  17.364  0.00  0.00    +0.000 A 
ATOM     14  C   UNL     1       1.960   3.712  17.187  0.00  0.00    +0.000 A 
ATOM     15  C   UNL     1       0.797   3.496  17.935  0.00  0.00    +0.000 A 
ATOM     16  C   UNL     1       0.740   2.462  18.873  0.00  0.00    +0.000 A 
ATOM     17  C   UNL     1       1.850   1.645  19.065  0.00  0.00    +0.000 A 
ATOM     18  C   UNL     1       3.003   1.866  18.319  0.00  0.00    +0.000 A 
ATOM     19  F   UNL     1       4.064   1.073  18.531  0.00  0.00    +0.000 F 
ENDBRANCH  12  13
ENDBRANCH  11  12
ENDBRANCH  10  11
ENDBRANCH   2   5
BRANCH   3  20
ATOM     20  O   UNL     1       7.929   7.247  17.746  0.00  0.00    +0.000 OA
ATOM     21  H   UNL     1       8.269   6.438  18.169  0.00  0.00    +0.000 HD
ENDBRANCH   3  20
BRANCH   1  22
ATOM     22  C   UNL     1       6.482   5.323  18.992  0.00  0.00    +0.000 C 
BRANCH  22  29
ATOM     23  C   UNL     1       1.990   4.542  21.192  0.00  0.00    +0.000 C 
ATOM     24  C   UNL     1       2.849   5.313  20.231  0.00  0.00    +0.000 A 
ATOM     25  C   UNL     1       2.291   6.311  19.423  0.00  0.00    +0.000 A 
ATOM     26  C   UNL     1       3.081   7.014  18.507  0.00  0.00    +0.000 A 
ATOM     27  C   UNL     1       2.480   8.067  17.621  0.00  0.00    +0.000 C 
ATOM     28  C   UNL     1       4.446   6.710  18.402  0.00  0.00    +0.000 A 
ATOM     29  C   UNL     1       5.024   5.698  19.184  0.00  0.00    +0.000 A 
ATOM     30  C   UNL     1       4.216   5.018  20.112  0.00  0.00    +0.000 A 
ENDBRANCH  22  29
ENDBRANCH   1  22
TORSDOF 7
ENDMDL
MODEL 9
REMARK VINA RESULT:      -8.2      3.003      7.256
REMARK  Name = 
REMARK  9 active torsions:
REMARK  status: ('A' for Active; 'I' for Inactive)
REMARK    1  A    between atoms: C_1  and  C_2
REMARK    2  A    between atoms: C_4  and  C_5
REMARK    3  A    between atoms: C_7  and  C_8
REMARK    4  A    between atoms: C_8  and  N_9
REMARK    5  A    between atoms: C_10  and  C_13
REMARK    6  A    between atoms: N_11  and  O_12
REMARK    7  A    between atoms: C_18  and  O_19
REMARK    8  A    between atoms: O_19  and  C_20
REMARK    9  A    between atoms: C_20  and  C_21
REMARK                            x       y       z     vdW  Elec       q    Type
REMARK                         _______ _______ _______ _____ _____    ______ ____
ROOT
ATOM      1  N   UNL     1       1.837   7.218  18.546  0.00  0.00    +0.000 N 
ATOM      2  C   UNL     1       1.935   6.269  19.559  0.00  0.00    +0.000 C 
ATOM      3  N   UNL     1       2.025   6.482  20.840  0.00  0.00    +0.000 NA
ATOM      4  H   UNL     1       1.343   6.971  17.698  0.00  0.00    +0.000 HD
ENDROOT
BRANCH   2   5
ATOM      5  C   UNL     1       1.980   4.820  19.121  0.00  0.00    +0.000 A 
ATOM      6  C   UNL     1       1.282   3.875  19.892  0.00  0.00    +0.000 A 
ATOM      7  C   UNL     1       1.262   2.534  19.522  0.00  0.00    +0.000 A 
ATOM      8  C   UNL     1       1.930   2.171  18.372  0.00  0.00    +0.000 A 
ATOM      9  N   UNL     1       2.596   3.044  17.592  0.00  0.00    +0.000 NA
ATOM     10  C   UNL     1       2.612   4.356  17.961  0.00  0.00    +0.000 A 
BRANCH  10  11
ATOM     11  O   UNL     1       3.367   5.205  17.173  0.00  0.00    +0.000 OA
BRANCH  11  12
ATOM     12  C   UNL     1       4.642   4.644  16.828  0.00  0.00    +0.000 C 
BRANCH  12  13
ATOM     13  C   UNL     1       5.796   5.388  17.463  0.00  0.00    +0.000 A 
ATOM     14  C   UNL     1       6.511   6.397  16.805  0.00  0.00    +0.000 A 
ATOM     15  C   UNL     1       7.591   7.027  17.436  0.00  0.00    +0.000 A 
ATOM     16  C   UNL     1       7.974   6.652  18.726  0.00  0.00    +0.000 A 
ATOM     17  C   UNL     1       7.279   5.643  19.385  0.00  0.00    +0.000 A 
ATOM     18  C   UNL     1       6.208   5.021  18.752  0.00  0.00    +0.000 A 
ATOM     19  F   UNL     1       5.560   4.042  19.403  0.00  0.00    +0.000 F 
ENDBRANCH  12  13
ENDBRANCH  11  12
ENDBRANCH  10  11
ENDBRANCH   2   5
BRANCH   3  20
ATOM     20  O   UNL     1       1.902   7.827  21.194  0.00  0.00    +0.000 OA
ATOM     21  H   UNL     1       1.416   8.190  20.432  0.00  0.00    +0.000 HD
ENDBRANCH   3  20
BRANCH   1  22
ATOM     22  C   UNL     1       2.284   8.590  18.621  0.00  0.00    +0.000 C 
BRANCH  22  29
ATOM     23  C   UNL     1      -0.174  12.557  20.584  0.00  0.00    +0.000 C 
ATOM     24  C   UNL     1      -0.093  11.451  19.572  0.00  0.00    +0.000 A 
ATOM     25  C   UNL     1      -1.153  11.220  18.686  0.00  0.00    +0.000 A 
ATOM     26  C   UNL     1      -1.094  10.174  17.759  0.00  0.00    +0.000 A 
ATOM     27  C   UNL     1      -2.239   9.909  16.824  0.00  0.00    +0.000 C 
ATOM     28  C   UNL     1       0.041   9.351  17.723  0.00  0.00    +0.000 A 
ATOM     29  C   UNL     1       1.105   9.546  18.617  0.00  0.00    +0.000 A 
ATOM     30  C   UNL     1       1.034  10.616  19.526  0.00  0.00    +0.000 A 
ENDBRANCH  22  29
ENDBRANCH   1  22
TORSDOF 7
ENDMDL
