MODEL 1
REMARK VINA RESULT:      -7.0      0.000      0.000
REMARK  Name = 
REMARK  7 active torsions:
REMARK  status: ('A' for Active; 'I' for Inactive)
REMARK    1  A    between atoms: C_1  and  C_2
REMARK    2  A    between atoms: C_5  and  N_6
REMARK    3  A    between atoms: N_7  and  C_8
REMARK    4  A    between atoms: C_8  and  S_10
REMARK    5  A    between atoms: C_11  and  O_12
REMARK    6  A    between atoms: N_13  and  C_14
REMARK    7  A    between atoms: C_14  and  N_15
REMARK                            x       y       z     vdW  Elec       q    Type
REMARK                         _______ _______ _______ _____ _____    ______ ____
ROOT
ATOM      1  C   UNL     1       0.810   3.955  20.311  0.00  0.00    +0.000 C 
ATOM      2  C   UNL     1       1.965   4.192  19.379  0.00  0.00    +0.000 A 
ATOM      3  C   UNL     1       2.269   5.512  19.000  0.00  0.00    +0.000 A 
ATOM      4  C   UNL     1       3.329   5.779  18.105  0.00  0.00    +0.000 A 
ATOM      5  C   UNL     1       3.885   6.960  17.551  0.00  0.00    +0.000 A 
ATOM      6  C   UNL     1       4.923   6.613  16.711  0.00  0.00    +0.000 A 
ATOM      7  N   UNL     1       5.016   5.236  16.728  0.00  0.00    +0.000 N 
ATOM      8  C   UNL     1       4.071   4.709  17.597  0.00  0.00    +0.000 A 
ATOM      9  C   UNL     1       3.802   3.383  17.975  0.00  0.00    +0.000 A 
ATOM     10  C   UNL     1       2.744   3.146  18.866  0.00  0.00    +0.000 A 
ATOM     11 BR   UNL     1       2.413   1.332  19.340  0.00  0.00    +0.000 Br
ENDROOT
BRANCH   5  12
ATOM     12  N   UNL     1       3.393   8.245  17.829  0.00  0.00    +0.000 NA
ATOM     13  N   UNL     1       2.146   8.333  17.787  0.00  0.00    +0.000 NA
BRANCH  13  14
ATOM     14  C   UNL     1       1.704   9.605  18.061  0.00  0.00    +0.000 C 
ATOM     15  N   UNL     1       2.167  10.648  17.460  0.00  0.00    +0.000 NA
ATOM     16  H   UNL     1       2.854  10.306  16.779  0.00  0.00    +0.000 HD
BRANCH  14  17
ATOM     17  S   UNL     1       0.504   9.818  19.309  0.00  0.00    +0.000 S 
ATOM     18  H   UNL     1      -0.476  10.214  18.490  0.00  0.00    +0.000 HD
ENDBRANCH  14  17
ENDBRANCH  13  14
ENDBRANCH   5  12
BRANCH   6  19
ATOM     19  O   UNL     1       5.746   7.355  15.976  0.00  0.00    +0.000 OA
ATOM     20  H   UNL     1       6.468   6.761  15.695  0.00  0.00    +0.000 HD
ENDBRANCH   6  19
BRANCH   7  21
ATOM     21  C   UNL     1       6.067   4.472  16.047  0.00  0.00    +0.000 C 
BRANCH  21  22
ATOM     22  N   UNL     1       6.065   4.722  14.585  0.00  0.00    +0.000 NA
ATOM     23  C   UNL     1       7.424   5.009  14.095  0.00  0.00    +0.000 C 
ATOM     24  C   UNL     1       7.523   5.069  12.567  0.00  0.00    +0.000 C 
ATOM     25  C   UNL     1       6.957   3.817  11.914  0.00  0.00    +0.000 C 
ATOM     26  C   UNL     1       5.540   3.573  12.408  0.00  0.00    +0.000 C 
ATOM     27  C   UNL     1       5.487   3.531  13.934  0.00  0.00    +0.000 C 
ENDBRANCH  21  22
ENDBRANCH   7  21
TORSDOF 6
ENDMDL
MODEL 2
REMARK VINA RESULT:      -6.9      3.496      6.532
REMARK  Name = 
REMARK  7 active torsions:
REMARK  status: ('A' for Active; 'I' for Inactive)
REMARK    1  A    between atoms: C_1  and  C_2
REMARK    2  A    between atoms: C_5  and  N_6
REMARK    3  A    between atoms: N_7  and  C_8
REMARK    4  A    between atoms: C_8  and  S_10
REMARK    5  A    between atoms: C_11  and  O_12
REMARK    6  A    between atoms: N_13  and  C_14
REMARK    7  A    between atoms: C_14  and  N_15
REMARK                            x       y       z     vdW  Elec       q    Type
REMARK                         _______ _______ _______ _____ _____    ______ ____
ROOT
ATOM      1  C   UNL     1       8.099   5.356  12.801  0.00  0.00    +0.000 C 
ATOM      2  C   UNL     1       7.238   5.005  13.980  0.00  0.00    +0.000 A 
ATOM      3  C   UNL     1       7.479   5.647  15.209  0.00  0.00    +0.000 A 
ATOM      4  C   UNL     1       6.710   5.327  16.351  0.00  0.00    +0.000 A 
ATOM      5  C   UNL     1       6.691   5.786  17.693  0.00  0.00    +0.000 A 
ATOM      6  C   UNL     1       5.717   5.098  18.386  0.00  0.00    +0.000 A 
ATOM      7  N   UNL     1       5.135   4.214  17.499  0.00  0.00    +0.000 N 
ATOM      8  C   UNL     1       5.707   4.360  16.243  0.00  0.00    +0.000 A 
ATOM      9  C   UNL     1       5.432   3.720  15.023  0.00  0.00    +0.000 A 
ATOM     10  C   UNL     1       6.209   4.056  13.904  0.00  0.00    +0.000 A 
ATOM     11 BR   UNL     1       5.805   3.155  12.277  0.00  0.00    +0.000 Br
ENDROOT
BRANCH   5  12
ATOM     12  N   UNL     1       7.570   6.764  18.183  0.00  0.00    +0.000 NA
ATOM     13  N   UNL     1       7.359   7.911  17.729  0.00  0.00    +0.000 NA
BRANCH  13  14
ATOM     14  C   UNL     1       8.241   8.839  18.230  0.00  0.00    +0.000 C 
ATOM     15  N   UNL     1       9.072   8.570  19.178  0.00  0.00    +0.000 NA
ATOM     16  H   UNL     1       8.933   7.581  19.411  0.00  0.00    +0.000 HD
BRANCH  14  17
ATOM     17  S   UNL     1       8.197  10.460  17.587  0.00  0.00    +0.000 S 
ATOM     18  H   UNL     1       6.950  10.382  17.107  0.00  0.00    +0.000 HD
ENDBRANCH  14  17
ENDBRANCH  13  14
ENDBRANCH   5  12
BRANCH   6  19
ATOM     19  O   UNL     1       5.317   5.174  19.651  0.00  0.00    +0.000 OA
ATOM     20  H   UNL     1       5.825   5.905  20.053  0.00  0.00    +0.000 HD
ENDBRANCH   6  19
BRANCH   7  21
ATOM     21  C   UNL     1       3.979   3.369  17.816  0.00  0.00    +0.000 C 
BRANCH  21  22
ATOM     22  N   UNL     1       3.375   3.734  19.120  0.00  0.00    +0.000 NA
ATOM     23  C   UNL     1       2.003   4.243  18.945  0.00  0.00    +0.000 C 
ATOM     24  C   UNL     1       1.251   4.439  20.266  0.00  0.00    +0.000 C 
ATOM     25  C   UNL     1       1.264   3.178  21.117  0.00  0.00    +0.000 C 
ATOM     26  C   UNL     1       2.695   2.703  21.313  0.00  0.00    +0.000 C 
ATOM     27  C   UNL     1       3.409   2.531  19.974  0.00  0.00    +0.000 C 
ENDBRANCH  21  22
ENDBRANCH   7  21
TORSDOF 6
ENDMDL
MODEL 3
REMARK VINA RESULT:      -6.7      8.389     10.864
REMARK  Name = 
REMARK  7 active torsions:
REMARK  status: ('A' for Active; 'I' for Inactive)
REMARK    1  A    between atoms: C_1  and  C_2
REMARK    2  A    between atoms: C_5  and  N_6
REMARK    3  A    between atoms: N_7  and  C_8
REMARK    4  A    between atoms: C_8  and  S_10
REMARK    5  A    between atoms: C_11  and  O_12
REMARK    6  A    between atoms: N_13  and  C_14
REMARK    7  A    between atoms: C_14  and  N_15
REMARK                            x       y       z     vdW  Elec       q    Type
REMARK                         _______ _______ _______ _____ _____    ______ ____
ROOT
ATOM      1  C   UNL     1      -7.797  13.101  18.238  0.00  0.00    +0.000 C 
ATOM      2  C   UNL     1      -6.345  12.761  18.423  0.00  0.00    +0.000 A 
ATOM      3  C   UNL     1      -5.673  12.080  17.390  0.00  0.00    +0.000 A 
ATOM      4  C   UNL     1      -4.315  11.717  17.532  0.00  0.00    +0.000 A 
ATOM      5  C   UNL     1      -3.373  11.058  16.701  0.00  0.00    +0.000 A 
ATOM      6  C   UNL     1      -2.173  10.964  17.375  0.00  0.00    +0.000 A 
ATOM      7  N   UNL     1      -2.355  11.547  18.613  0.00  0.00    +0.000 N 
ATOM      8  C   UNL     1      -3.648  12.040  18.717  0.00  0.00    +0.000 A 
ATOM      9  C   UNL     1      -4.290  12.737  19.755  0.00  0.00    +0.000 A 
ATOM     10  C   UNL     1      -5.638  13.087  19.588  0.00  0.00    +0.000 A 
ATOM     11 BR   UNL     1      -6.466  14.022  21.025  0.00  0.00    +0.000 Br
ENDROOT
BRANCH   5  12
ATOM     12  N   UNL     1      -3.683  10.575  15.420  0.00  0.00    +0.000 NA
ATOM     13  N   UNL     1      -2.682  10.280  14.731  0.00  0.00    +0.000 NA
BRANCH  13  14
ATOM     14  C   UNL     1      -3.026   9.816  13.484  0.00  0.00    +0.000 C 
ATOM     15  N   UNL     1      -2.152   9.522  12.584  0.00  0.00    +0.000 NA
ATOM     16  H   UNL     1      -1.233   9.682  13.011  0.00  0.00    +0.000 HD
BRANCH  14  17
ATOM     17  S   UNL     1      -4.719   9.667  13.092  0.00  0.00    +0.000 S 
ATOM     18  H   UNL     1      -5.025  10.950  13.316  0.00  0.00    +0.000 HD
ENDBRANCH  14  17
ENDBRANCH  13  14
ENDBRANCH   5  12
BRANCH   6  19
ATOM     19  O   UNL     1      -1.002  10.445  17.019  0.00  0.00    +0.000 OA
ATOM     20  H   UNL     1      -0.586  10.125  17.842  0.00  0.00    +0.000 HD
ENDBRANCH   6  19
BRANCH   7  21
ATOM     21  C   UNL     1      -1.285  11.748  19.595  0.00  0.00    +0.000 C 
BRANCH  21  22
ATOM     22  N   UNL     1      -1.298  10.696  20.642  0.00  0.00    +0.000 NA
ATOM     23  C   UNL     1      -0.187   9.747  20.452  0.00  0.00    +0.000 C 
ATOM     24  C   UNL     1      -0.020   8.763  21.615  0.00  0.00    +0.000 C 
ATOM     25  C   UNL     1       0.094   9.481  22.951  0.00  0.00    +0.000 C 
ATOM     26  C   UNL     1      -1.087  10.420  23.134  0.00  0.00    +0.000 C 
ATOM     27  C   UNL     1      -1.222  11.375  21.949  0.00  0.00    +0.000 C 
ENDBRANCH  21  22
ENDBRANCH   7  21
TORSDOF 6
ENDMDL
MODEL 4
REMARK VINA RESULT:      -6.7      7.670     11.446
REMARK  Name = 
REMARK  7 active torsions:
REMARK  status: ('A' for Active; 'I' for Inactive)
REMARK    1  A    between atoms: C_1  and  C_2
REMARK    2  A    between atoms: C_5  and  N_6
REMARK    3  A    between atoms: N_7  and  C_8
REMARK    4  A    between atoms: C_8  and  S_10
REMARK    5  A    between atoms: C_11  and  O_12
REMARK    6  A    between atoms: N_13  and  C_14
REMARK    7  A    between atoms: C_14  and  N_15
REMARK                            x       y       z     vdW  Elec       q    Type
REMARK                         _______ _______ _______ _____ _____    ______ ____
ROOT
ATOM      1  C   UNL     1       1.135   9.434  18.654  0.00  0.00    +0.000 C 
ATOM      2  C   UNL     1      -0.218  10.083  18.577  0.00  0.00    +0.000 A 
ATOM      3  C   UNL     1      -0.969   9.944  17.395  0.00  0.00    +0.000 A 
ATOM      4  C   UNL     1      -2.234  10.560  17.268  0.00  0.00    +0.000 A 
ATOM      5  C   UNL     1      -3.218  10.602  16.248  0.00  0.00    +0.000 A 
ATOM      6  C   UNL     1      -4.273  11.381  16.678  0.00  0.00    +0.000 A 
ATOM      7  N   UNL     1      -3.956  11.830  17.945  0.00  0.00    +0.000 N 
ATOM      8  C   UNL     1      -2.729  11.314  18.336  0.00  0.00    +0.000 A 
ATOM      9  C   UNL     1      -2.009  11.452  19.534  0.00  0.00    +0.000 A 
ATOM     10  C   UNL     1      -0.756  10.829  19.634  0.00  0.00    +0.000 A 
ATOM     11 BR   UNL     1       0.185  11.053  21.274  0.00  0.00    +0.000 Br
ENDROOT
BRANCH   5  12
ATOM     12  N   UNL     1      -3.070   9.958  15.010  0.00  0.00    +0.000 NA
ATOM     13  N   UNL     1      -3.631  10.548  14.060  0.00  0.00    +0.000 NA
BRANCH  13  14
ATOM     14  C   UNL     1      -3.467   9.885  12.867  0.00  0.00    +0.000 C 
ATOM     15  N   UNL     1      -2.321   9.457  12.459  0.00  0.00    +0.000 NA
ATOM     16  H   UNL     1      -1.647   9.692  13.196  0.00  0.00    +0.000 HD
BRANCH  14  17
ATOM     17  S   UNL     1      -4.860   9.661  11.842  0.00  0.00    +0.000 S 
ATOM     18  H   UNL     1      -5.193  10.955  11.778  0.00  0.00    +0.000 HD
ENDBRANCH  14  17
ENDBRANCH  13  14
ENDBRANCH   5  12
BRANCH   6  19
ATOM     19  O   UNL     1      -5.419  11.712  16.092  0.00  0.00    +0.000 OA
ATOM     20  H   UNL     1      -5.667  12.585  16.454  0.00  0.00    +0.000 HD
ENDBRANCH   6  19
BRANCH   7  21
ATOM     21  C   UNL     1      -4.866  12.604  18.796  0.00  0.00    +0.000 C 
BRANCH  21  22
ATOM     22  N   UNL     1      -5.460  11.766  19.867  0.00  0.00    +0.000 NA
ATOM     23  C   UNL     1      -5.990  12.601  20.959  0.00  0.00    +0.000 C 
ATOM     24  C   UNL     1      -6.802  11.811  21.992  0.00  0.00    +0.000 C 
ATOM     25  C   UNL     1      -7.907  10.994  21.339  0.00  0.00    +0.000 C 
ATOM     26  C   UNL     1      -7.321  10.115  20.246  0.00  0.00    +0.000 C 
ATOM     27  C   UNL     1      -6.514  10.940  19.246  0.00  0.00    +0.000 C 
ENDBRANCH  21  22
ENDBRANCH   7  21
TORSDOF 6
ENDMDL
MODEL 5
REMARK VINA RESULT:      -6.7      2.241      3.168
REMARK  Name = 
REMARK  7 active torsions:
REMARK  status: ('A' for Active; 'I' for Inactive)
REMARK    1  A    between atoms: C_1  and  C_2
REMARK    2  A    between atoms: C_5  and  N_6
REMARK    3  A    between atoms: N_7  and  C_8
REMARK    4  A    between atoms: C_8  and  S_10
REMARK    5  A    between atoms: C_11  and  O_12
REMARK    6  A    between atoms: N_13  and  C_14
REMARK    7  A    between atoms: C_14  and  N_15
REMARK                            x       y       z     vdW  Elec       q    Type
REMARK                         _______ _______ _______ _____ _____    ______ ____
ROOT
ATOM      1  C   UNL     1       1.676   2.763  21.645  0.00  0.00    +0.000 C 
ATOM      2  C   UNL     1       2.157   3.802  20.672  0.00  0.00    +0.000 A 
ATOM      3  C   UNL     1       1.715   5.129  20.825  0.00  0.00    +0.000 A 
ATOM      4  C   UNL     1       2.120   6.133  19.918  0.00  0.00    +0.000 A 
ATOM      5  C   UNL     1       1.872   7.524  19.803  0.00  0.00    +0.000 A 
ATOM      6  C   UNL     1       2.533   8.005  18.692  0.00  0.00    +0.000 A 
ATOM      7  N   UNL     1       3.181   6.935  18.109  0.00  0.00    +0.000 N 
ATOM      8  C   UNL     1       2.966   5.787  18.860  0.00  0.00    +0.000 A 
ATOM      9  C   UNL     1       3.439   4.475  18.696  0.00  0.00    +0.000 A 
ATOM     10  C   UNL     1       3.022   3.497  19.612  0.00  0.00    +0.000 A 
ATOM     11 BR   UNL     1       3.682   1.732  19.342  0.00  0.00    +0.000 Br
ENDROOT
BRANCH   5  12
ATOM     12  N   UNL     1       1.052   8.235  20.693  0.00  0.00    +0.000 NA
ATOM     13  N   UNL     1       0.865   9.429  20.371  0.00  0.00    +0.000 NA
BRANCH  13  14
ATOM     14  C   UNL     1       0.061  10.091  21.268  0.00  0.00    +0.000 C 
ATOM     15  N   UNL     1      -0.615  11.142  20.954  0.00  0.00    +0.000 NA
ATOM     16  H   UNL     1      -0.435  11.315  19.959  0.00  0.00    +0.000 HD
BRANCH  14  17
ATOM     17  S   UNL     1      -0.004   9.509  22.911  0.00  0.00    +0.000 S 
ATOM     18  H   UNL     1      -0.853   8.505  22.668  0.00  0.00    +0.000 HD
ENDBRANCH  14  17
ENDBRANCH  13  14
ENDBRANCH   5  12
BRANCH   6  19
ATOM     19  O   UNL     1       2.613   9.228  18.176  0.00  0.00    +0.000 OA
ATOM     20  H   UNL     1       2.742   9.833  18.931  0.00  0.00    +0.000 HD
ENDBRANCH   6  19
BRANCH   7  21
ATOM     21  C   UNL     1       4.086   7.044  16.960  0.00  0.00    +0.000 C 
BRANCH  21  22
ATOM     22  N   UNL     1       4.964   5.855  16.839  0.00  0.00    +0.000 NA
ATOM     23  C   UNL     1       5.072   5.418  15.436  0.00  0.00    +0.000 C 
ATOM     24  C   UNL     1       6.126   4.328  15.215  0.00  0.00    +0.000 C 
ATOM     25  C   UNL     1       7.484   4.732  15.771  0.00  0.00    +0.000 C 
ATOM     26  C   UNL     1       7.344   5.137  17.230  0.00  0.00    +0.000 C 
ATOM     27  C   UNL     1       6.277   6.216  17.405  0.00  0.00    +0.000 C 
ENDBRANCH  21  22
ENDBRANCH   7  21
TORSDOF 6
ENDMDL
MODEL 6
REMARK VINA RESULT:      -6.4      3.561      6.359
REMARK  Name = 
REMARK  7 active torsions:
REMARK  status: ('A' for Active; 'I' for Inactive)
REMARK    1  A    between atoms: C_1  and  C_2
REMARK    2  A    between atoms: C_5  and  N_6
REMARK    3  A    between atoms: N_7  and  C_8
REMARK    4  A    between atoms: C_8  and  S_10
REMARK    5  A    between atoms: C_11  and  O_12
REMARK    6  A    between atoms: N_13  and  C_14
REMARK    7  A    between atoms: C_14  and  N_15
REMARK                            x       y       z     vdW  Elec       q    Type
REMARK                         _______ _______ _______ _____ _____    ______ ____
ROOT
ATOM      1  C   UNL     1       2.026   9.363  17.533  0.00  0.00    +0.000 C 
ATOM      2  C   UNL     1       2.667   8.113  18.065  0.00  0.00    +0.000 A 
ATOM      3  C   UNL     1       3.606   7.439  17.263  0.00  0.00    +0.000 A 
ATOM      4  C   UNL     1       4.213   6.245  17.712  0.00  0.00    +0.000 A 
ATOM      5  C   UNL     1       5.178   5.359  17.169  0.00  0.00    +0.000 A 
ATOM      6  C   UNL     1       5.390   4.329  18.064  0.00  0.00    +0.000 A 
ATOM      7  N   UNL     1       4.568   4.558  19.149  0.00  0.00    +0.000 N 
ATOM      8  C   UNL     1       3.864   5.739  18.968  0.00  0.00    +0.000 A 
ATOM      9  C   UNL     1       2.944   6.403  19.797  0.00  0.00    +0.000 A 
ATOM     10  C   UNL     1       2.357   7.588  19.327  0.00  0.00    +0.000 A 
ATOM     11 BR   UNL     1       1.111   8.445  20.483  0.00  0.00    +0.000 Br
ENDROOT
BRANCH   5  12
ATOM     12  N   UNL     1       5.763   5.538  15.907  0.00  0.00    +0.000 NA
ATOM     13  N   UNL     1       6.165   4.479  15.377  0.00  0.00    +0.000 NA
BRANCH  13  14
ATOM     14  C   UNL     1       6.734   4.697  14.145  0.00  0.00    +0.000 C 
ATOM     15  N   UNL     1       7.635   5.597  13.942  0.00  0.00    +0.000 NA
ATOM     16  H   UNL     1       7.812   6.036  14.852  0.00  0.00    +0.000 HD
BRANCH  14  17
ATOM     17  S   UNL     1       6.176   3.748  12.792  0.00  0.00    +0.000 S 
ATOM     18  H   UNL     1       4.959   4.300  12.730  0.00  0.00    +0.000 HD
ENDBRANCH  14  17
ENDBRANCH  13  14
ENDBRANCH   5  12
BRANCH   6  19
ATOM     19  O   UNL     1       6.194   3.272  18.013  0.00  0.00    +0.000 OA
ATOM     20  H   UNL     1       5.792   2.655  17.372  0.00  0.00    +0.000 HD
ENDBRANCH   6  19
BRANCH   7  21
ATOM     21  C   UNL     1       4.572   3.747  20.371  0.00  0.00    +0.000 C 
BRANCH  21  22
ATOM     22  N   UNL     1       3.369   2.883  20.458  0.00  0.00    +0.000 NA
ATOM     23  C   UNL     1       2.378   3.448  21.391  0.00  0.00    +0.000 C 
ATOM     24  C   UNL     1       1.032   2.717  21.367  0.00  0.00    +0.000 C 
ATOM     25  C   UNL     1       0.466   2.619  19.959  0.00  0.00    +0.000 C 
ATOM     26  C   UNL     1       1.496   1.994  19.032  0.00  0.00    +0.000 C 
ATOM     27  C   UNL     1       2.824   2.747  19.094  0.00  0.00    +0.000 C 
ENDBRANCH  21  22
ENDBRANCH   7  21
TORSDOF 6
ENDMDL
MODEL 7
REMARK VINA RESULT:      -6.4      2.981      6.790
REMARK  Name = 
REMARK  7 active torsions:
REMARK  status: ('A' for Active; 'I' for Inactive)
REMARK    1  A    between atoms: C_1  and  C_2
REMARK    2  A    between atoms: C_5  and  N_6
REMARK    3  A    between atoms: N_7  and  C_8
REMARK    4  A    between atoms: C_8  and  S_10
REMARK    5  A    between atoms: C_11  and  O_12
REMARK    6  A    between atoms: N_13  and  C_14
REMARK    7  A    between atoms: C_14  and  N_15
REMARK                            x       y       z     vdW  Elec       q    Type
REMARK                         _______ _______ _______ _____ _____    ______ ____
ROOT
ATOM      1  C   UNL     1       4.419   1.861  20.389  0.00  0.00    +0.000 C 
ATOM      2  C   UNL     1       3.803   3.164  19.965  0.00  0.00    +0.000 A 
ATOM      3  C   UNL     1       4.454   3.934  18.984  0.00  0.00    +0.000 A 
ATOM      4  C   UNL     1       3.925   5.178  18.575  0.00  0.00    +0.000 A 
ATOM      5  C   UNL     1       4.317   6.161  17.631  0.00  0.00    +0.000 A 
ATOM      6  C   UNL     1       3.408   7.198  17.663  0.00  0.00    +0.000 A 
ATOM      7  N   UNL     1       2.462   6.880  18.616  0.00  0.00    +0.000 N 
ATOM      8  C   UNL     1       2.742   5.637  19.164  0.00  0.00    +0.000 A 
ATOM      9  C   UNL     1       2.061   4.878  20.130  0.00  0.00    +0.000 A 
ATOM     10  C   UNL     1       2.608   3.646  20.517  0.00  0.00    +0.000 A 
ATOM     11 BR   UNL     1       1.653   2.660  21.836  0.00  0.00    +0.000 Br
ENDROOT
BRANCH   5  12
ATOM     12  N   UNL     1       5.473   6.050  16.842  0.00  0.00    +0.000 NA
ATOM     13  N   UNL     1       5.373   5.227  15.906  0.00  0.00    +0.000 NA
BRANCH  13  14
ATOM     14  C   UNL     1       6.525   5.145  15.160  0.00  0.00    +0.000 C 
ATOM     15  N   UNL     1       7.591   5.810  15.449  0.00  0.00    +0.000 NA
ATOM     16  H   UNL     1       7.380   6.334  16.305  0.00  0.00    +0.000 HD
BRANCH  14  17
ATOM     17  S   UNL     1       6.524   4.137  13.737  0.00  0.00    +0.000 S 
ATOM     18  H   UNL     1       6.558   5.143  12.856  0.00  0.00    +0.000 HD
ENDBRANCH  14  17
ENDBRANCH  13  14
ENDBRANCH   5  12
BRANCH   6  19
ATOM     19  O   UNL     1       3.341   8.331  16.969  0.00  0.00    +0.000 OA
ATOM     20  H   UNL     1       2.427   8.387  16.630  0.00  0.00    +0.000 HD
ENDBRANCH   6  19
BRANCH   7  21
ATOM     21  C   UNL     1       1.260   7.678  18.883  0.00  0.00    +0.000 C 
BRANCH  21  22
ATOM     22  N   UNL     1       1.508   8.715  19.913  0.00  0.00    +0.000 NA
ATOM     23  C   UNL     1       0.896   9.999  19.530  0.00  0.00    +0.000 C 
ATOM     24  C   UNL     1       0.935  11.051  20.644  0.00  0.00    +0.000 C 
ATOM     25  C   UNL     1       0.338  10.524  21.940  0.00  0.00    +0.000 C 
ATOM     26  C   UNL     1       1.019   9.222  22.330  0.00  0.00    +0.000 C 
ATOM     27  C   UNL     1       0.966   8.208  21.188  0.00  0.00    +0.000 C 
ENDBRANCH  21  22
ENDBRANCH   7  21
TORSDOF 6
ENDMDL
MODEL 8
REMARK VINA RESULT:      -6.4      8.670     10.476
REMARK  Name = 
REMARK  7 active torsions:
REMARK  status: ('A' for Active; 'I' for Inactive)
REMARK    1  A    between atoms: C_1  and  C_2
REMARK    2  A    between atoms: C_5  and  N_6
REMARK    3  A    between atoms: N_7  and  C_8
REMARK    4  A    between atoms: C_8  and  S_10
REMARK    5  A    between atoms: C_11  and  O_12
REMARK    6  A    between atoms: N_13  and  C_14
REMARK    7  A    between atoms: C_14  and  N_15
REMARK                            x       y       z     vdW  Elec       q    Type
REMARK                         _______ _______ _______ _____ _____    ______ ____
ROOT
ATOM      1  C   UNL     1      -7.195  12.669  17.317  0.00  0.00    +0.000 C 
ATOM      2  C   UNL     1      -5.799  12.295  17.727  0.00  0.00    +0.000 A 
ATOM      3  C   UNL     1      -5.035  11.485  16.866  0.00  0.00    +0.000 A 
ATOM      4  C   UNL     1      -3.728  11.086  17.224  0.00  0.00    +0.000 A 
ATOM      5  C   UNL     1      -2.722  10.308  16.596  0.00  0.00    +0.000 A 
ATOM      6  C   UNL     1      -1.625  10.240  17.430  0.00  0.00    +0.000 A 
ATOM      7  N   UNL     1      -1.935  10.956  18.569  0.00  0.00    +0.000 N 
ATOM      8  C   UNL     1      -3.203  11.506  18.450  0.00  0.00    +0.000 A 
ATOM      9  C   UNL     1      -3.937  12.332  19.318  0.00  0.00    +0.000 A 
ATOM     10  C   UNL     1      -5.232  12.715  18.938  0.00  0.00    +0.000 A 
ATOM     11 BR   UNL     1      -6.189  13.826  20.152  0.00  0.00    +0.000 Br
ENDROOT
BRANCH   5  12
ATOM     12  N   UNL     1      -2.888   9.706  15.340  0.00  0.00    +0.000 NA
ATOM     13  N   UNL     1      -2.932  10.517  14.388  0.00  0.00    +0.000 NA
BRANCH  13  14
ATOM     14  C   UNL     1      -3.100   9.890  13.177  0.00  0.00    +0.000 C 
ATOM     15  N   UNL     1      -2.109   9.475  12.464  0.00  0.00    +0.000 NA
ATOM     16  H   UNL     1      -1.260   9.688  12.999  0.00  0.00    +0.000 HD
BRANCH  14  17
ATOM     17  S   UNL     1      -4.719   9.695  12.559  0.00  0.00    +0.000 S 
ATOM     18  H   UNL     1      -5.323   9.708  13.752  0.00  0.00    +0.000 HD
ENDBRANCH  14  17
ENDBRANCH  13  14
ENDBRANCH   5  12
BRANCH   6  19
ATOM     19  O   UNL     1      -0.446   9.642  17.288  0.00  0.00    +0.000 OA
ATOM     20  H   UNL     1      -0.270   9.185  18.132  0.00  0.00    +0.000 HD
ENDBRANCH   6  19
BRANCH   7  21
ATOM     21  C   UNL     1      -0.992  11.218  19.661  0.00  0.00    +0.000 C 
BRANCH  21  22
ATOM     22  N   UNL     1       0.084  12.150  19.245  0.00  0.00    +0.000 NA
ATOM     23  C   UNL     1      -0.455  13.494  18.976  0.00  0.00    +0.000 C 
ATOM     24  C   UNL     1       0.629  14.552  18.747  0.00  0.00    +0.000 C 
ATOM     25  C   UNL     1       1.640  14.584  19.883  0.00  0.00    +0.000 C 
ATOM     26  C   UNL     1       2.207  13.191  20.107  0.00  0.00    +0.000 C 
ATOM     27  C   UNL     1       1.093  12.168  20.321  0.00  0.00    +0.000 C 
ENDBRANCH  21  22
ENDBRANCH   7  21
TORSDOF 6
ENDMDL
MODEL 9
REMARK VINA RESULT:      -6.4      2.271      3.239
REMARK  Name = 
REMARK  7 active torsions:
REMARK  status: ('A' for Active; 'I' for Inactive)
REMARK    1  A    between atoms: C_1  and  C_2
REMARK    2  A    between atoms: C_5  and  N_6
REMARK    3  A    between atoms: N_7  and  C_8
REMARK    4  A    between atoms: C_8  and  S_10
REMARK    5  A    between atoms: C_11  and  O_12
REMARK    6  A    between atoms: N_13  and  C_14
REMARK    7  A    between atoms: C_14  and  N_15
REMARK                            x       y       z     vdW  Elec       q    Type
REMARK                         _______ _______ _______ _____ _____    ______ ____
ROOT
ATOM      1  C   UNL     1       1.738   2.540  21.212  0.00  0.00    +0.000 C 
ATOM      2  C   UNL     1       2.217   3.577  20.237  0.00  0.00    +0.000 A 
ATOM      3  C   UNL     1       1.933   4.931  20.495  0.00  0.00    +0.000 A 
ATOM      4  C   UNL     1       2.341   5.938  19.591  0.00  0.00    +0.000 A 
ATOM      5  C   UNL     1       2.227   7.351  19.565  0.00  0.00    +0.000 A 
ATOM      6  C   UNL     1       2.812   7.824  18.408  0.00  0.00    +0.000 A 
ATOM      7  N   UNL     1       3.280   6.728  17.712  0.00  0.00    +0.000 N 
ATOM      8  C   UNL     1       3.030   5.568  18.433  0.00  0.00    +0.000 A 
ATOM      9  C   UNL     1       3.344   4.226  18.161  0.00  0.00    +0.000 A 
ATOM     10  C   UNL     1       2.929   3.247  19.075  0.00  0.00    +0.000 A 
ATOM     11 BR   UNL     1       3.370   1.442  18.659  0.00  0.00    +0.000 Br
ENDROOT
BRANCH   5  12
ATOM     12  N   UNL     1       1.584   8.090  20.570  0.00  0.00    +0.000 NA
ATOM     13  N   UNL     1       1.298   9.261  20.237  0.00  0.00    +0.000 NA
BRANCH  13  14
ATOM     14  C   UNL     1       0.674   9.952  21.248  0.00  0.00    +0.000 C 
ATOM     15  N   UNL     1       0.994   9.812  22.489  0.00  0.00    +0.000 NA
ATOM     16  H   UNL     1       1.772   9.143  22.512  0.00  0.00    +0.000 HD
BRANCH  14  17
ATOM     17  S   UNL     1      -0.638  11.024  20.836  0.00  0.00    +0.000 S 
ATOM     18  H   UNL     1      -1.576  10.072  20.764  0.00  0.00    +0.000 HD
ENDBRANCH  14  17
ENDBRANCH  13  14
ENDBRANCH   5  12
BRANCH   6  19
ATOM     19  O   UNL     1       2.962   9.059  17.939  0.00  0.00    +0.000 OA
ATOM     20  H   UNL     1       2.213   9.211  17.330  0.00  0.00    +0.000 HD
ENDBRANCH   6  19
BRANCH   7  21
ATOM     21  C   UNL     1       4.064   6.810  16.475  0.00  0.00    +0.000 C 
BRANCH  21  22
ATOM     22  N   UNL     1       5.502   6.543  16.719  0.00  0.00    +0.000 NA
ATOM     23  C   UNL     1       5.787   6.458  18.162  0.00  0.00    +0.000 C 
ATOM     24  C   UNL     1       7.208   5.977  18.477  0.00  0.00    +0.000 C 
ATOM     25  C   UNL     1       7.531   4.667  17.775  0.00  0.00    +0.000 C 
ATOM     26  C   UNL     1       7.266   4.801  16.284  0.00  0.00    +0.000 C 
ATOM     27  C   UNL     1       5.844   5.291  16.017  0.00  0.00    +0.000 C 
ENDBRANCH  21  22
ENDBRANCH   7  21
TORSDOF 6
ENDMDL
