MODEL 1
REMARK VINA RESULT:      -6.7      0.000      0.000
REMARK  Name = 
REMARK  1 active torsions:
REMARK  status: ('A' for Active; 'I' for Inactive)
REMARK    1  A    between atoms: N_14  and  O_15
REMARK                            x       y       z     vdW  Elec       q    Type
REMARK                         _______ _______ _______ _____ _____    ______ ____
ROOT
ATOM      1  O   UNL     1      -2.401  11.116  15.857  0.00  0.00    +0.000 OA
ATOM      2  C   UNL     1      -2.659  10.368  16.797  0.00  0.00    +0.000 C 
ATOM      3  C   UNL     1      -4.036  10.158  17.371  0.00  0.00    +0.000 C 
ATOM      4  C   UNL     1      -4.481  11.441  18.072  0.00  0.00    +0.000 C 
ATOM      5  C   UNL     1      -5.788  11.264  18.837  0.00  0.00    +0.000 C 
ATOM      6  C   UNL     1      -6.143  12.488  19.695  0.00  0.00    +0.000 C 
ATOM      7  C   UNL     1      -5.688  12.376  21.156  0.00  0.00    +0.000 C 
ATOM      8  C   UNL     1      -4.279  12.918  21.395  0.00  0.00    +0.000 C 
ATOM      9  C   UNL     1      -3.888  12.810  22.869  0.00  0.00    +0.000 C 
ATOM     10  C   UNL     1      -2.475  13.339  23.153  0.00  0.00    +0.000 C 
ATOM     11  C   UNL     1      -1.393  12.256  23.055  0.00  0.00    +0.000 C 
ATOM     12  C   UNL     1      -0.700  12.178  21.699  0.00  0.00    +0.000 C 
ATOM     13  C   UNL     1       0.266  11.024  21.407  0.00  0.00    +0.000 C 
ATOM     14  N   UNL     1       0.640  10.047  22.178  0.00  0.00    +0.000 NA
ATOM     15  C   UNL     1       0.875  10.995  20.002  0.00  0.00    +0.000 C 
ATOM     16  C   UNL     1       0.144  10.018  19.082  0.00  0.00    +0.000 C 
ATOM     17  C   UNL     1      -0.958  10.716  18.300  0.00  0.00    +0.000 C 
ATOM     18  O   UNL     1      -1.719   9.756  17.567  0.00  0.00    +0.000 OA
ENDROOT
BRANCH  14  19
ATOM     19  O   UNL     1       0.103  10.089  23.459  0.00  0.00    +0.000 OA
ATOM     20  H   UNL     1       0.826  10.477  23.985  0.00  0.00    +0.000 HD
ENDBRANCH  14  19
TORSDOF 1
ENDMDL
MODEL 2
REMARK VINA RESULT:      -6.7      2.920      6.734
REMARK  Name = 
REMARK  1 active torsions:
REMARK  status: ('A' for Active; 'I' for Inactive)
REMARK    1  A    between atoms: N_14  and  O_15
REMARK                            x       y       z     vdW  Elec       q    Type
REMARK                         _______ _______ _______ _____ _____    ______ ____
ROOT
ATOM      1  O   UNL     1      -1.986  13.657  23.629  0.00  0.00    +0.000 OA
ATOM      2  C   UNL     1      -2.376  12.518  23.382  0.00  0.00    +0.000 C 
ATOM      3  C   UNL     1      -1.477  11.368  23.010  0.00  0.00    +0.000 C 
ATOM      4  C   UNL     1      -0.886  11.631  21.625  0.00  0.00    +0.000 C 
ATOM      5  C   UNL     1      -0.104  10.436  21.090  0.00  0.00    +0.000 C 
ATOM      6  C   UNL     1       0.332  10.620  19.628  0.00  0.00    +0.000 C 
ATOM      7  C   UNL     1      -0.630   9.994  18.609  0.00  0.00    +0.000 C 
ATOM      8  C   UNL     1      -1.730  10.949  18.149  0.00  0.00    +0.000 C 
ATOM      9  C   UNL     1      -2.640  10.287  17.114  0.00  0.00    +0.000 C 
ATOM     10  C   UNL     1      -3.765  11.211  16.627  0.00  0.00    +0.000 C 
ATOM     11  C   UNL     1      -5.051  11.086  17.456  0.00  0.00    +0.000 C 
ATOM     12  C   UNL     1      -5.182  12.112  18.575  0.00  0.00    +0.000 C 
ATOM     13  C   UNL     1      -6.323  11.983  19.591  0.00  0.00    +0.000 C 
ATOM     14  N   UNL     1      -7.277  11.103  19.652  0.00  0.00    +0.000 NA
ATOM     15  C   UNL     1      -6.347  13.026  20.712  0.00  0.00    +0.000 C 
ATOM     16  C   UNL     1      -5.738  12.488  22.006  0.00  0.00    +0.000 C 
ATOM     17  C   UNL     1      -4.256  12.816  22.097  0.00  0.00    +0.000 C 
ATOM     18  O   UNL     1      -3.684  12.173  23.237  0.00  0.00    +0.000 OA
ENDROOT
BRANCH  14  19
ATOM     19  O   UNL     1      -7.265  10.172  18.621  0.00  0.00    +0.000 OA
ATOM     20  H   UNL     1      -6.738   9.440  18.994  0.00  0.00    +0.000 HD
ENDBRANCH  14  19
TORSDOF 1
ENDMDL
MODEL 3
REMARK VINA RESULT:      -6.6      2.281      4.205
REMARK  Name = 
REMARK  1 active torsions:
REMARK  status: ('A' for Active; 'I' for Inactive)
REMARK    1  A    between atoms: N_14  and  O_15
REMARK                            x       y       z     vdW  Elec       q    Type
REMARK                         _______ _______ _______ _____ _____    ______ ____
ROOT
ATOM      1  O   UNL     1       0.647  11.665  19.251  0.00  0.00    +0.000 OA
ATOM      2  C   UNL     1      -0.167  10.865  19.706  0.00  0.00    +0.000 C 
ATOM      3  C   UNL     1      -1.088  10.013  18.873  0.00  0.00    +0.000 C 
ATOM      4  C   UNL     1      -2.122  10.915  18.200  0.00  0.00    +0.000 C 
ATOM      5  C   UNL     1      -3.206  10.121  17.478  0.00  0.00    +0.000 C 
ATOM      6  C   UNL     1      -4.347  11.010  16.962  0.00  0.00    +0.000 C 
ATOM      7  C   UNL     1      -5.546  11.099  17.915  0.00  0.00    +0.000 C 
ATOM      8  C   UNL     1      -5.436  12.242  18.923  0.00  0.00    +0.000 C 
ATOM      9  C   UNL     1      -6.668  12.303  19.826  0.00  0.00    +0.000 C 
ATOM     10  C   UNL     1      -6.596  13.435  20.860  0.00  0.00    +0.000 C 
ATOM     11  C   UNL     1      -5.964  13.001  22.189  0.00  0.00    +0.000 C 
ATOM     12  C   UNL     1      -4.471  13.290  22.303  0.00  0.00    +0.000 C 
ATOM     13  C   UNL     1      -3.681  12.741  23.496  0.00  0.00    +0.000 C 
ATOM     14  N   UNL     1      -4.099  12.045  24.512  0.00  0.00    +0.000 NA
ATOM     15  C   UNL     1      -2.179  13.034  23.502  0.00  0.00    +0.000 C 
ATOM     16  C   UNL     1      -1.363  11.846  22.994  0.00  0.00    +0.000 C 
ATOM     17  C   UNL     1      -1.107  11.951  21.498  0.00  0.00    +0.000 C 
ATOM     18  O   UNL     1      -0.478  10.759  21.027  0.00  0.00    +0.000 OA
ENDROOT
BRANCH  14  19
ATOM     19  O   UNL     1      -5.467  11.800  24.515  0.00  0.00    +0.000 OA
ATOM     20  H   UNL     1      -5.616  11.409  25.396  0.00  0.00    +0.000 HD
ENDBRANCH  14  19
TORSDOF 1
ENDMDL
MODEL 4
REMARK VINA RESULT:      -6.6      2.938      6.388
REMARK  Name = 
REMARK  1 active torsions:
REMARK  status: ('A' for Active; 'I' for Inactive)
REMARK    1  A    between atoms: N_14  and  O_15
REMARK                            x       y       z     vdW  Elec       q    Type
REMARK                         _______ _______ _______ _____ _____    ______ ____
ROOT
ATOM      1  O   UNL     1      -0.261  13.100  23.005  0.00  0.00    +0.000 OA
ATOM      2  C   UNL     1      -0.870  12.043  22.861  0.00  0.00    +0.000 C 
ATOM      3  C   UNL     1      -0.348  10.851  22.102  0.00  0.00    +0.000 C 
ATOM      4  C   UNL     1      -0.291  11.199  20.615  0.00  0.00    +0.000 C 
ATOM      5  C   UNL     1       0.056   9.993  19.747  0.00  0.00    +0.000 C 
ATOM      6  C   UNL     1      -0.070  10.287  18.245  0.00  0.00    +0.000 C 
ATOM      7  C   UNL     1      -1.422   9.881  17.643  0.00  0.00    +0.000 C 
ATOM      8  C   UNL     1      -2.471  10.991  17.703  0.00  0.00    +0.000 C 
ATOM      9  C   UNL     1      -3.786  10.545  17.064  0.00  0.00    +0.000 C 
ATOM     10  C   UNL     1      -4.871  11.630  17.108  0.00  0.00    +0.000 C 
ATOM     11  C   UNL     1      -5.753  11.552  18.362  0.00  0.00    +0.000 C 
ATOM     12  C   UNL     1      -5.309  12.458  19.504  0.00  0.00    +0.000 C 
ATOM     13  C   UNL     1      -5.988  12.341  20.872  0.00  0.00    +0.000 C 
ATOM     14  N   UNL     1      -6.962  11.565  21.246  0.00  0.00    +0.000 NA
ATOM     15  C   UNL     1      -5.443  13.253  21.975  0.00  0.00    +0.000 C 
ATOM     16  C   UNL     1      -4.472  12.516  22.898  0.00  0.00    +0.000 C 
ATOM     17  C   UNL     1      -3.035  12.674  22.426  0.00  0.00    +0.000 C 
ATOM     18  O   UNL     1      -2.171  11.855  23.214  0.00  0.00    +0.000 OA
ENDROOT
BRANCH  14  19
ATOM     19  O   UNL     1      -7.469  10.755  20.237  0.00  0.00    +0.000 OA
ATOM     20  H   UNL     1      -7.689   9.931  20.710  0.00  0.00    +0.000 HD
ENDBRANCH  14  19
TORSDOF 1
ENDMDL
MODEL 5
REMARK VINA RESULT:      -6.6      2.977      5.971
REMARK  Name = 
REMARK  1 active torsions:
REMARK  status: ('A' for Active; 'I' for Inactive)
REMARK    1  A    between atoms: N_14  and  O_15
REMARK                            x       y       z     vdW  Elec       q    Type
REMARK                         _______ _______ _______ _____ _____    ______ ____
ROOT
ATOM      1  O   UNL     1       0.070  12.977  22.192  0.00  0.00    +0.000 OA
ATOM      2  C   UNL     1      -0.620  11.961  22.252  0.00  0.00    +0.000 C 
ATOM      3  C   UNL     1      -0.540  10.815  21.277  0.00  0.00    +0.000 C 
ATOM      4  C   UNL     1      -1.072  11.280  19.922  0.00  0.00    +0.000 C 
ATOM      5  C   UNL     1      -1.198  10.137  18.922  0.00  0.00    +0.000 C 
ATOM      6  C   UNL     1      -1.905  10.558  17.625  0.00  0.00    +0.000 C 
ATOM      7  C   UNL     1      -3.410  10.260  17.612  0.00  0.00    +0.000 C 
ATOM      8  C   UNL     1      -4.259  11.405  18.163  0.00  0.00    +0.000 C 
ATOM      9  C   UNL     1      -5.749  11.069  18.100  0.00  0.00    +0.000 C 
ATOM     10  C   UNL     1      -6.640  12.191  18.650  0.00  0.00    +0.000 C 
ATOM     11  C   UNL     1      -6.936  12.048  20.149  0.00  0.00    +0.000 C 
ATOM     12  C   UNL     1      -6.000  12.839  21.056  0.00  0.00    +0.000 C 
ATOM     13  C   UNL     1      -6.067  12.638  22.574  0.00  0.00    +0.000 C 
ATOM     14  N   UNL     1      -6.856  11.876  23.271  0.00  0.00    +0.000 NA
ATOM     15  C   UNL     1      -5.054  13.432  23.403  0.00  0.00    +0.000 C 
ATOM     16  C   UNL     1      -3.847  12.582  23.799  0.00  0.00    +0.000 C 
ATOM     17  C   UNL     1      -2.721  12.717  22.786  0.00  0.00    +0.000 C 
ATOM     18  O   UNL     1      -1.672  11.800  23.099  0.00  0.00    +0.000 OA
ENDROOT
BRANCH  14  19
ATOM     19  O   UNL     1      -7.789  11.174  22.517  0.00  0.00    +0.000 OA
ATOM     20  H   UNL     1      -7.270  10.888  21.741  0.00  0.00    +0.000 HD
ENDBRANCH  14  19
TORSDOF 1
ENDMDL
MODEL 6
REMARK VINA RESULT:      -6.4      2.660      5.532
REMARK  Name = 
REMARK  1 active torsions:
REMARK  status: ('A' for Active; 'I' for Inactive)
REMARK    1  A    between atoms: N_14  and  O_15
REMARK                            x       y       z     vdW  Elec       q    Type
REMARK                         _______ _______ _______ _____ _____    ______ ____
ROOT
ATOM      1  O   UNL     1       0.908  11.916  21.401  0.00  0.00    +0.000 OA
ATOM      2  C   UNL     1       0.022  11.068  21.481  0.00  0.00    +0.000 C 
ATOM      3  C   UNL     1      -0.227   9.992  20.457  0.00  0.00    +0.000 C 
ATOM      4  C   UNL     1      -0.752  10.640  19.176  0.00  0.00    +0.000 C 
ATOM      5  C   UNL     1      -1.202   9.611  18.145  0.00  0.00    +0.000 C 
ATOM      6  C   UNL     1      -1.902  10.250  16.936  0.00  0.00    +0.000 C 
ATOM      7  C   UNL     1      -3.432  10.279  17.049  0.00  0.00    +0.000 C 
ATOM      8  C   UNL     1      -3.967  11.543  17.722  0.00  0.00    +0.000 C 
ATOM      9  C   UNL     1      -5.495  11.534  17.781  0.00  0.00    +0.000 C 
ATOM     10  C   UNL     1      -6.074  12.785  18.456  0.00  0.00    +0.000 C 
ATOM     11  C   UNL     1      -6.274  12.618  19.968  0.00  0.00    +0.000 C 
ATOM     12  C   UNL     1      -5.119  13.136  20.818  0.00  0.00    +0.000 C 
ATOM     13  C   UNL     1      -5.106  12.864  22.326  0.00  0.00    +0.000 C 
ATOM     14  N   UNL     1      -5.984  12.245  23.060  0.00  0.00    +0.000 NA
ATOM     15  C   UNL     1      -3.883  13.374  23.092  0.00  0.00    +0.000 C 
ATOM     16  C   UNL     1      -2.861  12.265  23.341  0.00  0.00    +0.000 C 
ATOM     17  C   UNL     1      -1.817  12.219  22.236  0.00  0.00    +0.000 C 
ATOM     18  O   UNL     1      -0.969  11.084  22.413  0.00  0.00    +0.000 OA
ENDROOT
BRANCH  14  19
ATOM     19  O   UNL     1      -7.103  11.803  22.365  0.00  0.00    +0.000 OA
ATOM     20  H   UNL     1      -7.776  12.473  22.588  0.00  0.00    +0.000 HD
ENDBRANCH  14  19
TORSDOF 1
ENDMDL
MODEL 7
REMARK VINA RESULT:      -6.4      2.015      5.243
REMARK  Name = 
REMARK  1 active torsions:
REMARK  status: ('A' for Active; 'I' for Inactive)
REMARK    1  A    between atoms: N_14  and  O_15
REMARK                            x       y       z     vdW  Elec       q    Type
REMARK                         _______ _______ _______ _____ _____    ______ ____
ROOT
ATOM      1  O   UNL     1      -0.369  10.969  22.977  0.00  0.00    +0.000 OA
ATOM      2  C   UNL     1      -0.638  11.890  22.209  0.00  0.00    +0.000 C 
ATOM      3  C   UNL     1      -1.525  13.059  22.552  0.00  0.00    +0.000 C 
ATOM      4  C   UNL     1      -2.962  12.562  22.703  0.00  0.00    +0.000 C 
ATOM      5  C   UNL     1      -3.958  13.704  22.874  0.00  0.00    +0.000 C 
ATOM      6  C   UNL     1      -5.418  13.228  22.837  0.00  0.00    +0.000 C 
ATOM      7  C   UNL     1      -6.073  13.337  21.454  0.00  0.00    +0.000 C 
ATOM      8  C   UNL     1      -5.896  12.084  20.598  0.00  0.00    +0.000 C 
ATOM      9  C   UNL     1      -6.592  12.234  19.246  0.00  0.00    +0.000 C 
ATOM     10  C   UNL     1      -6.434  10.998  18.351  0.00  0.00    +0.000 C 
ATOM     11  C   UNL     1      -5.205  11.069  17.434  0.00  0.00    +0.000 C 
ATOM     12  C   UNL     1      -3.963  10.380  17.988  0.00  0.00    +0.000 C 
ATOM     13  C   UNL     1      -2.622  10.535  17.263  0.00  0.00    +0.000 C 
ATOM     14  N   UNL     1      -2.348  11.178  16.166  0.00  0.00    +0.000 NA
ATOM     15  C   UNL     1      -1.418   9.854  17.919  0.00  0.00    +0.000 C 
ATOM     16  C   UNL     1      -0.578  10.838  18.732  0.00  0.00    +0.000 C 
ATOM     17  C   UNL     1      -1.016  10.867  20.188  0.00  0.00    +0.000 C 
ATOM     18  O   UNL     1      -0.320  11.899  20.886  0.00  0.00    +0.000 OA
ENDROOT
BRANCH  14  19
ATOM     19  O   UNL     1      -3.447  11.776  15.562  0.00  0.00    +0.000 OA
ATOM     20  H   UNL     1      -3.076  12.607  15.211  0.00  0.00    +0.000 HD
ENDBRANCH  14  19
TORSDOF 1
ENDMDL
MODEL 8
REMARK VINA RESULT:      -6.3      1.995      4.903
REMARK  Name = 
REMARK  1 active torsions:
REMARK  status: ('A' for Active; 'I' for Inactive)
REMARK    1  A    between atoms: N_14  and  O_15
REMARK                            x       y       z     vdW  Elec       q    Type
REMARK                         _______ _______ _______ _____ _____    ______ ____
ROOT
ATOM      1  O   UNL     1      -4.503  12.100  24.196  0.00  0.00    +0.000 OA
ATOM      2  C   UNL     1      -4.095  12.866  23.326  0.00  0.00    +0.000 C 
ATOM      3  C   UNL     1      -4.972  13.549  22.309  0.00  0.00    +0.000 C 
ATOM      4  C   UNL     1      -5.519  12.500  21.342  0.00  0.00    +0.000 C 
ATOM      5  C   UNL     1      -6.272  13.122  20.171  0.00  0.00    +0.000 C 
ATOM      6  C   UNL     1      -6.661  12.091  19.101  0.00  0.00    +0.000 C 
ATOM      7  C   UNL     1      -5.661  11.991  17.942  0.00  0.00    +0.000 C 
ATOM      8  C   UNL     1      -4.554  10.966  18.183  0.00  0.00    +0.000 C 
ATOM      9  C   UNL     1      -3.605  10.885  16.987  0.00  0.00    +0.000 C 
ATOM     10  C   UNL     1      -2.472   9.869  17.190  0.00  0.00    +0.000 C 
ATOM     11  C   UNL     1      -1.214  10.484  17.816  0.00  0.00    +0.000 C 
ATOM     12  C   UNL     1      -1.128  10.339  19.331  0.00  0.00    +0.000 C 
ATOM     13  C   UNL     1      -0.021  11.067  20.101  0.00  0.00    +0.000 C 
ATOM     14  N   UNL     1       0.939  11.820  19.651  0.00  0.00    +0.000 NA
ATOM     15  C   UNL     1      -0.042  10.908  21.624  0.00  0.00    +0.000 C 
ATOM     16  C   UNL     1      -0.689  12.108  22.315  0.00  0.00    +0.000 C 
ATOM     17  C   UNL     1      -2.176  11.881  22.538  0.00  0.00    +0.000 C 
ATOM     18  O   UNL     1      -2.781  13.072  23.043  0.00  0.00    +0.000 OA
ENDROOT
BRANCH  14  19
ATOM     19  O   UNL     1       0.969  11.944  18.267  0.00  0.00    +0.000 OA
ATOM     20  H   UNL     1       0.862  11.023  17.964  0.00  0.00    +0.000 HD
ENDBRANCH  14  19
TORSDOF 1
ENDMDL
MODEL 9
REMARK VINA RESULT:      -6.2      2.403      5.006
REMARK  Name = 
REMARK  1 active torsions:
REMARK  status: ('A' for Active; 'I' for Inactive)
REMARK    1  A    between atoms: N_14  and  O_15
REMARK                            x       y       z     vdW  Elec       q    Type
REMARK                         _______ _______ _______ _____ _____    ______ ____
ROOT
ATOM      1  O   UNL     1       1.718  12.477  20.198  0.00  0.00    +0.000 OA
ATOM      2  C   UNL     1       0.948  11.608  20.601  0.00  0.00    +0.000 C 
ATOM      3  C   UNL     1       0.478  10.435  19.781  0.00  0.00    +0.000 C 
ATOM      4  C   UNL     1      -0.436  10.945  18.667  0.00  0.00    +0.000 C 
ATOM      5  C   UNL     1      -1.103   9.811  17.896  0.00  0.00    +0.000 C 
ATOM      6  C   UNL     1      -2.163  10.312  16.903  0.00  0.00    +0.000 C 
ATOM      7  C   UNL     1      -3.593  10.295  17.460  0.00  0.00    +0.000 C 
ATOM      8  C   UNL     1      -3.984  11.594  18.163  0.00  0.00    +0.000 C 
ATOM      9  C   UNL     1      -5.425  11.536  18.671  0.00  0.00    +0.000 C 
ATOM     10  C   UNL     1      -5.859  12.820  19.390  0.00  0.00    +0.000 C 
ATOM     11  C   UNL     1      -5.599  12.784  20.902  0.00  0.00    +0.000 C 
ATOM     12  C   UNL     1      -4.281  13.419  21.331  0.00  0.00    +0.000 C 
ATOM     13  C   UNL     1      -3.812  13.285  22.784  0.00  0.00    +0.000 C 
ATOM     14  N   UNL     1      -4.398  12.705  23.789  0.00  0.00    +0.000 NA
ATOM     15  C   UNL     1      -2.452  13.907  23.113  0.00  0.00    +0.000 C 
ATOM     16  C   UNL     1      -1.336  12.863  23.132  0.00  0.00    +0.000 C 
ATOM     17  C   UNL     1      -0.658  12.755  21.775  0.00  0.00    +0.000 C 
ATOM     18  O   UNL     1       0.272  11.672  21.780  0.00  0.00    +0.000 OA
ENDROOT
BRANCH  14  19
ATOM     19  O   UNL     1      -5.642  12.161  23.492  0.00  0.00    +0.000 OA
ATOM     20  H   UNL     1      -6.052  12.849  22.934  0.00  0.00    +0.000 HD
ENDBRANCH  14  19
TORSDOF 1
ENDMDL
