MODEL 1
REMARK VINA RESULT:      -7.2      0.000      0.000
REMARK  Name = 
REMARK  12 active torsions:
REMARK  status: ('A' for Active; 'I' for Inactive)
REMARK    1  A    between atoms: C_7  and  C_8
REMARK    2  A    between atoms: C_11  and  C_12
REMARK    3  A    between atoms: C_13  and  C_14
REMARK    4  A    between atoms: C_13  and  C_15
REMARK    5  A    between atoms: C_15  and  C_16
REMARK    6  A    between atoms: C_18  and  O_19
REMARK    7  A    between atoms: C_20  and  O_21
REMARK    8  A    between atoms: O_21  and  C_22
REMARK    9  A    between atoms: C_22  and  C_23
REMARK   10  A    between atoms: C_26  and  O_27
REMARK   11  A    between atoms: O_27  and  C_28
REMARK   12  A    between atoms: C_28  and  C_29
REMARK                            x       y       z     vdW  Elec       q    Type
REMARK                         _______ _______ _______ _____ _____    ______ ____
ROOT
ATOM      1  C   UNL     1       2.434   7.962  17.415  0.00  0.00    +0.000 C 
ATOM      2  C   UNL     1       3.197   6.934  17.840  0.00  0.00    +0.000 C 
ATOM      3  C   UNL     1       4.645   6.742  17.515  0.00  0.00    +0.000 C 
ATOM      4  C   UNL     1       4.726   5.215  17.422  0.00  0.00    +0.000 C 
ATOM      5  O   UNL     1       3.836   4.727  18.438  0.00  0.00    +0.000 OA
ATOM      6  C   UNL     1       2.845   5.742  18.708  0.00  0.00    +0.000 C 
ENDROOT
BRANCH   3   7
ATOM      7  O   UNL     1       5.059   7.463  16.369  0.00  0.00    +0.000 OA
ATOM      8  H   UNL     1       6.014   7.312  16.247  0.00  0.00    +0.000 HD
ENDBRANCH   3   7
BRANCH   1   9
ATOM      9  C   UNL     1       1.029   8.289  17.870  0.00  0.00    +0.000 C 
BRANCH   9  22
ATOM     10  C   UNL     1      -1.630  11.118  22.642  0.00  0.00    +0.000 C 
ATOM     11  C   UNL     1      -0.456  10.712  22.124  0.00  0.00    +0.000 C 
ATOM     12  C   UNL     1       0.481   9.880  22.975  0.00  0.00    +0.000 C 
ATOM     13  C   UNL     1       0.780   8.561  22.286  0.00  0.00    +0.000 C 
ATOM     14  C   UNL     1       1.327   8.757  20.872  0.00  0.00    +0.000 C 
ATOM     15  C   UNL     1       0.397   9.640  20.001  0.00  0.00    +0.000 C 
ATOM     16  C   UNL     1       0.060  11.019  20.695  0.00  0.00    +0.000 C 
ATOM     17  C   UNL     1       1.279  11.958  20.896  0.00  0.00    +0.000 C 
ATOM     18  C   UNL     1      -0.997  11.764  19.832  0.00  0.00    +0.000 C 
ATOM     19  C   UNL     1      -0.639  11.873  18.349  0.00  0.00    +0.000 C 
ATOM     20  C   UNL     1      -0.332  10.512  17.695  0.00  0.00    +0.000 C 
ATOM     21  C   UNL     1      -1.650   9.721  17.549  0.00  0.00    +0.000 C 
ATOM     22  C   UNL     1       0.810   9.739  18.461  0.00  0.00    +0.000 C 
ATOM     23  C   UNL     1       2.158  10.492  18.262  0.00  0.00    +0.000 C 
ENDBRANCH   9  22
ENDBRANCH   1   9
BRANCH   4  24
ATOM     24  O   UNL     1       6.051   4.739  17.699  0.00  0.00    +0.000 OA
BRANCH  24  25
ATOM     25  C   UNL     1       6.767   4.380  16.602  0.00  0.00    +0.000 C 
ATOM     26  C   UNL     1       5.862   3.850  15.530  0.00  0.00    +0.000 C 
ATOM     27  O   UNL     1       7.982   4.467  16.494  0.00  0.00    +0.000 OA
ENDBRANCH  24  25
ENDBRANCH   4  24
BRANCH   6  28
ATOM     28  O   UNL     1       1.561   5.218  18.384  0.00  0.00    +0.000 OA
BRANCH  28  29
ATOM     29  C   UNL     1       1.270   4.019  18.953  0.00  0.00    +0.000 C 
ATOM     30  C   UNL     1       1.065   4.155  20.433  0.00  0.00    +0.000 C 
ATOM     31  O   UNL     1       1.200   2.946  18.369  0.00  0.00    +0.000 OA
ENDBRANCH  28  29
ENDBRANCH   6  28
TORSDOF 7
ENDMDL
MODEL 2
REMARK VINA RESULT:      -7.0      0.920      1.028
REMARK  Name = 
REMARK  12 active torsions:
REMARK  status: ('A' for Active; 'I' for Inactive)
REMARK    1  A    between atoms: C_7  and  C_8
REMARK    2  A    between atoms: C_11  and  C_12
REMARK    3  A    between atoms: C_13  and  C_14
REMARK    4  A    between atoms: C_13  and  C_15
REMARK    5  A    between atoms: C_15  and  C_16
REMARK    6  A    between atoms: C_18  and  O_19
REMARK    7  A    between atoms: C_20  and  O_21
REMARK    8  A    between atoms: O_21  and  C_22
REMARK    9  A    between atoms: C_22  and  C_23
REMARK   10  A    between atoms: C_26  and  O_27
REMARK   11  A    between atoms: O_27  and  C_28
REMARK   12  A    between atoms: C_28  and  C_29
REMARK                            x       y       z     vdW  Elec       q    Type
REMARK                         _______ _______ _______ _____ _____    ______ ____
ROOT
ATOM      1  C   UNL     1       2.008   8.112  17.663  0.00  0.00    +0.000 C 
ATOM      2  C   UNL     1       2.977   7.300  18.134  0.00  0.00    +0.000 C 
ATOM      3  C   UNL     1       4.341   7.150  17.537  0.00  0.00    +0.000 C 
ATOM      4  C   UNL     1       4.614   5.665  17.797  0.00  0.00    +0.000 C 
ATOM      5  O   UNL     1       4.025   5.392  19.079  0.00  0.00    +0.000 OA
ATOM      6  C   UNL     1       2.978   6.357  19.320  0.00  0.00    +0.000 C 
ENDROOT
BRANCH   3   7
ATOM      7  O   UNL     1       4.410   7.572  16.188  0.00  0.00    +0.000 OA
ATOM      8  H   UNL     1       3.517   7.850  15.912  0.00  0.00    +0.000 HD
ENDBRANCH   3   7
BRANCH   1   9
ATOM      9  C   UNL     1       0.693   8.432  18.339  0.00  0.00    +0.000 C 
BRANCH   9  22
ATOM     10  C   UNL     1      -2.426  11.869  22.376  0.00  0.00    +0.000 C 
ATOM     11  C   UNL     1      -1.214  11.375  22.064  0.00  0.00    +0.000 C 
ATOM     12  C   UNL     1      -0.427  10.623  23.117  0.00  0.00    +0.000 C 
ATOM     13  C   UNL     1      -0.099   9.225  22.627  0.00  0.00    +0.000 C 
ATOM     14  C   UNL     1       0.629   9.239  21.283  0.00  0.00    +0.000 C 
ATOM     15  C   UNL     1      -0.146  10.039  20.204  0.00  0.00    +0.000 C 
ATOM     16  C   UNL     1      -0.510  11.499  20.689  0.00  0.00    +0.000 C 
ATOM     17  C   UNL     1       0.712  12.421  20.939  0.00  0.00    +0.000 C 
ATOM     18  C   UNL     1      -1.417  12.165  19.617  0.00  0.00    +0.000 C 
ATOM     19  C   UNL     1      -0.872  12.090  18.191  0.00  0.00    +0.000 C 
ATOM     20  C   UNL     1      -0.541  10.654  17.740  0.00  0.00    +0.000 C 
ATOM     21  C   UNL     1      -1.862   9.886  17.513  0.00  0.00    +0.000 C 
ATOM     22  C   UNL     1       0.462   9.945  18.729  0.00  0.00    +0.000 C 
ATOM     23  C   UNL     1       1.854  10.634  18.624  0.00  0.00    +0.000 C 
ENDBRANCH   9  22
ENDBRANCH   1   9
BRANCH   4  24
ATOM     24  O   UNL     1       6.020   5.390  17.865  0.00  0.00    +0.000 OA
BRANCH  24  25
ATOM     25  C   UNL     1       6.502   4.634  16.845  0.00  0.00    +0.000 C 
ATOM     26  C   UNL     1       5.379   4.101  16.007  0.00  0.00    +0.000 C 
ATOM     27  O   UNL     1       7.685   4.409  16.633  0.00  0.00    +0.000 OA
ENDBRANCH  24  25
ENDBRANCH   4  24
BRANCH   6  28
ATOM     28  O   UNL     1       1.741   5.661  19.438  0.00  0.00    +0.000 OA
BRANCH  28  29
ATOM     29  C   UNL     1       1.745   4.628  20.321  0.00  0.00    +0.000 C 
ATOM     30  C   UNL     1       1.032   3.432  19.761  0.00  0.00    +0.000 C 
ATOM     31  O   UNL     1       2.234   4.646  21.442  0.00  0.00    +0.000 OA
ENDBRANCH  28  29
ENDBRANCH   6  28
TORSDOF 7
ENDMDL
MODEL 3
REMARK VINA RESULT:      -7.0      1.725      4.135
REMARK  Name = 
REMARK  12 active torsions:
REMARK  status: ('A' for Active; 'I' for Inactive)
REMARK    1  A    between atoms: C_7  and  C_8
REMARK    2  A    between atoms: C_11  and  C_12
REMARK    3  A    between atoms: C_13  and  C_14
REMARK    4  A    between atoms: C_13  and  C_15
REMARK    5  A    between atoms: C_15  and  C_16
REMARK    6  A    between atoms: C_18  and  O_19
REMARK    7  A    between atoms: C_20  and  O_21
REMARK    8  A    between atoms: O_21  and  C_22
REMARK    9  A    between atoms: C_22  and  C_23
REMARK   10  A    between atoms: C_26  and  O_27
REMARK   11  A    between atoms: O_27  and  C_28
REMARK   12  A    between atoms: C_28  and  C_29
REMARK                            x       y       z     vdW  Elec       q    Type
REMARK                         _______ _______ _______ _____ _____    ______ ____
ROOT
ATOM      1  C   UNL     1       2.118   7.621  19.433  0.00  0.00    +0.000 C 
ATOM      2  C   UNL     1       2.674   6.461  19.027  0.00  0.00    +0.000 C 
ATOM      3  C   UNL     1       2.593   5.162  19.765  0.00  0.00    +0.000 C 
ATOM      4  C   UNL     1       3.965   4.557  19.448  0.00  0.00    +0.000 C 
ATOM      5  O   UNL     1       4.245   4.946  18.094  0.00  0.00    +0.000 OA
ATOM      6  C   UNL     1       3.497   6.144  17.795  0.00  0.00    +0.000 C 
ENDROOT
BRANCH   3   7
ATOM      7  O   UNL     1       2.278   5.317  21.136  0.00  0.00    +0.000 OA
ATOM      8  H   UNL     1       1.897   4.479  21.455  0.00  0.00    +0.000 HD
ENDBRANCH   3   7
BRANCH   1   9
ATOM      9  C   UNL     1       2.018   8.901  18.632  0.00  0.00    +0.000 C 
BRANCH   9  22
ATOM     10  C   UNL     1       1.248  14.506  21.046  0.00  0.00    +0.000 C 
ATOM     11  C   UNL     1       1.205  13.788  19.909  0.00  0.00    +0.000 C 
ATOM     12  C   UNL     1       1.969  14.275  18.695  0.00  0.00    +0.000 C 
ATOM     13  C   UNL     1       2.953  13.214  18.236  0.00  0.00    +0.000 C 
ATOM     14  C   UNL     1       2.274  11.871  17.972  0.00  0.00    +0.000 C 
ATOM     15  C   UNL     1       1.455  11.377  19.193  0.00  0.00    +0.000 C 
ATOM     16  C   UNL     1       0.426  12.464  19.701  0.00  0.00    +0.000 C 
ATOM     17  C   UNL     1      -0.701  12.810  18.693  0.00  0.00    +0.000 C 
ATOM     18  C   UNL     1      -0.230  11.951  21.013  0.00  0.00    +0.000 C 
ATOM     19  C   UNL     1      -0.799  10.534  20.925  0.00  0.00    +0.000 C 
ATOM     20  C   UNL     1       0.231   9.494  20.443  0.00  0.00    +0.000 C 
ATOM     21  C   UNL     1       1.259   9.250  21.569  0.00  0.00    +0.000 C 
ATOM     22  C   UNL     1       0.868   9.898  19.057  0.00  0.00    +0.000 C 
ATOM     23  C   UNL     1      -0.220   9.798  17.948  0.00  0.00    +0.000 C 
ENDBRANCH   9  22
ENDBRANCH   1   9
BRANCH   4  24
ATOM     24  O   UNL     1       3.942   3.125  19.524  0.00  0.00    +0.000 OA
BRANCH  24  25
ATOM     25  C   UNL     1       2.733   2.561  19.267  0.00  0.00    +0.000 C 
ATOM     26  C   UNL     1       2.628   2.170  17.824  0.00  0.00    +0.000 C 
ATOM     27  O   UNL     1       1.844   2.396  20.091  0.00  0.00    +0.000 OA
ENDBRANCH  24  25
ENDBRANCH   4  24
BRANCH   6  28
ATOM     28  O   UNL     1       4.417   7.189  17.495  0.00  0.00    +0.000 OA
BRANCH  28  29
ATOM     29  C   UNL     1       5.419   6.845  16.644  0.00  0.00    +0.000 C 
ATOM     30  C   UNL     1       6.756   6.916  17.322  0.00  0.00    +0.000 C 
ATOM     31  O   UNL     1       5.287   6.536  15.468  0.00  0.00    +0.000 OA
ENDBRANCH  28  29
ENDBRANCH   6  28
TORSDOF 7
ENDMDL
MODEL 4
REMARK VINA RESULT:      -7.0      1.374      1.736
REMARK  Name = 
REMARK  12 active torsions:
REMARK  status: ('A' for Active; 'I' for Inactive)
REMARK    1  A    between atoms: C_7  and  C_8
REMARK    2  A    between atoms: C_11  and  C_12
REMARK    3  A    between atoms: C_13  and  C_14
REMARK    4  A    between atoms: C_13  and  C_15
REMARK    5  A    between atoms: C_15  and  C_16
REMARK    6  A    between atoms: C_18  and  O_19
REMARK    7  A    between atoms: C_20  and  O_21
REMARK    8  A    between atoms: O_21  and  C_22
REMARK    9  A    between atoms: C_22  and  C_23
REMARK   10  A    between atoms: C_26  and  O_27
REMARK   11  A    between atoms: O_27  and  C_28
REMARK   12  A    between atoms: C_28  and  C_29
REMARK                            x       y       z     vdW  Elec       q    Type
REMARK                         _______ _______ _______ _____ _____    ______ ____
ROOT
ATOM      1  C   UNL     1       1.753   8.512  18.272  0.00  0.00    +0.000 C 
ATOM      2  C   UNL     1       2.713   7.580  18.452  0.00  0.00    +0.000 C 
ATOM      3  C   UNL     1       3.880   7.359  17.543  0.00  0.00    +0.000 C 
ATOM      4  C   UNL     1       4.045   5.839  17.641  0.00  0.00    +0.000 C 
ATOM      5  O   UNL     1       3.739   5.513  19.006  0.00  0.00    +0.000 OA
ATOM      6  C   UNL     1       2.884   6.544  19.544  0.00  0.00    +0.000 C 
ENDROOT
BRANCH   3   7
ATOM      7  O   UNL     1       3.683   7.885  16.243  0.00  0.00    +0.000 OA
ATOM      8  H   UNL     1       3.118   7.265  15.748  0.00  0.00    +0.000 HD
ENDBRANCH   3   7
BRANCH   1   9
ATOM      9  C   UNL     1       0.669   8.890  19.257  0.00  0.00    +0.000 C 
BRANCH   9  22
ATOM     10  C   UNL     1      -3.404  12.646  21.930  0.00  0.00    +0.000 C 
ATOM     11  C   UNL     1      -2.111  12.275  21.901  0.00  0.00    +0.000 C 
ATOM     12  C   UNL     1      -1.419  11.896  23.193  0.00  0.00    +0.000 C 
ATOM     13  C   UNL     1      -0.865  10.486  23.096  0.00  0.00    +0.000 C 
ATOM     14  C   UNL     1       0.058  10.309  21.891  0.00  0.00    +0.000 C 
ATOM     15  C   UNL     1      -0.623  10.731  20.563  0.00  0.00    +0.000 C 
ATOM     16  C   UNL     1      -1.219  12.193  20.636  0.00  0.00    +0.000 C 
ATOM     17  C   UNL     1      -0.161  13.314  20.810  0.00  0.00    +0.000 C 
ATOM     18  C   UNL     1      -2.016  12.469  19.330  0.00  0.00    +0.000 C 
ATOM     19  C   UNL     1      -1.250  12.161  18.043  0.00  0.00    +0.000 C 
ATOM     20  C   UNL     1      -0.696  10.723  17.994  0.00  0.00    +0.000 C 
ATOM     21  C   UNL     1      -1.871   9.743  17.792  0.00  0.00    +0.000 C 
ATOM     22  C   UNL     1       0.213  10.403  19.242  0.00  0.00    +0.000 C 
ATOM     23  C   UNL     1       1.519  11.245  19.152  0.00  0.00    +0.000 C 
ENDBRANCH   9  22
ENDBRANCH   1   9
BRANCH   4  24
ATOM     24  O   UNL     1       5.393   5.435  17.359  0.00  0.00    +0.000 OA
BRANCH  24  25
ATOM     25  C   UNL     1       5.665   5.240  16.043  0.00  0.00    +0.000 C 
ATOM     26  C   UNL     1       5.754   3.777  15.732  0.00  0.00    +0.000 C 
ATOM     27  O   UNL     1       5.823   6.129  15.218  0.00  0.00    +0.000 OA
ENDBRANCH  24  25
ENDBRANCH   4  24
BRANCH   6  28
ATOM     28  O   UNL     1       1.639   5.954  19.908  0.00  0.00    +0.000 OA
BRANCH  28  29
ATOM     29  C   UNL     1       1.731   4.728  20.485  0.00  0.00    +0.000 C 
ATOM     30  C   UNL     1       1.046   3.683  19.654  0.00  0.00    +0.000 C 
ATOM     31  O   UNL     1       2.274   4.476  21.552  0.00  0.00    +0.000 OA
ENDBRANCH  28  29
ENDBRANCH   6  28
TORSDOF 7
ENDMDL
MODEL 5
REMARK VINA RESULT:      -6.9      3.425      7.640
REMARK  Name = 
REMARK  12 active torsions:
REMARK  status: ('A' for Active; 'I' for Inactive)
REMARK    1  A    between atoms: C_7  and  C_8
REMARK    2  A    between atoms: C_11  and  C_12
REMARK    3  A    between atoms: C_13  and  C_14
REMARK    4  A    between atoms: C_13  and  C_15
REMARK    5  A    between atoms: C_15  and  C_16
REMARK    6  A    between atoms: C_18  and  O_19
REMARK    7  A    between atoms: C_20  and  O_21
REMARK    8  A    between atoms: O_21  and  C_22
REMARK    9  A    between atoms: C_22  and  C_23
REMARK   10  A    between atoms: C_26  and  O_27
REMARK   11  A    between atoms: O_27  and  C_28
REMARK   12  A    between atoms: C_28  and  C_29
REMARK                            x       y       z     vdW  Elec       q    Type
REMARK                         _______ _______ _______ _____ _____    ______ ____
ROOT
ATOM      1  C   UNL     1       2.324   8.694  18.675  0.00  0.00    +0.000 C 
ATOM      2  C   UNL     1       1.607   9.801  18.958  0.00  0.00    +0.000 C 
ATOM      3  C   UNL     1       1.502  11.007  18.079  0.00  0.00    +0.000 C 
ATOM      4  C   UNL     1       1.419  12.126  19.123  0.00  0.00    +0.000 C 
ATOM      5  O   UNL     1       0.643  11.578  20.202  0.00  0.00    +0.000 OA
ATOM      6  C   UNL     1       0.756  10.139  20.165  0.00  0.00    +0.000 C 
ENDROOT
BRANCH   3   7
ATOM      7  O   UNL     1       2.555  11.106  17.138  0.00  0.00    +0.000 OA
ATOM      8  H   UNL     1       2.422  11.921  16.620  0.00  0.00    +0.000 HD
ENDBRANCH   3   7
BRANCH   1   9
ATOM      9  C   UNL     1       2.307   7.389  19.441  0.00  0.00    +0.000 C 
BRANCH   9  22
ATOM     10  C   UNL     1       4.618   1.720  20.039  0.00  0.00    +0.000 C 
ATOM     11  C   UNL     1       3.482   2.436  19.948  0.00  0.00    +0.000 C 
ATOM     12  C   UNL     1       2.399   2.243  20.988  0.00  0.00    +0.000 C 
ATOM     13  C   UNL     1       2.083   3.564  21.666  0.00  0.00    +0.000 C 
ATOM     14  C   UNL     1       1.712   4.655  20.663  0.00  0.00    +0.000 C 
ATOM     15  C   UNL     1       2.795   4.838  19.568  0.00  0.00    +0.000 C 
ATOM     16  C   UNL     1       3.152   3.477  18.848  0.00  0.00    +0.000 C 
ATOM     17  C   UNL     1       1.990   2.852  18.032  0.00  0.00    +0.000 C 
ATOM     18  C   UNL     1       4.349   3.724  17.888  0.00  0.00    +0.000 C 
ATOM     19  C   UNL     1       4.168   4.911  16.941  0.00  0.00    +0.000 C 
ATOM     20  C   UNL     1       3.837   6.227  17.673  0.00  0.00    +0.000 C 
ATOM     21  C   UNL     1       5.102   6.720  18.408  0.00  0.00    +0.000 C 
ATOM     22  C   UNL     1       2.563   6.082  18.592  0.00  0.00    +0.000 C 
ATOM     23  C   UNL     1       1.305   5.897  17.695  0.00  0.00    +0.000 C 
ENDBRANCH   9  22
ENDBRANCH   1   9
BRANCH   4  24
ATOM     24  O   UNL     1       0.743  13.282  18.607  0.00  0.00    +0.000 OA
BRANCH  24  25
ATOM     25  C   UNL     1       1.442  14.441  18.710  0.00  0.00    +0.000 C 
ATOM     26  C   UNL     1       0.520  15.591  18.987  0.00  0.00    +0.000 C 
ATOM     27  O   UNL     1       2.654  14.547  18.591  0.00  0.00    +0.000 OA
ENDBRANCH  24  25
ENDBRANCH   4  24
BRANCH   6  28
ATOM     28  O   UNL     1       1.368   9.704  21.376  0.00  0.00    +0.000 OA
BRANCH  28  29
ATOM     29  C   UNL     1       0.502   9.311  22.347  0.00  0.00    +0.000 C 
ATOM     30  C   UNL     1      -0.538   8.377  21.803  0.00  0.00    +0.000 C 
ATOM     31  O   UNL     1       0.525   9.671  23.517  0.00  0.00    +0.000 OA
ENDBRANCH  28  29
ENDBRANCH   6  28
TORSDOF 7
ENDMDL
MODEL 6
REMARK VINA RESULT:      -6.8      0.776      1.107
REMARK  Name = 
REMARK  12 active torsions:
REMARK  status: ('A' for Active; 'I' for Inactive)
REMARK    1  A    between atoms: C_7  and  C_8
REMARK    2  A    between atoms: C_11  and  C_12
REMARK    3  A    between atoms: C_13  and  C_14
REMARK    4  A    between atoms: C_13  and  C_15
REMARK    5  A    between atoms: C_15  and  C_16
REMARK    6  A    between atoms: C_18  and  O_19
REMARK    7  A    between atoms: C_20  and  O_21
REMARK    8  A    between atoms: O_21  and  C_22
REMARK    9  A    between atoms: C_22  and  C_23
REMARK   10  A    between atoms: C_26  and  O_27
REMARK   11  A    between atoms: O_27  and  C_28
REMARK   12  A    between atoms: C_28  and  C_29
REMARK                            x       y       z     vdW  Elec       q    Type
REMARK                         _______ _______ _______ _____ _____    ______ ____
ROOT
ATOM      1  C   UNL     1       2.358   7.983  17.454  0.00  0.00    +0.000 C 
ATOM      2  C   UNL     1       3.121   6.943  17.851  0.00  0.00    +0.000 C 
ATOM      3  C   UNL     1       4.565   6.753  17.508  0.00  0.00    +0.000 C 
ATOM      4  C   UNL     1       4.639   5.228  17.382  0.00  0.00    +0.000 C 
ATOM      5  O   UNL     1       3.756   4.722  18.396  0.00  0.00    +0.000 OA
ATOM      6  C   UNL     1       2.772   5.735  18.696  0.00  0.00    +0.000 C 
ENDROOT
BRANCH   3   7
ATOM      7  O   UNL     1       4.973   7.496  16.375  0.00  0.00    +0.000 OA
ATOM      8  H   UNL     1       5.707   7.018  15.948  0.00  0.00    +0.000 HD
ENDBRANCH   3   7
BRANCH   1   9
ATOM      9  C   UNL     1       0.959   8.306  17.928  0.00  0.00    +0.000 C 
BRANCH   9  22
ATOM     10  C   UNL     1      -1.717  11.210  22.645  0.00  0.00    +0.000 C 
ATOM     11  C   UNL     1      -0.541  10.797  22.138  0.00  0.00    +0.000 C 
ATOM     12  C   UNL     1       0.395   9.981  23.004  0.00  0.00    +0.000 C 
ATOM     13  C   UNL     1       0.697   8.650  22.339  0.00  0.00    +0.000 C 
ATOM     14  C   UNL     1       1.248   8.824  20.923  0.00  0.00    +0.000 C 
ATOM     15  C   UNL     1       0.320   9.691  20.035  0.00  0.00    +0.000 C 
ATOM     16  C   UNL     1      -0.021  11.081  20.706  0.00  0.00    +0.000 C 
ATOM     17  C   UNL     1       1.196  12.025  20.894  0.00  0.00    +0.000 C 
ATOM     18  C   UNL     1      -1.077  11.810  19.827  0.00  0.00    +0.000 C 
ATOM     19  C   UNL     1      -0.715  11.896  18.344  0.00  0.00    +0.000 C 
ATOM     20  C   UNL     1      -0.404  10.524  17.713  0.00  0.00    +0.000 C 
ATOM     21  C   UNL     1      -1.721   9.729  17.576  0.00  0.00    +0.000 C 
ATOM     22  C   UNL     1       0.737   9.765  18.494  0.00  0.00    +0.000 C 
ATOM     23  C   UNL     1       2.084  10.517  18.287  0.00  0.00    +0.000 C 
ENDBRANCH   9  22
ENDBRANCH   1   9
BRANCH   4  24
ATOM     24  O   UNL     1       5.965   4.740  17.637  0.00  0.00    +0.000 OA
BRANCH  24  25
ATOM     25  C   UNL     1       6.585   5.311  18.701  0.00  0.00    +0.000 C 
ATOM     26  C   UNL     1       7.677   6.232  18.245  0.00  0.00    +0.000 C 
ATOM     27  O   UNL     1       6.306   5.105  19.874  0.00  0.00    +0.000 OA
ENDBRANCH  24  25
ENDBRANCH   4  24
BRANCH   6  28
ATOM     28  O   UNL     1       1.482   5.222  18.372  0.00  0.00    +0.000 OA
BRANCH  28  29
ATOM     29  C   UNL     1       1.252   3.947  18.780  0.00  0.00    +0.000 C 
ATOM     30  C   UNL     1       1.079   3.876  20.269  0.00  0.00    +0.000 C 
ATOM     31  O   UNL     1       1.208   2.960  18.058  0.00  0.00    +0.000 OA
ENDBRANCH  28  29
ENDBRANCH   6  28
TORSDOF 7
ENDMDL
MODEL 7
REMARK VINA RESULT:      -6.8      3.311      7.696
REMARK  Name = 
REMARK  12 active torsions:
REMARK  status: ('A' for Active; 'I' for Inactive)
REMARK    1  A    between atoms: C_7  and  C_8
REMARK    2  A    between atoms: C_11  and  C_12
REMARK    3  A    between atoms: C_13  and  C_14
REMARK    4  A    between atoms: C_13  and  C_15
REMARK    5  A    between atoms: C_15  and  C_16
REMARK    6  A    between atoms: C_18  and  O_19
REMARK    7  A    between atoms: C_20  and  O_21
REMARK    8  A    between atoms: O_21  and  C_22
REMARK    9  A    between atoms: C_22  and  C_23
REMARK   10  A    between atoms: C_26  and  O_27
REMARK   11  A    between atoms: O_27  and  C_28
REMARK   12  A    between atoms: C_28  and  C_29
REMARK                            x       y       z     vdW  Elec       q    Type
REMARK                         _______ _______ _______ _____ _____    ______ ____
ROOT
ATOM      1  C   UNL     1       2.293   8.476  18.696  0.00  0.00    +0.000 C 
ATOM      2  C   UNL     1       1.580   9.590  18.965  0.00  0.00    +0.000 C 
ATOM      3  C   UNL     1       1.466  10.779  18.064  0.00  0.00    +0.000 C 
ATOM      4  C   UNL     1       1.395  11.917  19.088  0.00  0.00    +0.000 C 
ATOM      5  O   UNL     1       0.632  11.392  20.185  0.00  0.00    +0.000 OA
ATOM      6  C   UNL     1       0.743   9.953  20.176  0.00  0.00    +0.000 C 
ENDROOT
BRANCH   3   7
ATOM      7  O   UNL     1       2.508  10.858  17.110  0.00  0.00    +0.000 OA
ATOM      8  H   UNL     1       3.219  11.410  17.484  0.00  0.00    +0.000 HD
ENDBRANCH   3   7
BRANCH   1   9
ATOM      9  C   UNL     1       2.283   7.187  19.488  0.00  0.00    +0.000 C 
BRANCH   9  22
ATOM     10  C   UNL     1       4.706   1.578  20.196  0.00  0.00    +0.000 C 
ATOM     11  C   UNL     1       3.556   2.270  20.097  0.00  0.00    +0.000 C 
ATOM     12  C   UNL     1       2.485   2.080  21.149  0.00  0.00    +0.000 C 
ATOM     13  C   UNL     1       2.148   3.410  21.800  0.00  0.00    +0.000 C 
ATOM     14  C   UNL     1       1.749   4.471  20.775  0.00  0.00    +0.000 C 
ATOM     15  C   UNL     1       2.820   4.649  19.668  0.00  0.00    +0.000 C 
ATOM     16  C   UNL     1       3.198   3.279  18.976  0.00  0.00    +0.000 C 
ATOM     17  C   UNL     1       2.043   2.614  18.184  0.00  0.00    +0.000 C 
ATOM     18  C   UNL     1       4.384   3.527  18.002  0.00  0.00    +0.000 C 
ATOM     19  C   UNL     1       4.173   4.688  17.030  0.00  0.00    +0.000 C 
ATOM     20  C   UNL     1       3.822   6.014  17.734  0.00  0.00    +0.000 C 
ATOM     21  C   UNL     1       5.082   6.548  18.448  0.00  0.00    +0.000 C 
ATOM     22  C   UNL     1       2.558   5.866  18.667  0.00  0.00    +0.000 C 
ATOM     23  C   UNL     1       1.297   5.637  17.784  0.00  0.00    +0.000 C 
ENDBRANCH   9  22
ENDBRANCH   1   9
BRANCH   4  24
ATOM     24  O   UNL     1       0.715  13.064  18.557  0.00  0.00    +0.000 OA
BRANCH  24  25
ATOM     25  C   UNL     1      -0.635  13.038  18.694  0.00  0.00    +0.000 C 
ATOM     26  C   UNL     1      -1.075  13.982  19.773  0.00  0.00    +0.000 C 
ATOM     27  O   UNL     1      -1.397  12.342  18.038  0.00  0.00    +0.000 OA
ENDBRANCH  24  25
ENDBRANCH   4  24
BRANCH   6  28
ATOM     28  O   UNL     1       1.368   9.540  21.388  0.00  0.00    +0.000 OA
BRANCH  28  29
ATOM     29  C   UNL     1       0.514   9.250  22.404  0.00  0.00    +0.000 C 
ATOM     30  C   UNL     1      -0.605   8.366  21.938  0.00  0.00    +0.000 C 
ATOM     31  O   UNL     1       0.603   9.659  23.554  0.00  0.00    +0.000 OA
ENDBRANCH  28  29
ENDBRANCH   6  28
TORSDOF 7
ENDMDL
MODEL 8
REMARK VINA RESULT:      -6.8      1.420      1.783
REMARK  Name = 
REMARK  12 active torsions:
REMARK  status: ('A' for Active; 'I' for Inactive)
REMARK    1  A    between atoms: C_7  and  C_8
REMARK    2  A    between atoms: C_11  and  C_12
REMARK    3  A    between atoms: C_13  and  C_14
REMARK    4  A    between atoms: C_13  and  C_15
REMARK    5  A    between atoms: C_15  and  C_16
REMARK    6  A    between atoms: C_18  and  O_19
REMARK    7  A    between atoms: C_20  and  O_21
REMARK    8  A    between atoms: O_21  and  C_22
REMARK    9  A    between atoms: C_22  and  C_23
REMARK   10  A    between atoms: C_26  and  O_27
REMARK   11  A    between atoms: O_27  and  C_28
REMARK   12  A    between atoms: C_28  and  C_29
REMARK                            x       y       z     vdW  Elec       q    Type
REMARK                         _______ _______ _______ _____ _____    ______ ____
ROOT
ATOM      1  C   UNL     1       1.917   8.290  18.189  0.00  0.00    +0.000 C 
ATOM      2  C   UNL     1       2.852   7.348  18.432  0.00  0.00    +0.000 C 
ATOM      3  C   UNL     1       4.083   7.123  17.613  0.00  0.00    +0.000 C 
ATOM      4  C   UNL     1       4.227   5.600  17.711  0.00  0.00    +0.000 C 
ATOM      5  O   UNL     1       3.816   5.267  19.046  0.00  0.00    +0.000 OA
ATOM      6  C   UNL     1       2.931   6.302  19.526  0.00  0.00    +0.000 C 
ENDROOT
BRANCH   3   7
ATOM      7  O   UNL     1       3.990   7.660  16.307  0.00  0.00    +0.000 OA
ATOM      8  H   UNL     1       3.087   7.503  15.978  0.00  0.00    +0.000 HD
ENDBRANCH   3   7
BRANCH   1   9
ATOM      9  C   UNL     1       0.764   8.670  19.092  0.00  0.00    +0.000 C 
BRANCH   9  22
ATOM     10  C   UNL     1      -3.132  12.541  21.863  0.00  0.00    +0.000 C 
ATOM     11  C   UNL     1      -1.852  12.126  21.808  0.00  0.00    +0.000 C 
ATOM     12  C   UNL     1      -1.152  11.713  23.086  0.00  0.00    +0.000 C 
ATOM     13  C   UNL     1      -0.648  10.286  22.968  0.00  0.00    +0.000 C 
ATOM     14  C   UNL     1       0.248  10.088  21.746  0.00  0.00    +0.000 C 
ATOM     15  C   UNL     1      -0.442  10.543  20.434  0.00  0.00    +0.000 C 
ATOM     16  C   UNL     1      -0.986  12.024  20.527  0.00  0.00    +0.000 C 
ATOM     17  C   UNL     1       0.112  13.108  20.691  0.00  0.00    +0.000 C 
ATOM     18  C   UNL     1      -1.796  12.337  19.238  0.00  0.00    +0.000 C 
ATOM     19  C   UNL     1      -1.063  12.014  17.936  0.00  0.00    +0.000 C 
ATOM     20  C   UNL     1      -0.559  10.559  17.866  0.00  0.00    +0.000 C 
ATOM     21  C   UNL     1      -1.770   9.620  17.678  0.00  0.00    +0.000 C 
ATOM     22  C   UNL     1       0.360  10.198  19.096  0.00  0.00    +0.000 C 
ATOM     23  C   UNL     1       1.692  10.996  18.988  0.00  0.00    +0.000 C 
ENDBRANCH   9  22
ENDBRANCH   1   9
BRANCH   4  24
ATOM     24  O   UNL     1       5.589   5.186  17.528  0.00  0.00    +0.000 OA
BRANCH  24  25
ATOM     25  C   UNL     1       6.450   5.626  18.481  0.00  0.00    +0.000 C 
ATOM     26  C   UNL     1       7.410   6.624  17.906  0.00  0.00    +0.000 C 
ATOM     27  O   UNL     1       6.454   5.262  19.649  0.00  0.00    +0.000 OA
ENDBRANCH  24  25
ENDBRANCH   4  24
BRANCH   6  28
ATOM     28  O   UNL     1       1.656   5.721  19.790  0.00  0.00    +0.000 OA
BRANCH  28  29
ATOM     29  C   UNL     1       1.688   4.571  20.513  0.00  0.00    +0.000 C 
ATOM     30  C   UNL     1       0.913   3.481  19.834  0.00  0.00    +0.000 C 
ATOM     31  O   UNL     1       2.246   4.418  21.591  0.00  0.00    +0.000 OA
ENDBRANCH  28  29
ENDBRANCH   6  28
TORSDOF 7
ENDMDL
MODEL 9
REMARK VINA RESULT:      -6.7      0.965      1.187
REMARK  Name = 
REMARK  12 active torsions:
REMARK  status: ('A' for Active; 'I' for Inactive)
REMARK    1  A    between atoms: C_7  and  C_8
REMARK    2  A    between atoms: C_11  and  C_12
REMARK    3  A    between atoms: C_13  and  C_14
REMARK    4  A    between atoms: C_13  and  C_15
REMARK    5  A    between atoms: C_15  and  C_16
REMARK    6  A    between atoms: C_18  and  O_19
REMARK    7  A    between atoms: C_20  and  O_21
REMARK    8  A    between atoms: O_21  and  C_22
REMARK    9  A    between atoms: C_22  and  C_23
REMARK   10  A    between atoms: C_26  and  O_27
REMARK   11  A    between atoms: O_27  and  C_28
REMARK   12  A    between atoms: C_28  and  C_29
REMARK                            x       y       z     vdW  Elec       q    Type
REMARK                         _______ _______ _______ _____ _____    ______ ____
ROOT
ATOM      1  C   UNL     1       2.462   7.732  17.719  0.00  0.00    +0.000 C 
ATOM      2  C   UNL     1       3.153   6.791  18.394  0.00  0.00    +0.000 C 
ATOM      3  C   UNL     1       4.621   6.535  18.256  0.00  0.00    +0.000 C 
ATOM      4  C   UNL     1       4.673   5.015  18.444  0.00  0.00    +0.000 C 
ATOM      5  O   UNL     1       3.675   4.722  19.434  0.00  0.00    +0.000 OA
ATOM      6  C   UNL     1       2.688   5.776  19.418  0.00  0.00    +0.000 C 
ENDROOT
BRANCH   3   7
ATOM      7  O   UNL     1       5.165   7.037  17.050  0.00  0.00    +0.000 OA
ATOM      8  H   UNL     1       4.723   7.881  16.847  0.00  0.00    +0.000 HD
ENDBRANCH   3   7
BRANCH   1   9
ATOM      9  C   UNL     1       1.027   8.145  17.963  0.00  0.00    +0.000 C 
BRANCH   9  22
ATOM     10  C   UNL     1      -1.722  11.221  22.526  0.00  0.00    +0.000 C 
ATOM     11  C   UNL     1      -0.539  10.781  22.058  0.00  0.00    +0.000 C 
ATOM     12  C   UNL     1       0.368   9.983  22.971  0.00  0.00    +0.000 C 
ATOM     13  C   UNL     1       0.671   8.629  22.354  0.00  0.00    +0.000 C 
ATOM     14  C   UNL     1       1.255   8.753  20.947  0.00  0.00    +0.000 C 
ATOM     15  C   UNL     1       0.356   9.602  20.011  0.00  0.00    +0.000 C 
ATOM     16  C   UNL     1       0.015  11.015  20.630  0.00  0.00    +0.000 C 
ATOM     17  C   UNL     1       1.237  11.952  20.816  0.00  0.00    +0.000 C 
ATOM     18  C   UNL     1      -1.012  11.727  19.705  0.00  0.00    +0.000 C 
ATOM     19  C   UNL     1      -0.617  11.762  18.229  0.00  0.00    +0.000 C 
ATOM     20  C   UNL     1      -0.307  10.368  17.648  0.00  0.00    +0.000 C 
ATOM     21  C   UNL     1      -1.628   9.582  17.506  0.00  0.00    +0.000 C 
ATOM     22  C   UNL     1       0.808   9.623  18.479  0.00  0.00    +0.000 C 
ATOM     23  C   UNL     1       2.168  10.355  18.279  0.00  0.00    +0.000 C 
ENDBRANCH   9  22
ENDBRANCH   1   9
BRANCH   4  24
ATOM     24  O   UNL     1       5.952   4.586  18.934  0.00  0.00    +0.000 OA
BRANCH  24  25
ATOM     25  C   UNL     1       7.006   4.937  18.154  0.00  0.00    +0.000 C 
ATOM     26  C   UNL     1       7.955   5.816  18.912  0.00  0.00    +0.000 C 
ATOM     27  O   UNL     1       7.167   4.595  16.990  0.00  0.00    +0.000 OA
ENDBRANCH  24  25
ENDBRANCH   4  24
BRANCH   6  28
ATOM     28  O   UNL     1       1.429   5.211  19.063  0.00  0.00    +0.000 OA
BRANCH  28  29
ATOM     29  C   UNL     1       1.152   4.014  19.644  0.00  0.00    +0.000 C 
ATOM     30  C   UNL     1       0.995   2.934  18.614  0.00  0.00    +0.000 C 
ATOM     31  O   UNL     1       1.018   3.813  20.843  0.00  0.00    +0.000 OA
ENDBRANCH  28  29
ENDBRANCH   6  28
TORSDOF 7
ENDMDL
