MODEL 1
REMARK VINA RESULT:      -6.9      0.000      0.000
REMARK  Name = 
REMARK  13 active torsions:
REMARK  status: ('A' for Active; 'I' for Inactive)
REMARK    1  A    between atoms: C_1  and  O_2
REMARK    2  A    between atoms: O_2  and  C_3
REMARK    3  A    between atoms: C_3  and  C_5
REMARK    4  A    between atoms: N_12  and  C_13
REMARK    5  A    between atoms: C_19  and  O_20
REMARK    6  A    between atoms: O_20  and  C_21
REMARK    7  A    between atoms: C_21  and  C_22
REMARK    8  A    between atoms: C_21  and  C_23
REMARK    9  A    between atoms: C_23  and  C_24
REMARK   10  A    between atoms: C_24  and  N_25
REMARK   11  A    between atoms: N_25  and  C_26
REMARK   12  A    between atoms: N_25  and  C_27
REMARK   13  A    between atoms: C_29  and  C_30
REMARK                            x       y       z     vdW  Elec       q    Type
REMARK                         _______ _______ _______ _____ _____    ______ ____
ROOT
ATOM      1  C   UNL     1      -0.605  11.285  19.186  0.00  0.00    +0.000 A 
ATOM      2  S   UNL     1      -0.700  11.605  20.860  0.00  0.00    +0.000 S 
ATOM      3  C   UNL     1       0.266  10.275  21.249  0.00  0.00    +0.000 A 
ATOM      4  N   UNL     1       0.508  10.031  22.545  0.00  0.00    +0.000 NA
ATOM      5  C   UNL     1       1.285   8.975  22.727  0.00  0.00    +0.000 A 
ATOM      6  N   UNL     1       1.806   8.202  21.775  0.00  0.00    +0.000 NA
ATOM      7  C   UNL     1       1.539   8.445  20.462  0.00  0.00    +0.000 A 
ATOM      8  N   UNL     1       2.115   7.551  19.544  0.00  0.00    +0.000 N 
ATOM      9  C   UNL     1       0.712   9.557  20.146  0.00  0.00    +0.000 A 
ATOM     10  C   UNL     1       0.140  10.129  18.921  0.00  0.00    +0.000 A 
ATOM     11  C   UNL     1       0.287   9.584  17.532  0.00  0.00    +0.000 C 
ATOM     12  H   UNL     1       2.135   7.825  18.575  0.00  0.00    +0.000 HD
ENDROOT
BRANCH   8  13
ATOM     13  C   UNL     1       2.234   6.151  19.730  0.00  0.00    +0.000 A 
ATOM     14  C   UNL     1       1.396   5.514  20.675  0.00  0.00    +0.000 A 
ATOM     15  C   UNL     1       1.425   4.138  20.881  0.00  0.00    +0.000 A 
ATOM     16  C   UNL     1       2.295   3.370  20.131  0.00  0.00    +0.000 A 
ATOM     17  F   UNL     1       2.320   2.041  20.306  0.00  0.00    +0.000 F 
ATOM     18  C   UNL     1       3.146   3.958  19.206  0.00  0.00    +0.000 A 
ATOM     19  C   UNL     1       3.152   5.350  19.021  0.00  0.00    +0.000 A 
BRANCH  19  20
ATOM     20  O   UNL     1       4.097   5.749  18.116  0.00  0.00    +0.000 OA
BRANCH  20  21
ATOM     21  C   UNL     1       4.745   4.784  17.276  0.00  0.00    +0.000 C 
ATOM     22  C   UNL     1       4.846   5.234  15.817  0.00  0.00    +0.000 C 
BRANCH  21  23
ATOM     23  C   UNL     1       6.169   4.592  17.835  0.00  0.00    +0.000 C 
BRANCH  23  24
ATOM     24  C   UNL     1       7.240   5.387  17.074  0.00  0.00    +0.000 C 
BRANCH  24  25
ATOM     25  N   UNL     1       8.024   6.317  17.908  0.00  0.00    +0.000 NA
ATOM     26  C   UNL     1       7.632   7.713  17.697  0.00  0.00    +0.000 C 
ATOM     27  C   UNL     1       7.861   5.967  19.321  0.00  0.00    +0.000 C 
ENDBRANCH  24  25
ENDBRANCH  23  24
ENDBRANCH  21  23
ENDBRANCH  20  21
ENDBRANCH  19  20
ENDBRANCH   8  13
BRANCH   1  28
ATOM     28  C   UNL     1      -1.276  12.164  18.229  0.00  0.00    +0.000 C 
ATOM     29  O   UNL     1      -0.798  13.187  17.757  0.00  0.00    +0.000 OA
BRANCH  28  31
ATOM     30  C   UNL     1      -2.725  11.322  16.573  0.00  0.00    +0.000 C 
ATOM     31  O   UNL     1      -2.534  11.716  17.931  0.00  0.00    +0.000 OA
ENDBRANCH  28  31
ENDBRANCH   1  28
TORSDOF 8
ENDMDL
MODEL 2
REMARK VINA RESULT:      -6.8      3.443      8.337
REMARK  Name = 
REMARK  13 active torsions:
REMARK  status: ('A' for Active; 'I' for Inactive)
REMARK    1  A    between atoms: C_1  and  O_2
REMARK    2  A    between atoms: O_2  and  C_3
REMARK    3  A    between atoms: C_3  and  C_5
REMARK    4  A    between atoms: N_12  and  C_13
REMARK    5  A    between atoms: C_19  and  O_20
REMARK    6  A    between atoms: O_20  and  C_21
REMARK    7  A    between atoms: C_21  and  C_22
REMARK    8  A    between atoms: C_21  and  C_23
REMARK    9  A    between atoms: C_23  and  C_24
REMARK   10  A    between atoms: C_24  and  N_25
REMARK   11  A    between atoms: N_25  and  C_26
REMARK   12  A    between atoms: N_25  and  C_27
REMARK   13  A    between atoms: C_29  and  C_30
REMARK                            x       y       z     vdW  Elec       q    Type
REMARK                         _______ _______ _______ _____ _____    ______ ____
ROOT
ATOM      1  C   UNL     1       5.792   5.052  16.622  0.00  0.00    +0.000 A 
ATOM      2  S   UNL     1       4.897   3.599  16.633  0.00  0.00    +0.000 S 
ATOM      3  C   UNL     1       3.532   4.354  17.284  0.00  0.00    +0.000 A 
ATOM      4  N   UNL     1       2.455   3.597  17.536  0.00  0.00    +0.000 NA
ATOM      5  C   UNL     1       1.445   4.297  18.029  0.00  0.00    +0.000 A 
ATOM      6  N   UNL     1       1.433   5.607  18.268  0.00  0.00    +0.000 NA
ATOM      7  C   UNL     1       2.539   6.366  18.028  0.00  0.00    +0.000 A 
ATOM      8  N   UNL     1       2.425   7.730  18.343  0.00  0.00    +0.000 N 
ATOM      9  C   UNL     1       3.686   5.719  17.495  0.00  0.00    +0.000 A 
ATOM     10  C   UNL     1       5.057   6.118  17.155  0.00  0.00    +0.000 A 
ATOM     11  C   UNL     1       5.660   7.479  17.343  0.00  0.00    +0.000 C 
ATOM     12  H   UNL     1       3.123   8.355  17.971  0.00  0.00    +0.000 HD
ENDROOT
BRANCH   8  13
ATOM     13  C   UNL     1       1.753   8.256  19.474  0.00  0.00    +0.000 A 
ATOM     14  C   UNL     1       1.725   7.495  20.666  0.00  0.00    +0.000 A 
ATOM     15  C   UNL     1       1.123   7.964  21.830  0.00  0.00    +0.000 A 
ATOM     16  C   UNL     1       0.542   9.218  21.821  0.00  0.00    +0.000 A 
ATOM     17  F   UNL     1      -0.026   9.689  22.940  0.00  0.00    +0.000 F 
ATOM     18  C   UNL     1       0.532   9.988  20.667  0.00  0.00    +0.000 A 
ATOM     19  C   UNL     1       1.102   9.506  19.477  0.00  0.00    +0.000 A 
BRANCH  19  20
ATOM     20  O   UNL     1       0.942  10.377  18.435  0.00  0.00    +0.000 OA
BRANCH  20  21
ATOM     21  C   UNL     1       0.741  11.775  18.687  0.00  0.00    +0.000 C 
ATOM     22  C   UNL     1       1.966  12.626  18.345  0.00  0.00    +0.000 C 
BRANCH  21  23
ATOM     23  C   UNL     1      -0.437  12.222  17.799  0.00  0.00    +0.000 C 
BRANCH  23  24
ATOM     24  C   UNL     1      -1.761  11.521  18.137  0.00  0.00    +0.000 C 
BRANCH  24  25
ATOM     25  N   UNL     1      -2.174  10.487  17.169  0.00  0.00    +0.000 NA
ATOM     26  C   UNL     1      -3.193   9.590  17.720  0.00  0.00    +0.000 C 
ATOM     27  C   UNL     1      -2.684  11.127  15.954  0.00  0.00    +0.000 C 
ENDBRANCH  24  25
ENDBRANCH  23  24
ENDBRANCH  21  23
ENDBRANCH  20  21
ENDBRANCH  19  20
ENDBRANCH   8  13
BRANCH   1  28
ATOM     28  C   UNL     1       7.163   5.068  16.113  0.00  0.00    +0.000 C 
ATOM     29  O   UNL     1       7.528   5.621  15.085  0.00  0.00    +0.000 OA
BRANCH  28  31
ATOM     30  C   UNL     1       7.985   4.742  18.298  0.00  0.00    +0.000 C 
ATOM     31  O   UNL     1       8.008   4.358  16.924  0.00  0.00    +0.000 OA
ENDBRANCH  28  31
ENDBRANCH   1  28
TORSDOF 8
ENDMDL
MODEL 3
REMARK VINA RESULT:      -6.8      1.512      1.996
REMARK  Name = 
REMARK  13 active torsions:
REMARK  status: ('A' for Active; 'I' for Inactive)
REMARK    1  A    between atoms: C_1  and  O_2
REMARK    2  A    between atoms: O_2  and  C_3
REMARK    3  A    between atoms: C_3  and  C_5
REMARK    4  A    between atoms: N_12  and  C_13
REMARK    5  A    between atoms: C_19  and  O_20
REMARK    6  A    between atoms: O_20  and  C_21
REMARK    7  A    between atoms: C_21  and  C_22
REMARK    8  A    between atoms: C_21  and  C_23
REMARK    9  A    between atoms: C_23  and  C_24
REMARK   10  A    between atoms: C_24  and  N_25
REMARK   11  A    between atoms: N_25  and  C_26
REMARK   12  A    between atoms: N_25  and  C_27
REMARK   13  A    between atoms: C_29  and  C_30
REMARK                            x       y       z     vdW  Elec       q    Type
REMARK                         _______ _______ _______ _____ _____    ______ ____
ROOT
ATOM      1  C   UNL     1       0.540  12.070  19.335  0.00  0.00    +0.000 A 
ATOM      2  S   UNL     1      -0.457  12.094  20.719  0.00  0.00    +0.000 S 
ATOM      3  C   UNL     1      -0.038  10.513  21.145  0.00  0.00    +0.000 A 
ATOM      4  N   UNL     1      -0.607   9.984  22.237  0.00  0.00    +0.000 NA
ATOM      5  C   UNL     1      -0.193   8.750  22.479  0.00  0.00    +0.000 A 
ATOM      6  N   UNL     1       0.689   8.057  21.762  0.00  0.00    +0.000 NA
ATOM      7  C   UNL     1       1.248   8.594  20.642  0.00  0.00    +0.000 A 
ATOM      8  N   UNL     1       2.143   7.765  19.946  0.00  0.00    +0.000 N 
ATOM      9  C   UNL     1       0.876   9.919  20.284  0.00  0.00    +0.000 A 
ATOM     10  C   UNL     1       1.172  10.830  19.173  0.00  0.00    +0.000 A 
ATOM     11  C   UNL     1       2.025  10.528  17.976  0.00  0.00    +0.000 C 
ATOM     12  H   UNL     1       2.742   8.197  19.260  0.00  0.00    +0.000 HD
ENDROOT
BRANCH   8  13
ATOM     13  C   UNL     1       1.981   6.371  19.746  0.00  0.00    +0.000 A 
ATOM     14  C   UNL     1       1.395   5.598  20.775  0.00  0.00    +0.000 A 
ATOM     15  C   UNL     1       1.164   4.233  20.635  0.00  0.00    +0.000 A 
ATOM     16  C   UNL     1       1.511   3.617  19.448  0.00  0.00    +0.000 A 
ATOM     17  F   UNL     1       1.277   2.306  19.293  0.00  0.00    +0.000 F 
ATOM     18  C   UNL     1       2.105   4.336  18.421  0.00  0.00    +0.000 A 
ATOM     19  C   UNL     1       2.378   5.706  18.570  0.00  0.00    +0.000 A 
BRANCH  19  20
ATOM     20  O   UNL     1       3.019   6.228  17.479  0.00  0.00    +0.000 OA
BRANCH  20  21
ATOM     21  C   UNL     1       4.372   5.852  17.189  0.00  0.00    +0.000 C 
ATOM     22  C   UNL     1       4.970   6.630  16.015  0.00  0.00    +0.000 C 
BRANCH  21  23
ATOM     23  C   UNL     1       5.199   6.153  18.455  0.00  0.00    +0.000 C 
BRANCH  23  24
ATOM     24  C   UNL     1       5.937   4.926  19.012  0.00  0.00    +0.000 C 
BRANCH  24  25
ATOM     25  N   UNL     1       7.390   4.913  18.755  0.00  0.00    +0.000 NA
ATOM     26  C   UNL     1       7.708   4.427  17.410  0.00  0.00    +0.000 C 
ATOM     27  C   UNL     1       7.932   6.262  18.934  0.00  0.00    +0.000 C 
ENDBRANCH  24  25
ENDBRANCH  23  24
ENDBRANCH  21  23
ENDBRANCH  20  21
ENDBRANCH  19  20
ENDBRANCH   8  13
BRANCH   1  28
ATOM     28  C   UNL     1       0.637  13.250  18.476  0.00  0.00    +0.000 C 
ATOM     29  O   UNL     1      -0.314  13.878  18.030  0.00  0.00    +0.000 OA
BRANCH  28  31
ATOM     30  C   UNL     1       2.291  14.928  18.446  0.00  0.00    +0.000 C 
ATOM     31  O   UNL     1       1.940  13.566  18.202  0.00  0.00    +0.000 OA
ENDBRANCH  28  31
ENDBRANCH   1  28
TORSDOF 8
ENDMDL
MODEL 4
REMARK VINA RESULT:      -6.7      1.180      1.688
REMARK  Name = 
REMARK  13 active torsions:
REMARK  status: ('A' for Active; 'I' for Inactive)
REMARK    1  A    between atoms: C_1  and  O_2
REMARK    2  A    between atoms: O_2  and  C_3
REMARK    3  A    between atoms: C_3  and  C_5
REMARK    4  A    between atoms: N_12  and  C_13
REMARK    5  A    between atoms: C_19  and  O_20
REMARK    6  A    between atoms: O_20  and  C_21
REMARK    7  A    between atoms: C_21  and  C_22
REMARK    8  A    between atoms: C_21  and  C_23
REMARK    9  A    between atoms: C_23  and  C_24
REMARK   10  A    between atoms: C_24  and  N_25
REMARK   11  A    between atoms: N_25  and  C_26
REMARK   12  A    between atoms: N_25  and  C_27
REMARK   13  A    between atoms: C_29  and  C_30
REMARK                            x       y       z     vdW  Elec       q    Type
REMARK                         _______ _______ _______ _____ _____    ______ ____
ROOT
ATOM      1  C   UNL     1      -0.461  11.357  19.134  0.00  0.00    +0.000 A 
ATOM      2  S   UNL     1      -0.686  11.675  20.796  0.00  0.00    +0.000 S 
ATOM      3  C   UNL     1       0.236  10.336  21.257  0.00  0.00    +0.000 A 
ATOM      4  N   UNL     1       0.372  10.088  22.568  0.00  0.00    +0.000 NA
ATOM      5  C   UNL     1       1.124   9.025  22.808  0.00  0.00    +0.000 A 
ATOM      6  N   UNL     1       1.712   8.250  21.900  0.00  0.00    +0.000 NA
ATOM      7  C   UNL     1       1.552   8.497  20.570  0.00  0.00    +0.000 A 
ATOM      8  N   UNL     1       2.192   7.600  19.699  0.00  0.00    +0.000 N 
ATOM      9  C   UNL     1       0.762   9.617  20.191  0.00  0.00    +0.000 A 
ATOM     10  C   UNL     1       0.294  10.195  18.927  0.00  0.00    +0.000 A 
ATOM     11  C   UNL     1       0.546   9.651  17.552  0.00  0.00    +0.000 C 
ATOM     12  H   UNL     1       2.291   7.875  18.734  0.00  0.00    +0.000 HD
ENDROOT
BRANCH   8  13
ATOM     13  C   UNL     1       2.285   6.198  19.890  0.00  0.00    +0.000 A 
ATOM     14  C   UNL     1       1.195   5.516  20.479  0.00  0.00    +0.000 A 
ATOM     15  C   UNL     1       1.196   4.136  20.659  0.00  0.00    +0.000 A 
ATOM     16  C   UNL     1       2.293   3.410  20.239  0.00  0.00    +0.000 A 
ATOM     17  F   UNL     1       2.299   2.078  20.390  0.00  0.00    +0.000 F 
ATOM     18  C   UNL     1       3.391   4.044  19.673  0.00  0.00    +0.000 A 
ATOM     19  C   UNL     1       3.414   5.440  19.525  0.00  0.00    +0.000 A 
BRANCH  19  20
ATOM     20  O   UNL     1       4.599   5.886  19.006  0.00  0.00    +0.000 OA
BRANCH  20  21
ATOM     21  C   UNL     1       4.642   6.460  17.692  0.00  0.00    +0.000 C 
ATOM     22  C   UNL     1       5.961   7.176  17.395  0.00  0.00    +0.000 C 
BRANCH  21  23
ATOM     23  C   UNL     1       4.471   5.299  16.693  0.00  0.00    +0.000 C 
BRANCH  23  24
ATOM     24  C   UNL     1       5.333   5.445  15.430  0.00  0.00    +0.000 C 
BRANCH  24  25
ATOM     25  N   UNL     1       6.151   4.261  15.103  0.00  0.00    +0.000 NA
ATOM     26  C   UNL     1       6.698   4.325  13.746  0.00  0.00    +0.000 C 
ATOM     27  C   UNL     1       7.244   4.136  16.071  0.00  0.00    +0.000 C 
ENDBRANCH  24  25
ENDBRANCH  23  24
ENDBRANCH  21  23
ENDBRANCH  20  21
ENDBRANCH  19  20
ENDBRANCH   8  13
BRANCH   1  28
ATOM     28  C   UNL     1      -1.046  12.243  18.129  0.00  0.00    +0.000 C 
ATOM     29  O   UNL     1      -0.666  13.380  17.884  0.00  0.00    +0.000 OA
BRANCH  28  31
ATOM     30  C   UNL     1      -3.230  11.381  18.330  0.00  0.00    +0.000 C 
ATOM     31  O   UNL     1      -2.106  11.653  17.494  0.00  0.00    +0.000 OA
ENDBRANCH  28  31
ENDBRANCH   1  28
TORSDOF 8
ENDMDL
MODEL 5
REMARK VINA RESULT:      -6.7      4.424      7.067
REMARK  Name = 
REMARK  13 active torsions:
REMARK  status: ('A' for Active; 'I' for Inactive)
REMARK    1  A    between atoms: C_1  and  O_2
REMARK    2  A    between atoms: O_2  and  C_3
REMARK    3  A    between atoms: C_3  and  C_5
REMARK    4  A    between atoms: N_12  and  C_13
REMARK    5  A    between atoms: C_19  and  O_20
REMARK    6  A    between atoms: O_20  and  C_21
REMARK    7  A    between atoms: C_21  and  C_22
REMARK    8  A    between atoms: C_21  and  C_23
REMARK    9  A    between atoms: C_23  and  C_24
REMARK   10  A    between atoms: C_24  and  N_25
REMARK   11  A    between atoms: N_25  and  C_26
REMARK   12  A    between atoms: N_25  and  C_27
REMARK   13  A    between atoms: C_29  and  C_30
REMARK                            x       y       z     vdW  Elec       q    Type
REMARK                         _______ _______ _______ _____ _____    ______ ____
ROOT
ATOM      1  C   UNL     1      -6.143  12.587  19.236  0.00  0.00    +0.000 A 
ATOM      2  S   UNL     1      -6.477  12.094  17.637  0.00  0.00    +0.000 S 
ATOM      3  C   UNL     1      -4.872  11.647  17.356  0.00  0.00    +0.000 A 
ATOM      4  N   UNL     1      -4.554  11.177  16.141  0.00  0.00    +0.000 NA
ATOM      5  C   UNL     1      -3.275  10.847  16.042  0.00  0.00    +0.000 A 
ATOM      6  N   UNL     1      -2.357  10.942  17.002  0.00  0.00    +0.000 NA
ATOM      7  C   UNL     1      -2.685  11.441  18.227  0.00  0.00    +0.000 A 
ATOM      8  N   UNL     1      -1.633  11.525  19.155  0.00  0.00    +0.000 N 
ATOM      9  C   UNL     1      -4.034  11.828  18.449  0.00  0.00    +0.000 A 
ATOM     10  C   UNL     1      -4.785  12.445  19.548  0.00  0.00    +0.000 A 
ATOM     11  C   UNL     1      -4.224  12.902  20.863  0.00  0.00    +0.000 C 
ATOM     12  H   UNL     1      -1.875  11.664  20.123  0.00  0.00    +0.000 HD
ENDROOT
BRANCH   8  13
ATOM     13  C   UNL     1      -0.302  11.907  18.852  0.00  0.00    +0.000 A 
ATOM     14  C   UNL     1      -0.029  13.267  18.577  0.00  0.00    +0.000 A 
ATOM     15  C   UNL     1       1.259  13.725  18.315  0.00  0.00    +0.000 A 
ATOM     16  C   UNL     1       2.304  12.822  18.333  0.00  0.00    +0.000 A 
ATOM     17  F   UNL     1       3.552  13.252  18.100  0.00  0.00    +0.000 F 
ATOM     18  C   UNL     1       2.076  11.475  18.581  0.00  0.00    +0.000 A 
ATOM     19  C   UNL     1       0.774  10.999  18.807  0.00  0.00    +0.000 A 
BRANCH  19  20
ATOM     20  O   UNL     1       0.740   9.641  18.970  0.00  0.00    +0.000 OA
BRANCH  20  21
ATOM     21  C   UNL     1       1.379   9.034  20.102  0.00  0.00    +0.000 C 
ATOM     22  C   UNL     1       0.405   8.713  21.238  0.00  0.00    +0.000 C 
BRANCH  21  23
ATOM     23  C   UNL     1       2.010   7.719  19.604  0.00  0.00    +0.000 C 
BRANCH  23  24
ATOM     24  C   UNL     1       1.753   6.524  20.535  0.00  0.00    +0.000 C 
BRANCH  24  25
ATOM     25  N   UNL     1       2.552   5.322  20.229  0.00  0.00    +0.000 NA
ATOM     26  C   UNL     1       2.182   4.183  21.072  0.00  0.00    +0.000 C 
ATOM     27  C   UNL     1       2.384   4.967  18.817  0.00  0.00    +0.000 C 
ENDBRANCH  24  25
ENDBRANCH  23  24
ENDBRANCH  21  23
ENDBRANCH  20  21
ENDBRANCH  19  20
ENDBRANCH   8  13
BRANCH   1  28
ATOM     28  C   UNL     1      -7.215  13.100  20.088  0.00  0.00    +0.000 C 
ATOM     29  O   UNL     1      -7.459  14.284  20.279  0.00  0.00    +0.000 OA
BRANCH  28  31
ATOM     30  C   UNL     1      -7.637  11.890  22.065  0.00  0.00    +0.000 C 
ATOM     31  O   UNL     1      -7.916  12.084  20.679  0.00  0.00    +0.000 OA
ENDBRANCH  28  31
ENDBRANCH   1  28
TORSDOF 8
ENDMDL
MODEL 6
REMARK VINA RESULT:      -6.7      1.231      1.930
REMARK  Name = 
REMARK  13 active torsions:
REMARK  status: ('A' for Active; 'I' for Inactive)
REMARK    1  A    between atoms: C_1  and  O_2
REMARK    2  A    between atoms: O_2  and  C_3
REMARK    3  A    between atoms: C_3  and  C_5
REMARK    4  A    between atoms: N_12  and  C_13
REMARK    5  A    between atoms: C_19  and  O_20
REMARK    6  A    between atoms: O_20  and  C_21
REMARK    7  A    between atoms: C_21  and  C_22
REMARK    8  A    between atoms: C_21  and  C_23
REMARK    9  A    between atoms: C_23  and  C_24
REMARK   10  A    between atoms: C_24  and  N_25
REMARK   11  A    between atoms: N_25  and  C_26
REMARK   12  A    between atoms: N_25  and  C_27
REMARK   13  A    between atoms: C_29  and  C_30
REMARK                            x       y       z     vdW  Elec       q    Type
REMARK                         _______ _______ _______ _____ _____    ______ ____
ROOT
ATOM      1  C   UNL     1      -1.000  11.221  19.540  0.00  0.00    +0.000 A 
ATOM      2  S   UNL     1      -0.981  11.558  21.213  0.00  0.00    +0.000 S 
ATOM      3  C   UNL     1       0.091  10.292  21.535  0.00  0.00    +0.000 A 
ATOM      4  N   UNL     1       0.449  10.081  22.810  0.00  0.00    +0.000 NA
ATOM      5  C   UNL     1       1.300   9.075  22.939  0.00  0.00    +0.000 A 
ATOM      6  N   UNL     1       1.789   8.321  21.955  0.00  0.00    +0.000 NA
ATOM      7  C   UNL     1       1.404   8.530  20.665  0.00  0.00    +0.000 A 
ATOM      8  N   UNL     1       1.958   7.659  19.713  0.00  0.00    +0.000 N 
ATOM      9  C   UNL     1       0.490   9.587  20.407  0.00  0.00    +0.000 A 
ATOM     10  C   UNL     1      -0.210  10.107  19.227  0.00  0.00    +0.000 A 
ATOM     11  C   UNL     1      -0.142   9.552  17.835  0.00  0.00    +0.000 C 
ATOM     12  H   UNL     1       1.885   7.920  18.742  0.00  0.00    +0.000 HD
ENDROOT
BRANCH   8  13
ATOM     13  C   UNL     1       2.176   6.271  19.901  0.00  0.00    +0.000 A 
ATOM     14  C   UNL     1       1.167   5.500  20.525  0.00  0.00    +0.000 A 
ATOM     15  C   UNL     1       1.290   4.126  20.704  0.00  0.00    +0.000 A 
ATOM     16  C   UNL     1       2.431   3.494  20.249  0.00  0.00    +0.000 A 
ATOM     17  F   UNL     1       2.554   2.168  20.400  0.00  0.00    +0.000 F 
ATOM     18  C   UNL     1       3.452   4.216  19.648  0.00  0.00    +0.000 A 
ATOM     19  C   UNL     1       3.353   5.610  19.499  0.00  0.00    +0.000 A 
BRANCH  19  20
ATOM     20  O   UNL     1       4.479   6.153  18.943  0.00  0.00    +0.000 OA
BRANCH  20  21
ATOM     21  C   UNL     1       4.543   6.389  17.530  0.00  0.00    +0.000 C 
ATOM     22  C   UNL     1       5.788   7.175  17.111  0.00  0.00    +0.000 C 
BRANCH  21  23
ATOM     23  C   UNL     1       4.577   5.007  16.848  0.00  0.00    +0.000 C 
BRANCH  23  24
ATOM     24  C   UNL     1       5.997   4.452  16.658  0.00  0.00    +0.000 C 
BRANCH  24  25
ATOM     25  N   UNL     1       6.330   4.076  15.271  0.00  0.00    +0.000 NA
ATOM     26  C   UNL     1       5.190   4.241  14.365  0.00  0.00    +0.000 C 
ATOM     27  C   UNL     1       7.457   4.884  14.799  0.00  0.00    +0.000 C 
ENDBRANCH  24  25
ENDBRANCH  23  24
ENDBRANCH  21  23
ENDBRANCH  20  21
ENDBRANCH  19  20
ENDBRANCH   8  13
BRANCH   1  28
ATOM     28  C   UNL     1      -1.796  12.046  18.632  0.00  0.00    +0.000 C 
ATOM     29  O   UNL     1      -3.017  12.035  18.556  0.00  0.00    +0.000 OA
BRANCH  28  31
ATOM     30  C   UNL     1      -0.236  13.809  18.545  0.00  0.00    +0.000 C 
ATOM     31  O   UNL     1      -1.002  12.832  17.842  0.00  0.00    +0.000 OA
ENDBRANCH  28  31
ENDBRANCH   1  28
TORSDOF 8
ENDMDL
MODEL 7
REMARK VINA RESULT:      -6.6      1.768      2.268
REMARK  Name = 
REMARK  13 active torsions:
REMARK  status: ('A' for Active; 'I' for Inactive)
REMARK    1  A    between atoms: C_1  and  O_2
REMARK    2  A    between atoms: O_2  and  C_3
REMARK    3  A    between atoms: C_3  and  C_5
REMARK    4  A    between atoms: N_12  and  C_13
REMARK    5  A    between atoms: C_19  and  O_20
REMARK    6  A    between atoms: O_20  and  C_21
REMARK    7  A    between atoms: C_21  and  C_22
REMARK    8  A    between atoms: C_21  and  C_23
REMARK    9  A    between atoms: C_23  and  C_24
REMARK   10  A    between atoms: C_24  and  N_25
REMARK   11  A    between atoms: N_25  and  C_26
REMARK   12  A    between atoms: N_25  and  C_27
REMARK   13  A    between atoms: C_29  and  C_30
REMARK                            x       y       z     vdW  Elec       q    Type
REMARK                         _______ _______ _______ _____ _____    ______ ____
ROOT
ATOM      1  C   UNL     1       0.650  11.909  19.346  0.00  0.00    +0.000 A 
ATOM      2  S   UNL     1      -0.383  11.920  20.703  0.00  0.00    +0.000 S 
ATOM      3  C   UNL     1       0.020  10.333  21.121  0.00  0.00    +0.000 A 
ATOM      4  N   UNL     1      -0.579   9.793  22.191  0.00  0.00    +0.000 NA
ATOM      5  C   UNL     1      -0.176   8.554  22.429  0.00  0.00    +0.000 A 
ATOM      6  N   UNL     1       0.723   7.867  21.727  0.00  0.00    +0.000 NA
ATOM      7  C   UNL     1       1.313   8.416  20.629  0.00  0.00    +0.000 A 
ATOM      8  N   UNL     1       2.223   7.592  19.947  0.00  0.00    +0.000 N 
ATOM      9  C   UNL     1       0.955   9.746  20.277  0.00  0.00    +0.000 A 
ATOM     10  C   UNL     1       1.283  10.670  19.185  0.00  0.00    +0.000 A 
ATOM     11  C   UNL     1       2.166  10.379  18.008  0.00  0.00    +0.000 C 
ATOM     12  H   UNL     1       2.842   8.030  19.282  0.00  0.00    +0.000 HD
ENDROOT
BRANCH   8  13
ATOM     13  C   UNL     1       2.063   6.201  19.726  0.00  0.00    +0.000 A 
ATOM     14  C   UNL     1       1.377   5.431  20.694  0.00  0.00    +0.000 A 
ATOM     15  C   UNL     1       1.143   4.070  20.526  0.00  0.00    +0.000 A 
ATOM     16  C   UNL     1       1.587   3.454  19.372  0.00  0.00    +0.000 A 
ATOM     17  F   UNL     1       1.352   2.148  19.190  0.00  0.00    +0.000 F 
ATOM     18  C   UNL     1       2.279   4.171  18.406  0.00  0.00    +0.000 A 
ATOM     19  C   UNL     1       2.555   5.536  18.586  0.00  0.00    +0.000 A 
BRANCH  19  20
ATOM     20  O   UNL     1       3.297   6.055  17.560  0.00  0.00    +0.000 OA
BRANCH  20  21
ATOM     21  C   UNL     1       4.677   6.389  17.764  0.00  0.00    +0.000 C 
ATOM     22  C   UNL     1       5.375   5.463  18.763  0.00  0.00    +0.000 C 
BRANCH  21  23
ATOM     23  C   UNL     1       5.374   6.258  16.396  0.00  0.00    +0.000 C 
BRANCH  23  24
ATOM     24  C   UNL     1       4.947   5.011  15.607  0.00  0.00    +0.000 C 
BRANCH  24  25
ATOM     25  N   UNL     1       6.047   4.084  15.279  0.00  0.00    +0.000 NA
ATOM     26  C   UNL     1       6.179   3.872  13.835  0.00  0.00    +0.000 C 
ATOM     27  C   UNL     1       7.306   4.604  15.819  0.00  0.00    +0.000 C 
ENDBRANCH  24  25
ENDBRANCH  23  24
ENDBRANCH  21  23
ENDBRANCH  20  21
ENDBRANCH  19  20
ENDBRANCH   8  13
BRANCH   1  28
ATOM     28  C   UNL     1       0.773  13.099  18.504  0.00  0.00    +0.000 C 
ATOM     29  O   UNL     1       1.786  13.440  17.908  0.00  0.00    +0.000 OA
BRANCH  28  31
ATOM     30  C   UNL     1      -0.238  15.219  18.694  0.00  0.00    +0.000 C 
ATOM     31  O   UNL     1      -0.392  13.817  18.477  0.00  0.00    +0.000 OA
ENDBRANCH  28  31
ENDBRANCH   1  28
TORSDOF 8
ENDMDL
MODEL 8
REMARK VINA RESULT:      -6.6      1.115      1.263
REMARK  Name = 
REMARK  13 active torsions:
REMARK  status: ('A' for Active; 'I' for Inactive)
REMARK    1  A    between atoms: C_1  and  O_2
REMARK    2  A    between atoms: O_2  and  C_3
REMARK    3  A    between atoms: C_3  and  C_5
REMARK    4  A    between atoms: N_12  and  C_13
REMARK    5  A    between atoms: C_19  and  O_20
REMARK    6  A    between atoms: O_20  and  C_21
REMARK    7  A    between atoms: C_21  and  C_22
REMARK    8  A    between atoms: C_21  and  C_23
REMARK    9  A    between atoms: C_23  and  C_24
REMARK   10  A    between atoms: C_24  and  N_25
REMARK   11  A    between atoms: N_25  and  C_26
REMARK   12  A    between atoms: N_25  and  C_27
REMARK   13  A    between atoms: C_29  and  C_30
REMARK                            x       y       z     vdW  Elec       q    Type
REMARK                         _______ _______ _______ _____ _____    ______ ____
ROOT
ATOM      1  C   UNL     1       0.655  11.677  19.249  0.00  0.00    +0.000 A 
ATOM      2  S   UNL     1      -0.247  11.732  20.696  0.00  0.00    +0.000 S 
ATOM      3  C   UNL     1       0.189  10.154  21.119  0.00  0.00    +0.000 A 
ATOM      4  N   UNL     1      -0.310   9.648  22.256  0.00  0.00    +0.000 NA
ATOM      5  C   UNL     1       0.110   8.414  22.489  0.00  0.00    +0.000 A 
ATOM      6  N   UNL     1       0.937   7.702  21.726  0.00  0.00    +0.000 NA
ATOM      7  C   UNL     1       1.423   8.217  20.562  0.00  0.00    +0.000 A 
ATOM      8  N   UNL     1       2.262   7.369  19.821  0.00  0.00    +0.000 N 
ATOM      9  C   UNL     1       1.038   9.538  20.208  0.00  0.00    +0.000 A 
ATOM     10  C   UNL     1       1.265  10.430  19.065  0.00  0.00    +0.000 A 
ATOM     11  C   UNL     1       2.033  10.101  17.819  0.00  0.00    +0.000 C 
ATOM     12  H   UNL     1       2.817   7.784  19.090  0.00  0.00    +0.000 HD
ENDROOT
BRANCH   8  13
ATOM     13  C   UNL     1       2.077   5.973  19.656  0.00  0.00    +0.000 A 
ATOM     14  C   UNL     1       1.400   5.250  20.665  0.00  0.00    +0.000 A 
ATOM     15  C   UNL     1       1.142   3.887  20.553  0.00  0.00    +0.000 A 
ATOM     16  C   UNL     1       1.554   3.223  19.414  0.00  0.00    +0.000 A 
ATOM     17  F   UNL     1       1.296   1.914  19.285  0.00  0.00    +0.000 F 
ATOM     18  C   UNL     1       2.237   3.892  18.408  0.00  0.00    +0.000 A 
ATOM     19  C   UNL     1       2.537   5.259  18.532  0.00  0.00    +0.000 A 
BRANCH  19  20
ATOM     20  O   UNL     1       3.266   5.727  17.473  0.00  0.00    +0.000 OA
BRANCH  20  21
ATOM     21  C   UNL     1       4.557   5.173  17.184  0.00  0.00    +0.000 C 
ATOM     22  C   UNL     1       4.974   5.360  15.723  0.00  0.00    +0.000 C 
BRANCH  21  23
ATOM     23  C   UNL     1       5.568   5.906  18.087  0.00  0.00    +0.000 C 
BRANCH  23  24
ATOM     24  C   UNL     1       6.179   7.156  17.435  0.00  0.00    +0.000 C 
BRANCH  24  25
ATOM     25  N   UNL     1       7.632   7.311  17.643  0.00  0.00    +0.000 NA
ATOM     26  C   UNL     1       8.017   8.712  17.825  0.00  0.00    +0.000 C 
ATOM     27  C   UNL     1       8.046   6.529  18.812  0.00  0.00    +0.000 C 
ENDBRANCH  24  25
ENDBRANCH  23  24
ENDBRANCH  21  23
ENDBRANCH  20  21
ENDBRANCH  19  20
ENDBRANCH   8  13
BRANCH   1  28
ATOM     28  C   UNL     1       0.702  12.843  18.366  0.00  0.00    +0.000 C 
ATOM     29  O   UNL     1       1.722  13.418  18.012  0.00  0.00    +0.000 OA
BRANCH  28  31
ATOM     30  C   UNL     1      -1.418  12.183  17.578  0.00  0.00    +0.000 C 
ATOM     31  O   UNL     1      -0.553  13.240  17.991  0.00  0.00    +0.000 OA
ENDBRANCH  28  31
ENDBRANCH   1  28
TORSDOF 8
ENDMDL
MODEL 9
REMARK VINA RESULT:      -6.6      3.394      8.425
REMARK  Name = 
REMARK  13 active torsions:
REMARK  status: ('A' for Active; 'I' for Inactive)
REMARK    1  A    between atoms: C_1  and  O_2
REMARK    2  A    between atoms: O_2  and  C_3
REMARK    3  A    between atoms: C_3  and  C_5
REMARK    4  A    between atoms: N_12  and  C_13
REMARK    5  A    between atoms: C_19  and  O_20
REMARK    6  A    between atoms: O_20  and  C_21
REMARK    7  A    between atoms: C_21  and  C_22
REMARK    8  A    between atoms: C_21  and  C_23
REMARK    9  A    between atoms: C_23  and  C_24
REMARK   10  A    between atoms: C_24  and  N_25
REMARK   11  A    between atoms: N_25  and  C_26
REMARK   12  A    between atoms: N_25  and  C_27
REMARK   13  A    between atoms: C_29  and  C_30
REMARK                            x       y       z     vdW  Elec       q    Type
REMARK                         _______ _______ _______ _____ _____    ______ ____
ROOT
ATOM      1  C   UNL     1       5.288   5.860  17.472  0.00  0.00    +0.000 A 
ATOM      2  S   UNL     1       5.231   4.471  18.460  0.00  0.00    +0.000 S 
ATOM      3  C   UNL     1       3.856   5.015  19.279  0.00  0.00    +0.000 A 
ATOM      4  N   UNL     1       3.364   4.245  20.261  0.00  0.00    +0.000 NA
ATOM      5  C   UNL     1       2.282   4.765  20.820  0.00  0.00    +0.000 A 
ATOM      6  N   UNL     1       1.694   5.913  20.489  0.00  0.00    +0.000 NA
ATOM      7  C   UNL     1       2.213   6.698  19.504  0.00  0.00    +0.000 A 
ATOM      8  N   UNL     1       1.531   7.901  19.257  0.00  0.00    +0.000 N 
ATOM      9  C   UNL     1       3.378   6.240  18.832  0.00  0.00    +0.000 A 
ATOM     10  C   UNL     1       4.271   6.768  17.794  0.00  0.00    +0.000 A 
ATOM     11  C   UNL     1       4.169   8.110  17.131  0.00  0.00    +0.000 C 
ATOM     12  H   UNL     1       1.738   8.389  18.400  0.00  0.00    +0.000 HD
ENDROOT
BRANCH   8  13
ATOM     13  C   UNL     1       0.961   8.738  20.249  0.00  0.00    +0.000 A 
ATOM     14  C   UNL     1       1.120   8.388  21.611  0.00  0.00    +0.000 A 
ATOM     15  C   UNL     1       0.626   9.182  22.641  0.00  0.00    +0.000 A 
ATOM     16  C   UNL     1      -0.030  10.355  22.323  0.00  0.00    +0.000 A 
ATOM     17  F   UNL     1      -0.494  11.138  23.307  0.00  0.00    +0.000 F 
ATOM     18  C   UNL     1      -0.222  10.726  21.000  0.00  0.00    +0.000 A 
ATOM     19  C   UNL     1       0.237   9.909  19.953  0.00  0.00    +0.000 A 
BRANCH  19  20
ATOM     20  O   UNL     1      -0.098  10.407  18.723  0.00  0.00    +0.000 OA
BRANCH  20  21
ATOM     21  C   UNL     1      -0.858  11.618  18.617  0.00  0.00    +0.000 C 
ATOM     22  C   UNL     1      -0.021  12.812  18.152  0.00  0.00    +0.000 C 
BRANCH  21  23
ATOM     23  C   UNL     1      -1.968  11.358  17.580  0.00  0.00    +0.000 C 
BRANCH  23  24
ATOM     24  C   UNL     1      -3.387  11.469  18.158  0.00  0.00    +0.000 C 
BRANCH  24  25
ATOM     25  N   UNL     1      -4.464  11.088  17.224  0.00  0.00    +0.000 NA
ATOM     26  C   UNL     1      -5.526  12.095  17.167  0.00  0.00    +0.000 C 
ATOM     27  C   UNL     1      -3.904  10.885  15.885  0.00  0.00    +0.000 C 
ENDBRANCH  24  25
ENDBRANCH  23  24
ENDBRANCH  21  23
ENDBRANCH  20  21
ENDBRANCH  19  20
ENDBRANCH   8  13
BRANCH   1  28
ATOM     28  C   UNL     1       6.329   5.997  16.453  0.00  0.00    +0.000 C 
ATOM     29  O   UNL     1       7.465   6.403  16.656  0.00  0.00    +0.000 OA
BRANCH  28  31
ATOM     30  C   UNL     1       6.711   4.723  14.509  0.00  0.00    +0.000 C 
ATOM     31  O   UNL     1       5.871   5.634  15.215  0.00  0.00    +0.000 OA
ENDBRANCH  28  31
ENDBRANCH   1  28
TORSDOF 8
ENDMDL
