MODEL 1
REMARK VINA RESULT:      -9.9      0.000      0.000
REMARK  Name = 
REMARK  4 active torsions:
REMARK  status: ('A' for Active; 'I' for Inactive)
REMARK    1  A    between atoms: C_2  and  C_22
REMARK    2  A    between atoms: N_3  and  C_4
REMARK    3  A    between atoms: C_4  and  N_6
REMARK    4  A    between atoms: C_9  and  C_10
REMARK                            x       y       z     vdW  Elec       q    Type
REMARK                         _______ _______ _______ _____ _____    ______ ____
ROOT
ATOM      1  N   UNL     1       7.625   6.424  17.284  0.00  0.00    +0.000 N 
ATOM      2  C   UNL     1       6.535   5.653  17.010  0.00  0.00    +0.000 A 
ATOM      3  N   UNL     1       5.625   5.241  17.854  0.00  0.00    +0.000 NA
ATOM      4  C   UNL     1       4.777   4.362  17.200  0.00  0.00    +0.000 A 
ATOM      5  C   UNL     1       5.078   4.145  15.864  0.00  0.00    +0.000 A 
ATOM      6  S   UNL     1       6.415   5.117  15.402  0.00  0.00    +0.000 S 
ATOM      7  H   UNL     1       8.262   6.608  16.522  0.00  0.00    +0.000 HD
ENDROOT
BRANCH   4   8
ATOM      8  C   UNL     1       3.678   3.699  17.891  0.00  0.00    +0.000 A 
ATOM      9  C   UNL     1       3.394   2.363  17.551  0.00  0.00    +0.000 A 
ATOM     10  C   UNL     1       2.374   1.668  18.189  0.00  0.00    +0.000 A 
ATOM     11  C   UNL     1       1.595   2.313  19.142  0.00  0.00    +0.000 A 
ATOM     12  C   UNL     1       1.808   3.663  19.452  0.00  0.00    +0.000 A 
ATOM     13  C   UNL     1       0.936   4.315  20.338  0.00  0.00    +0.000 A 
ATOM     14  C   UNL     1       1.134   5.649  20.692  0.00  0.00    +0.000 A 
ATOM     15  C   UNL     1       2.245   6.330  20.218  0.00  0.00    +0.000 A 
ATOM     16  C   UNL     1       3.099   5.706  19.306  0.00  0.00    +0.000 A 
ATOM     17  C   UNL     1       2.890   4.371  18.870  0.00  0.00    +0.000 A 
ENDBRANCH   4   8
BRANCH   1  18
ATOM     18  C   UNL     1       8.081   6.721  18.548  0.00  0.00    +0.000 C 
ATOM     19  S   UNL     1       7.870   5.515  19.686  0.00  0.00    +0.000 S 
BRANCH  18  22
ATOM     20  O   UNL     1       7.525   9.327  17.222  0.00  0.00    +0.000 OA
ATOM     21  C   UNL     1       8.324   9.200  18.145  0.00  0.00    +0.000 C 
ATOM     22  N   UNL     1       8.655   7.974  18.734  0.00  0.00    +0.000 N 
ATOM     23  H   UNL     1       9.387   7.987  19.435  0.00  0.00    +0.000 HD
BRANCH  21  24
ATOM     24  C   UNL     1       9.002  10.422  18.653  0.00  0.00    +0.000 A 
ATOM     25  C   UNL     1       9.366  10.407  20.004  0.00  0.00    +0.000 A 
ATOM     26  C   UNL     1      10.007  11.498  20.579  0.00  0.00    +0.000 A 
ATOM     27  C   UNL     1      10.298  12.619  19.805  0.00  0.00    +0.000 A 
ATOM     28  C   UNL     1       9.935  12.636  18.450  0.00  0.00    +0.000 A 
ATOM     29  C   UNL     1       9.269  11.549  17.870  0.00  0.00    +0.000 A 
ATOM     30  O   UNL     1      10.229  13.705  17.650  0.00  0.00    +0.000 OA
ATOM     31  C   UNL     1      11.355  14.412  18.182  0.00  0.00    +0.000 C 
ATOM     32  C   UNL     1      11.095  14.804  19.614  0.00  0.00    +0.000 C 
ATOM     33  O   UNL     1      10.957  13.642  20.434  0.00  0.00    +0.000 OA
ENDBRANCH  21  24
ENDBRANCH  18  22
ENDBRANCH   1  18
TORSDOF 4
ENDMDL
MODEL 2
REMARK VINA RESULT:      -9.5      6.739      9.654
REMARK  Name = 
REMARK  4 active torsions:
REMARK  status: ('A' for Active; 'I' for Inactive)
REMARK    1  A    between atoms: C_2  and  C_22
REMARK    2  A    between atoms: N_3  and  C_4
REMARK    3  A    between atoms: C_4  and  N_6
REMARK    4  A    between atoms: C_9  and  C_10
REMARK                            x       y       z     vdW  Elec       q    Type
REMARK                         _______ _______ _______ _____ _____    ______ ____
ROOT
ATOM      1  N   UNL     1       1.218  10.257  20.401  0.00  0.00    +0.000 N 
ATOM      2  C   UNL     1       0.289  11.051  19.798  0.00  0.00    +0.000 A 
ATOM      3  N   UNL     1      -0.971  10.771  19.581  0.00  0.00    +0.000 NA
ATOM      4  C   UNL     1      -1.525  11.781  18.813  0.00  0.00    +0.000 A 
ATOM      5  C   UNL     1      -0.655  12.805  18.478  0.00  0.00    +0.000 A 
ATOM      6  S   UNL     1       0.878  12.528  19.200  0.00  0.00    +0.000 S 
ATOM      7  H   UNL     1       2.166  10.606  20.440  0.00  0.00    +0.000 HD
ENDROOT
BRANCH   4   8
ATOM      8  C   UNL     1      -2.914  11.734  18.370  0.00  0.00    +0.000 A 
ATOM      9  C   UNL     1      -3.177  11.264  17.070  0.00  0.00    +0.000 A 
ATOM     10  C   UNL     1      -4.481  11.173  16.597  0.00  0.00    +0.000 A 
ATOM     11  C   UNL     1      -5.534  11.594  17.401  0.00  0.00    +0.000 A 
ATOM     12  C   UNL     1      -5.298  12.132  18.673  0.00  0.00    +0.000 A 
ATOM     13  C   UNL     1      -6.372  12.646  19.416  0.00  0.00    +0.000 A 
ATOM     14  C   UNL     1      -6.180  13.162  20.697  0.00  0.00    +0.000 A 
ATOM     15  C   UNL     1      -4.923  13.107  21.280  0.00  0.00    +0.000 A 
ATOM     16  C   UNL     1      -3.839  12.633  20.539  0.00  0.00    +0.000 A 
ATOM     17  C   UNL     1      -3.985  12.164  19.207  0.00  0.00    +0.000 A 
ENDBRANCH   4   8
BRANCH   1  18
ATOM     18  C   UNL     1       1.044   8.923  20.692  0.00  0.00    +0.000 C 
ATOM     19  S   UNL     1       0.050   8.599  21.995  0.00  0.00    +0.000 S 
BRANCH  18  22
ATOM     20  O   UNL     1       1.816   9.074  17.821  0.00  0.00    +0.000 OA
ATOM     21  C   UNL     1       2.124   8.136  18.551  0.00  0.00    +0.000 C 
ATOM     22  N   UNL     1       1.710   8.009  19.882  0.00  0.00    +0.000 N 
ATOM     23  H   UNL     1       1.963   7.151  20.359  0.00  0.00    +0.000 HD
BRANCH  21  24
ATOM     24  C   UNL     1       2.967   7.054  17.977  0.00  0.00    +0.000 A 
ATOM     25  C   UNL     1       2.485   5.750  18.135  0.00  0.00    +0.000 A 
ATOM     26  C   UNL     1       3.195   4.665  17.634  0.00  0.00    +0.000 A 
ATOM     27  C   UNL     1       4.397   4.874  16.961  0.00  0.00    +0.000 A 
ATOM     28  C   UNL     1       4.882   6.180  16.800  0.00  0.00    +0.000 A 
ATOM     29  C   UNL     1       4.182   7.276  17.322  0.00  0.00    +0.000 A 
ATOM     30  O   UNL     1       6.041   6.430  16.121  0.00  0.00    +0.000 OA
ATOM     31  C   UNL     1       6.298   5.365  15.197  0.00  0.00    +0.000 C 
ATOM     32  C   UNL     1       6.312   4.041  15.918  0.00  0.00    +0.000 C 
ATOM     33  O   UNL     1       5.025   3.759  16.470  0.00  0.00    +0.000 OA
ENDBRANCH  21  24
ENDBRANCH  18  22
ENDBRANCH   1  18
TORSDOF 4
ENDMDL
MODEL 3
REMARK VINA RESULT:      -9.5      6.981     10.320
REMARK  Name = 
REMARK  4 active torsions:
REMARK  status: ('A' for Active; 'I' for Inactive)
REMARK    1  A    between atoms: C_2  and  C_22
REMARK    2  A    between atoms: N_3  and  C_4
REMARK    3  A    between atoms: C_4  and  N_6
REMARK    4  A    between atoms: C_9  and  C_10
REMARK                            x       y       z     vdW  Elec       q    Type
REMARK                         _______ _______ _______ _____ _____    ______ ____
ROOT
ATOM      1  N   UNL     1       1.079  10.605  21.012  0.00  0.00    +0.000 N 
ATOM      2  C   UNL     1       0.222  11.266  20.185  0.00  0.00    +0.000 A 
ATOM      3  N   UNL     1      -1.050  11.019  20.001  0.00  0.00    +0.000 NA
ATOM      4  C   UNL     1      -1.515  11.820  18.972  0.00  0.00    +0.000 A 
ATOM      5  C   UNL     1      -0.567  12.661  18.412  0.00  0.00    +0.000 A 
ATOM      6  S   UNL     1       0.926  12.490  19.241  0.00  0.00    +0.000 S 
ATOM      7  H   UNL     1       2.048  10.891  20.994  0.00  0.00    +0.000 HD
ENDROOT
BRANCH   4   8
ATOM      8  C   UNL     1      -2.894  11.745  18.505  0.00  0.00    +0.000 A 
ATOM      9  C   UNL     1      -3.126  11.244  17.210  0.00  0.00    +0.000 A 
ATOM     10  C   UNL     1      -4.420  11.126  16.714  0.00  0.00    +0.000 A 
ATOM     11  C   UNL     1      -5.493  11.549  17.489  0.00  0.00    +0.000 A 
ATOM     12  C   UNL     1      -5.290  12.116  18.754  0.00  0.00    +0.000 A 
ATOM     13  C   UNL     1      -6.384  12.631  19.465  0.00  0.00    +0.000 A 
ATOM     14  C   UNL     1      -6.224  13.176  20.738  0.00  0.00    +0.000 A 
ATOM     15  C   UNL     1      -4.977  13.151  21.346  0.00  0.00    +0.000 A 
ATOM     16  C   UNL     1      -3.873  12.676  20.635  0.00  0.00    +0.000 A 
ATOM     17  C   UNL     1      -3.987  12.178  19.311  0.00  0.00    +0.000 A 
ENDBRANCH   4   8
BRANCH   1  18
ATOM     18  C   UNL     1       0.805   9.411  21.638  0.00  0.00    +0.000 C 
ATOM     19  S   UNL     1      -0.043   9.533  23.073  0.00  0.00    +0.000 S 
BRANCH  18  22
ATOM     20  O   UNL     1       1.849   8.966  18.887  0.00  0.00    +0.000 OA
ATOM     21  C   UNL     1       1.815   8.087  19.742  0.00  0.00    +0.000 C 
ATOM     22  N   UNL     1       1.262   8.253  21.017  0.00  0.00    +0.000 N 
ATOM     23  H   UNL     1       1.221   7.431  21.608  0.00  0.00    +0.000 HD
BRANCH  21  24
ATOM     24  C   UNL     1       2.374   6.754  19.394  0.00  0.00    +0.000 A 
ATOM     25  C   UNL     1       3.097   6.684  18.198  0.00  0.00    +0.000 A 
ATOM     26  C   UNL     1       3.663   5.486  17.779  0.00  0.00    +0.000 A 
ATOM     27  C   UNL     1       3.519   4.340  18.558  0.00  0.00    +0.000 A 
ATOM     28  C   UNL     1       2.795   4.408  19.758  0.00  0.00    +0.000 A 
ATOM     29  C   UNL     1       2.202   5.607  20.175  0.00  0.00    +0.000 A 
ATOM     30  O   UNL     1       2.654   3.314  20.566  0.00  0.00    +0.000 OA
ATOM     31  C   UNL     1       3.736   2.403  20.338  0.00  0.00    +0.000 C 
ATOM     32  C   UNL     1       3.819   2.048  18.875  0.00  0.00    +0.000 C 
ATOM     33  O   UNL     1       4.130   3.204  18.096  0.00  0.00    +0.000 OA
ENDBRANCH  21  24
ENDBRANCH  18  22
ENDBRANCH   1  18
TORSDOF 4
ENDMDL
MODEL 4
REMARK VINA RESULT:      -9.3      0.725      1.435
REMARK  Name = 
REMARK  4 active torsions:
REMARK  status: ('A' for Active; 'I' for Inactive)
REMARK    1  A    between atoms: C_2  and  C_22
REMARK    2  A    between atoms: N_3  and  C_4
REMARK    3  A    between atoms: C_4  and  N_6
REMARK    4  A    between atoms: C_9  and  C_10
REMARK                            x       y       z     vdW  Elec       q    Type
REMARK                         _______ _______ _______ _____ _____    ______ ____
ROOT
ATOM      1  N   UNL     1       7.741   6.363  17.390  0.00  0.00    +0.000 N 
ATOM      2  C   UNL     1       6.667   5.568  17.126  0.00  0.00    +0.000 A 
ATOM      3  N   UNL     1       5.739   5.187  17.966  0.00  0.00    +0.000 NA
ATOM      4  C   UNL     1       4.917   4.269  17.333  0.00  0.00    +0.000 A 
ATOM      5  C   UNL     1       5.253   3.991  16.018  0.00  0.00    +0.000 A 
ATOM      6  S   UNL     1       6.592   4.955  15.544  0.00  0.00    +0.000 S 
ATOM      7  H   UNL     1       8.396   6.518  16.636  0.00  0.00    +0.000 HD
ENDROOT
BRANCH   4   8
ATOM      8  C   UNL     1       3.807   3.628  18.028  0.00  0.00    +0.000 A 
ATOM      9  C   UNL     1       3.556   2.269  17.759  0.00  0.00    +0.000 A 
ATOM     10  C   UNL     1       2.527   1.594  18.405  0.00  0.00    +0.000 A 
ATOM     11  C   UNL     1       1.707   2.280  19.293  0.00  0.00    +0.000 A 
ATOM     12  C   UNL     1       1.888   3.650  19.529  0.00  0.00    +0.000 A 
ATOM     13  C   UNL     1       0.978   4.336  20.347  0.00  0.00    +0.000 A 
ATOM     14  C   UNL     1       1.142   5.692  20.628  0.00  0.00    +0.000 A 
ATOM     15  C   UNL     1       2.257   6.364  20.149  0.00  0.00    +0.000 A 
ATOM     16  C   UNL     1       3.150   5.703  19.303  0.00  0.00    +0.000 A 
ATOM     17  C   UNL     1       2.976   4.342  18.940  0.00  0.00    +0.000 A 
ENDBRANCH   4   8
BRANCH   1  18
ATOM     18  C   UNL     1       8.162   6.725  18.649  0.00  0.00    +0.000 C 
ATOM     19  S   UNL     1       8.040   5.534  19.814  0.00  0.00    +0.000 S 
BRANCH  18  22
ATOM     20  O   UNL     1       7.545   9.212  17.135  0.00  0.00    +0.000 OA
ATOM     21  C   UNL     1       8.270   9.192  18.126  0.00  0.00    +0.000 C 
ATOM     22  N   UNL     1       8.632   8.025  18.808  0.00  0.00    +0.000 N 
ATOM     23  H   UNL     1       9.299   8.127  19.565  0.00  0.00    +0.000 HD
BRANCH  21  24
ATOM     24  C   UNL     1       8.817  10.484  18.615  0.00  0.00    +0.000 A 
ATOM     25  C   UNL     1       9.037  11.467  17.643  0.00  0.00    +0.000 A 
ATOM     26  C   UNL     1       9.544  12.712  17.994  0.00  0.00    +0.000 A 
ATOM     27  C   UNL     1       9.833  12.993  19.327  0.00  0.00    +0.000 A 
ATOM     28  C   UNL     1       9.613  12.010  20.304  0.00  0.00    +0.000 A 
ATOM     29  C   UNL     1       9.123  10.745  19.955  0.00  0.00    +0.000 A 
ATOM     30  O   UNL     1       9.856  12.256  21.627  0.00  0.00    +0.000 OA
ATOM     31  C   UNL     1       9.773  13.663  21.880  0.00  0.00    +0.000 C 
ATOM     32  C   UNL     1      10.703  14.414  20.962  0.00  0.00    +0.000 C 
ATOM     33  O   UNL     1      10.302  14.251  19.600  0.00  0.00    +0.000 OA
ENDBRANCH  21  24
ENDBRANCH  18  22
ENDBRANCH   1  18
TORSDOF 4
ENDMDL
MODEL 5
REMARK VINA RESULT:      -9.2      6.418      9.436
REMARK  Name = 
REMARK  4 active torsions:
REMARK  status: ('A' for Active; 'I' for Inactive)
REMARK    1  A    between atoms: C_2  and  C_22
REMARK    2  A    between atoms: N_3  and  C_4
REMARK    3  A    between atoms: C_4  and  N_6
REMARK    4  A    between atoms: C_9  and  C_10
REMARK                            x       y       z     vdW  Elec       q    Type
REMARK                         _______ _______ _______ _____ _____    ______ ____
ROOT
ATOM      1  N   UNL     1       1.409   9.977  21.087  0.00  0.00    +0.000 N 
ATOM      2  C   UNL     1       0.545  10.936  20.653  0.00  0.00    +0.000 A 
ATOM      3  N   UNL     1      -0.730  10.795  20.395  0.00  0.00    +0.000 NA
ATOM      4  C   UNL     1      -1.205  11.970  19.837  0.00  0.00    +0.000 A 
ATOM      5  C   UNL     1      -0.260  12.974  19.698  0.00  0.00    +0.000 A 
ATOM      6  S   UNL     1       1.243  12.454  20.343  0.00  0.00    +0.000 S 
ATOM      7  H   UNL     1       2.380  10.243  21.186  0.00  0.00    +0.000 HD
ENDROOT
BRANCH   4   8
ATOM      8  C   UNL     1      -2.590  12.109  19.403  0.00  0.00    +0.000 A 
ATOM      9  C   UNL     1      -3.511  12.674  20.305  0.00  0.00    +0.000 A 
ATOM     10  C   UNL     1      -4.841  12.854  19.943  0.00  0.00    +0.000 A 
ATOM     11  C   UNL     1      -5.277  12.430  18.693  0.00  0.00    +0.000 A 
ATOM     12  C   UNL     1      -4.399  11.801  17.800  0.00  0.00    +0.000 A 
ATOM     13  C   UNL     1      -4.893  11.289  16.591  0.00  0.00    +0.000 A 
ATOM     14  C   UNL     1      -4.045  10.683  15.665  0.00  0.00    +0.000 A 
ATOM     15  C   UNL     1      -2.680  10.642  15.907  0.00  0.00    +0.000 A 
ATOM     16  C   UNL     1      -2.179  11.114  17.121  0.00  0.00    +0.000 A 
ATOM     17  C   UNL     1      -3.022  11.674  18.116  0.00  0.00    +0.000 A 
ENDBRANCH   4   8
BRANCH   1  18
ATOM     18  C   UNL     1       1.138   8.629  21.119  0.00  0.00    +0.000 C 
ATOM     19  S   UNL     1      -0.109   8.174  22.134  0.00  0.00    +0.000 S 
BRANCH  18  22
ATOM     20  O   UNL     1       1.670   8.706  18.192  0.00  0.00    +0.000 OA
ATOM     21  C   UNL     1       2.213   7.910  18.952  0.00  0.00    +0.000 C 
ATOM     22  N   UNL     1       1.924   7.808  20.318  0.00  0.00    +0.000 N 
ATOM     23  H   UNL     1       2.380   7.058  20.826  0.00  0.00    +0.000 HD
BRANCH  21  24
ATOM     24  C   UNL     1       3.223   6.980  18.382  0.00  0.00    +0.000 A 
ATOM     25  C   UNL     1       3.457   5.806  19.108  0.00  0.00    +0.000 A 
ATOM     26  C   UNL     1       4.380   4.868  18.662  0.00  0.00    +0.000 A 
ATOM     27  C   UNL     1       5.078   5.089  17.477  0.00  0.00    +0.000 A 
ATOM     28  C   UNL     1       4.845   6.264  16.747  0.00  0.00    +0.000 A 
ATOM     29  C   UNL     1       3.932   7.225  17.202  0.00  0.00    +0.000 A 
ATOM     30  O   UNL     1       5.487   6.506  15.565  0.00  0.00    +0.000 OA
ATOM     31  C   UNL     1       5.889   5.266  14.971  0.00  0.00    +0.000 C 
ATOM     32  C   UNL     1       6.723   4.469  15.942  0.00  0.00    +0.000 C 
ATOM     33  O   UNL     1       5.949   4.106  17.087  0.00  0.00    +0.000 OA
ENDBRANCH  21  24
ENDBRANCH  18  22
ENDBRANCH   1  18
TORSDOF 4
ENDMDL
MODEL 6
REMARK VINA RESULT:      -9.1      0.754      2.060
REMARK  Name = 
REMARK  4 active torsions:
REMARK  status: ('A' for Active; 'I' for Inactive)
REMARK    1  A    between atoms: C_2  and  C_22
REMARK    2  A    between atoms: N_3  and  C_4
REMARK    3  A    between atoms: C_4  and  N_6
REMARK    4  A    between atoms: C_9  and  C_10
REMARK                            x       y       z     vdW  Elec       q    Type
REMARK                         _______ _______ _______ _____ _____    ______ ____
ROOT
ATOM      1  N   UNL     1       7.522   6.866  17.439  0.00  0.00    +0.000 N 
ATOM      2  C   UNL     1       6.226   6.451  17.371  0.00  0.00    +0.000 A 
ATOM      3  N   UNL     1       5.368   6.371  18.355  0.00  0.00    +0.000 NA
ATOM      4  C   UNL     1       4.213   5.764  17.890  0.00  0.00    +0.000 A 
ATOM      5  C   UNL     1       4.239   5.408  16.551  0.00  0.00    +0.000 A 
ATOM      6  S   UNL     1       5.720   5.908  15.843  0.00  0.00    +0.000 S 
ATOM      7  H   UNL     1       8.067   6.815  16.590  0.00  0.00    +0.000 HD
ENDROOT
BRANCH   4   8
ATOM      8  C   UNL     1       3.080   5.496  18.768  0.00  0.00    +0.000 A 
ATOM      9  C   UNL     1       2.672   6.515  19.649  0.00  0.00    +0.000 A 
ATOM     10  C   UNL     1       1.585   6.330  20.496  0.00  0.00    +0.000 A 
ATOM     11  C   UNL     1       0.921   5.109  20.504  0.00  0.00    +0.000 A 
ATOM     12  C   UNL     1       1.347   4.052  19.688  0.00  0.00    +0.000 A 
ATOM     13  C   UNL     1       0.723   2.800  19.798  0.00  0.00    +0.000 A 
ATOM     14  C   UNL     1       1.100   1.734  18.982  0.00  0.00    +0.000 A 
ATOM     15  C   UNL     1       2.059   1.925  17.998  0.00  0.00    +0.000 A 
ATOM     16  C   UNL     1       2.714   3.154  17.904  0.00  0.00    +0.000 A 
ATOM     17  C   UNL     1       2.405   4.241  18.763  0.00  0.00    +0.000 A 
ENDBRANCH   4   8
BRANCH   1  18
ATOM     18  C   UNL     1       8.225   7.065  18.606  0.00  0.00    +0.000 C 
ATOM     19  S   UNL     1       8.221   5.778  19.672  0.00  0.00    +0.000 S 
BRANCH  18  22
ATOM     20  O   UNL     1       7.552   9.738  17.482  0.00  0.00    +0.000 OA
ATOM     21  C   UNL     1       8.466   9.556  18.281  0.00  0.00    +0.000 C 
ATOM     22  N   UNL     1       8.846   8.300  18.766  0.00  0.00    +0.000 N 
ATOM     23  H   UNL     1       9.667   8.268  19.360  0.00  0.00    +0.000 HD
BRANCH  21  24
ATOM     24  C   UNL     1       9.233  10.743  18.744  0.00  0.00    +0.000 A 
ATOM     25  C   UNL     1       9.596  10.751  20.096  0.00  0.00    +0.000 A 
ATOM     26  C   UNL     1      10.317  11.812  20.631  0.00  0.00    +0.000 A 
ATOM     27  C   UNL     1      10.691  12.878  19.816  0.00  0.00    +0.000 A 
ATOM     28  C   UNL     1      10.329  12.872  18.460  0.00  0.00    +0.000 A 
ATOM     29  C   UNL     1       9.584  11.816  17.920  0.00  0.00    +0.000 A 
ATOM     30  O   UNL     1      10.702  13.884  17.621  0.00  0.00    +0.000 OA
ATOM     31  C   UNL     1      11.878  14.525  18.128  0.00  0.00    +0.000 C 
ATOM     32  C   UNL     1      11.649  14.989  19.544  0.00  0.00    +0.000 C 
ATOM     33  O   UNL     1      11.425  13.872  20.407  0.00  0.00    +0.000 OA
ENDBRANCH  21  24
ENDBRANCH  18  22
ENDBRANCH   1  18
TORSDOF 4
ENDMDL
MODEL 7
REMARK VINA RESULT:      -9.0      7.694     10.623
REMARK  Name = 
REMARK  4 active torsions:
REMARK  status: ('A' for Active; 'I' for Inactive)
REMARK    1  A    between atoms: C_2  and  C_22
REMARK    2  A    between atoms: N_3  and  C_4
REMARK    3  A    between atoms: C_4  and  N_6
REMARK    4  A    between atoms: C_9  and  C_10
REMARK                            x       y       z     vdW  Elec       q    Type
REMARK                         _______ _______ _______ _____ _____    ______ ____
ROOT
ATOM      1  N   UNL     1      -0.749  11.155  17.708  0.00  0.00    +0.000 N 
ATOM      2  C   UNL     1      -2.105  11.272  17.664  0.00  0.00    +0.000 A 
ATOM      3  N   UNL     1      -2.925  11.362  18.679  0.00  0.00    +0.000 NA
ATOM      4  C   UNL     1      -4.226  11.315  18.206  0.00  0.00    +0.000 A 
ATOM      5  C   UNL     1      -4.344  11.197  16.830  0.00  0.00    +0.000 A 
ATOM      6  S   UNL     1      -2.786  11.213  16.109  0.00  0.00    +0.000 S 
ATOM      7  H   UNL     1      -0.268  11.042  16.826  0.00  0.00    +0.000 HD
ENDROOT
BRANCH   4   8
ATOM      8  C   UNL     1      -5.372  11.352  19.107  0.00  0.00    +0.000 A 
ATOM      9  C   UNL     1      -6.351  10.350  18.972  0.00  0.00    +0.000 A 
ATOM     10  C   UNL     1      -7.456  10.317  19.815  0.00  0.00    +0.000 A 
ATOM     11  C   UNL     1      -7.619  11.312  20.773  0.00  0.00    +0.000 A 
ATOM     12  C   UNL     1      -6.698  12.362  20.885  0.00  0.00    +0.000 A 
ATOM     13  C   UNL     1      -6.947  13.406  21.788  0.00  0.00    +0.000 A 
ATOM     14  C   UNL     1      -6.039  14.452  21.948  0.00  0.00    +0.000 A 
ATOM     15  C   UNL     1      -4.836  14.431  21.256  0.00  0.00    +0.000 A 
ATOM     16  C   UNL     1      -4.592  13.418  20.327  0.00  0.00    +0.000 A 
ATOM     17  C   UNL     1      -5.525  12.375  20.088  0.00  0.00    +0.000 A 
ENDBRANCH   4   8
BRANCH   1  18
ATOM     18  C   UNL     1      -0.018  10.885  18.843  0.00  0.00    +0.000 C 
ATOM     19  S   UNL     1      -0.001  12.101  19.989  0.00  0.00    +0.000 S 
BRANCH  18  22
ATOM     20  O   UNL     1       2.271   9.798  17.281  0.00  0.00    +0.000 OA
ATOM     21  C   UNL     1       1.740   9.190  18.206  0.00  0.00    +0.000 C 
ATOM     22  N   UNL     1       0.618   9.649  18.905  0.00  0.00    +0.000 N 
ATOM     23  H   UNL     1       0.221   9.022  19.595  0.00  0.00    +0.000 HD
BRANCH  21  24
ATOM     24  C   UNL     1       2.308   7.871  18.590  0.00  0.00    +0.000 A 
ATOM     25  C   UNL     1       1.889   7.357  19.822  0.00  0.00    +0.000 A 
ATOM     26  C   UNL     1       2.359   6.130  20.277  0.00  0.00    +0.000 A 
ATOM     27  C   UNL     1       3.251   5.397  19.497  0.00  0.00    +0.000 A 
ATOM     28  C   UNL     1       3.672   5.910  18.261  0.00  0.00    +0.000 A 
ATOM     29  C   UNL     1       3.220   7.156  17.808  0.00  0.00    +0.000 A 
ATOM     30  O   UNL     1       4.524   5.209  17.454  0.00  0.00    +0.000 OA
ATOM     31  C   UNL     1       4.421   3.810  17.742  0.00  0.00    +0.000 C 
ATOM     32  C   UNL     1       4.663   3.561  19.209  0.00  0.00    +0.000 C 
ATOM     33  O   UNL     1       3.647   4.184  19.997  0.00  0.00    +0.000 OA
ENDBRANCH  21  24
ENDBRANCH  18  22
ENDBRANCH   1  18
TORSDOF 4
ENDMDL
MODEL 8
REMARK VINA RESULT:      -9.0      6.797     10.295
REMARK  Name = 
REMARK  4 active torsions:
REMARK  status: ('A' for Active; 'I' for Inactive)
REMARK    1  A    between atoms: C_2  and  C_22
REMARK    2  A    between atoms: N_3  and  C_4
REMARK    3  A    between atoms: C_4  and  N_6
REMARK    4  A    between atoms: C_9  and  C_10
REMARK                            x       y       z     vdW  Elec       q    Type
REMARK                         _______ _______ _______ _____ _____    ______ ____
ROOT
ATOM      1  N   UNL     1       1.394  10.253  21.445  0.00  0.00    +0.000 N 
ATOM      2  C   UNL     1       0.609  11.033  20.650  0.00  0.00    +0.000 A 
ATOM      3  N   UNL     1      -0.694  10.999  20.547  0.00  0.00    +0.000 NA
ATOM      4  C   UNL     1      -1.082  11.848  19.524  0.00  0.00    +0.000 A 
ATOM      5  C   UNL     1      -0.044  12.508  18.886  0.00  0.00    +0.000 A 
ATOM      6  S   UNL     1       1.448  12.104  19.633  0.00  0.00    +0.000 S 
ATOM      7  H   UNL     1       2.394  10.373  21.363  0.00  0.00    +0.000 HD
ENDROOT
BRANCH   4   8
ATOM      8  C   UNL     1      -2.481  11.996  19.138  0.00  0.00    +0.000 A 
ATOM      9  C   UNL     1      -3.362  12.585  20.064  0.00  0.00    +0.000 A 
ATOM     10  C   UNL     1      -4.703  12.775  19.748  0.00  0.00    +0.000 A 
ATOM     11  C   UNL     1      -5.188  12.337  18.521  0.00  0.00    +0.000 A 
ATOM     12  C   UNL     1      -4.350  11.685  17.606  0.00  0.00    +0.000 A 
ATOM     13  C   UNL     1      -4.894  11.161  16.424  0.00  0.00    +0.000 A 
ATOM     14  C   UNL     1      -4.086  10.531  15.477  0.00  0.00    +0.000 A 
ATOM     15  C   UNL     1      -2.713  10.479  15.669  0.00  0.00    +0.000 A 
ATOM     16  C   UNL     1      -2.164  10.963  16.858  0.00  0.00    +0.000 A 
ATOM     17  C   UNL     1      -2.964  11.547  17.874  0.00  0.00    +0.000 A 
ENDBRANCH   4   8
BRANCH   1  18
ATOM     18  C   UNL     1       0.965   9.133  22.119  0.00  0.00    +0.000 C 
ATOM     19  S   UNL     1       0.180   9.426  23.565  0.00  0.00    +0.000 S 
BRANCH  18  22
ATOM     20  O   UNL     1       1.938   8.454  19.390  0.00  0.00    +0.000 OA
ATOM     21  C   UNL     1       1.758   7.615  20.267  0.00  0.00    +0.000 C 
ATOM     22  N   UNL     1       1.233   7.901  21.531  0.00  0.00    +0.000 N 
ATOM     23  H   UNL     1       1.056   7.112  22.143  0.00  0.00    +0.000 HD
BRANCH  21  24
ATOM     24  C   UNL     1       2.096   6.200  19.957  0.00  0.00    +0.000 A 
ATOM     25  C   UNL     1       1.745   5.257  20.930  0.00  0.00    +0.000 A 
ATOM     26  C   UNL     1       2.014   3.907  20.739  0.00  0.00    +0.000 A 
ATOM     27  C   UNL     1       2.633   3.482  19.566  0.00  0.00    +0.000 A 
ATOM     28  C   UNL     1       2.986   4.425  18.589  0.00  0.00    +0.000 A 
ATOM     29  C   UNL     1       2.738   5.790  18.784  0.00  0.00    +0.000 A 
ATOM     30  O   UNL     1       3.568   4.045  17.412  0.00  0.00    +0.000 OA
ATOM     31  C   UNL     1       3.226   2.686  17.120  0.00  0.00    +0.000 C 
ATOM     32  C   UNL     1       3.600   1.794  18.276  0.00  0.00    +0.000 C 
ATOM     33  O   UNL     1       2.839   2.133  19.437  0.00  0.00    +0.000 OA
ENDBRANCH  21  24
ENDBRANCH  18  22
ENDBRANCH   1  18
TORSDOF 4
ENDMDL
MODEL 9
REMARK VINA RESULT:      -9.0      7.279     10.496
REMARK  Name = 
REMARK  4 active torsions:
REMARK  status: ('A' for Active; 'I' for Inactive)
REMARK    1  A    between atoms: C_2  and  C_22
REMARK    2  A    between atoms: N_3  and  C_4
REMARK    3  A    between atoms: C_4  and  N_6
REMARK    4  A    between atoms: C_9  and  C_10
REMARK                            x       y       z     vdW  Elec       q    Type
REMARK                         _______ _______ _______ _____ _____    ______ ____
ROOT
ATOM      1  N   UNL     1       0.723  10.631  20.192  0.00  0.00    +0.000 N 
ATOM      2  C   UNL     1       1.253   9.375  20.191  0.00  0.00    +0.000 A 
ATOM      3  N   UNL     1       1.874   8.780  19.206  0.00  0.00    +0.000 NA
ATOM      4  C   UNL     1       2.119   7.465  19.565  0.00  0.00    +0.000 A 
ATOM      5  C   UNL     1       1.674   7.111  20.829  0.00  0.00    +0.000 A 
ATOM      6  S   UNL     1       0.992   8.479  21.610  0.00  0.00    +0.000 S 
ATOM      7  H   UNL     1       0.225  10.920  21.023  0.00  0.00    +0.000 HD
ENDROOT
BRANCH   4   8
ATOM      8  C   UNL     1       2.767   6.529  18.654  0.00  0.00    +0.000 A 
ATOM      9  C   UNL     1       3.744   7.032  17.774  0.00  0.00    +0.000 A 
ATOM     10  C   UNL     1       4.414   6.187  16.897  0.00  0.00    +0.000 A 
ATOM     11  C   UNL     1       4.085   4.837  16.857  0.00  0.00    +0.000 A 
ATOM     12  C   UNL     1       3.069   4.319  17.671  0.00  0.00    +0.000 A 
ATOM     13  C   UNL     1       2.687   2.977  17.530  0.00  0.00    +0.000 A 
ATOM     14  C   UNL     1       1.700   2.419  18.343  0.00  0.00    +0.000 A 
ATOM     15  C   UNL     1       1.131   3.179  19.354  0.00  0.00    +0.000 A 
ATOM     16  C   UNL     1       1.474   4.526  19.481  0.00  0.00    +0.000 A 
ATOM     17  C   UNL     1       2.423   5.145  18.627  0.00  0.00    +0.000 A 
ENDBRANCH   4   8
BRANCH   1  18
ATOM     18  C   UNL     1       0.554  11.415  19.074  0.00  0.00    +0.000 C 
ATOM     19  S   UNL     1       1.965  11.962  18.364  0.00  0.00    +0.000 S 
BRANCH  18  22
ATOM     20  O   UNL     1      -1.534   9.578  18.015  0.00  0.00    +0.000 OA
ATOM     21  C   UNL     1      -1.738  10.767  18.241  0.00  0.00    +0.000 C 
ATOM     22  N   UNL     1      -0.753  11.664  18.669  0.00  0.00    +0.000 N 
ATOM     23  H   UNL     1      -1.024  12.638  18.746  0.00  0.00    +0.000 HD
BRANCH  21  24
ATOM     24  C   UNL     1      -3.112  11.292  18.023  0.00  0.00    +0.000 A 
ATOM     25  C   UNL     1      -3.596  11.220  16.712  0.00  0.00    +0.000 A 
ATOM     26  C   UNL     1      -4.869  11.681  16.399  0.00  0.00    +0.000 A 
ATOM     27  C   UNL     1      -5.679  12.216  17.399  0.00  0.00    +0.000 A 
ATOM     28  C   UNL     1      -5.196  12.289  18.714  0.00  0.00    +0.000 A 
ATOM     29  C   UNL     1      -3.905  11.847  19.032  0.00  0.00    +0.000 A 
ATOM     30  O   UNL     1      -5.969  12.780  19.729  0.00  0.00    +0.000 OA
ATOM     31  C   UNL     1      -7.354  12.632  19.396  0.00  0.00    +0.000 C 
ATOM     32  C   UNL     1      -7.644  13.283  18.068  0.00  0.00    +0.000 C 
ATOM     33  O   UNL     1      -6.931  12.623  17.020  0.00  0.00    +0.000 OA
ENDBRANCH  21  24
ENDBRANCH  18  22
ENDBRANCH   1  18
TORSDOF 4
ENDMDL
