MODEL 1
REMARK VINA RESULT:      -8.8      0.000      0.000
REMARK  Name = 
REMARK  10 active torsions:
REMARK  status: ('A' for Active; 'I' for Inactive)
REMARK    1  A    between atoms: C_1  and  C_2
REMARK    2  A    between atoms: C_2  and  N_3
REMARK    3  A    between atoms: N_3  and  C_4
REMARK    4  A    between atoms: N_3  and  S_20
REMARK    5  A    between atoms: N_7  and  C_8
REMARK    6  A    between atoms: C_8  and  C_9
REMARK    7  A    between atoms: C_13  and  C_14
REMARK    8  A    between atoms: S_20  and  C_23
REMARK    9  A    between atoms: C_29  and  O_30
REMARK   10  A    between atoms: O_30  and  C_31
REMARK                            x       y       z     vdW  Elec       q    Type
REMARK                         _______ _______ _______ _____ _____    ______ ____
ROOT
ATOM      1  C   UNL     1       3.077   6.732  19.044  0.00  0.00    +0.000 C 
ATOM      2  C   UNL     1       2.623   7.552  17.831  0.00  0.00    +0.000 C 
ATOM      3  C   UNL     1       2.061   8.822  18.449  0.00  0.00    +0.000 C 
ATOM      4  N   UNL     1       1.517   8.371  19.704  0.00  0.00    +0.000 N 
ATOM      5  C   UNL     1       2.058   7.145  20.102  0.00  0.00    +0.000 C 
ATOM      6  O   UNL     1       1.823   6.564  21.152  0.00  0.00    +0.000 OA
ENDROOT
BRANCH   1   7
ATOM      7  N   UNL     1       3.321   5.285  18.730  0.00  0.00    +0.000 NA
BRANCH   7   8
ATOM      8  S   UNL     1       4.950   4.726  18.763  0.00  0.00    +0.000 S 
ATOM      9  O   UNL     1       5.743   5.598  19.606  0.00  0.00    +0.000 OA
ATOM     10  O   UNL     1       4.915   3.303  19.037  0.00  0.00    +0.000 OA
BRANCH   8  11
ATOM     11  C   UNL     1       5.542   4.927  17.077  0.00  0.00    +0.000 A 
ATOM     12  C   UNL     1       6.759   5.584  16.898  0.00  0.00    +0.000 A 
ATOM     13  C   UNL     1       7.399   5.543  15.656  0.00  0.00    +0.000 A 
ATOM     14  C   UNL     1       6.836   4.840  14.578  0.00  0.00    +0.000 A 
ATOM     15  C   UNL     1       7.543   4.734  13.374  0.00  0.00    +0.000 A 
ATOM     16  C   UNL     1       7.026   4.030  12.287  0.00  0.00    +0.000 A 
ATOM     17  C   UNL     1       5.763   3.450  12.371  0.00  0.00    +0.000 A 
ATOM     18  C   UNL     1       5.047   3.542  13.581  0.00  0.00    +0.000 A 
ATOM     19  C   UNL     1       5.577   4.212  14.717  0.00  0.00    +0.000 A 
ATOM     20  C   UNL     1       4.940   4.257  15.991  0.00  0.00    +0.000 A 
BRANCH  17  21
ATOM     21  O   UNL     1       5.152   2.772  11.347  0.00  0.00    +0.000 OA
ATOM     22  C   UNL     1       3.831   3.194  11.002  0.00  0.00    +0.000 C 
ENDBRANCH  17  21
ENDBRANCH   8  11
ENDBRANCH   7   8
BRANCH   7  24
ATOM     23  C   UNL     1       1.400   3.664  18.429  0.00  0.00    +0.000 C 
ATOM     24  C   UNL     1       2.376   4.328  19.386  0.00  0.00    +0.000 C 
ENDBRANCH   7  24
ENDBRANCH   1   7
BRANCH   4  25
ATOM     25  C   UNL     1       0.426   9.054  20.377  0.00  0.00    +0.000 C 
BRANCH  25  26
ATOM     26  C   UNL     1      -0.026  10.361  19.761  0.00  0.00    +0.000 A 
ATOM     27  C   UNL     1       0.755  11.520  19.900  0.00  0.00    +0.000 A 
ATOM     28  C   UNL     1       0.445  12.686  19.187  0.00  0.00    +0.000 A 
ATOM     29  C   UNL     1      -0.652  12.708  18.324  0.00  0.00    +0.000 A 
ATOM     30  C   UNL     1      -1.457  11.572  18.190  0.00  0.00    +0.000 A 
ATOM     31  C   UNL     1      -1.149  10.408  18.919  0.00  0.00    +0.000 A 
BRANCH  30  32
ATOM     32  C   UNL     1      -2.581  11.560  17.210  0.00  0.00    +0.000 C 
ATOM     33  N   UNL     1      -3.791  11.920  17.507  0.00  0.00    +0.000 NA
ATOM     34  N   UNL     1      -2.364  11.185  15.918  0.00  0.00    +0.000 N 
ATOM     35  H   UNL     1      -3.884  12.153  18.497  0.00  0.00    +0.000 HD
ATOM     36  H   UNL     1      -1.461  11.425  15.524  0.00  0.00    +0.000 HD
ATOM     37  H   UNL     1      -3.139  11.454  15.321  0.00  0.00    +0.000 HD
ENDBRANCH  30  32
ENDBRANCH  25  26
ENDBRANCH   4  25
TORSDOF 8
ENDMDL
MODEL 2
REMARK VINA RESULT:      -8.5      1.121      1.524
REMARK  Name = 
REMARK  10 active torsions:
REMARK  status: ('A' for Active; 'I' for Inactive)
REMARK    1  A    between atoms: C_1  and  C_2
REMARK    2  A    between atoms: C_2  and  N_3
REMARK    3  A    between atoms: N_3  and  C_4
REMARK    4  A    between atoms: N_3  and  S_20
REMARK    5  A    between atoms: N_7  and  C_8
REMARK    6  A    between atoms: C_8  and  C_9
REMARK    7  A    between atoms: C_13  and  C_14
REMARK    8  A    between atoms: S_20  and  C_23
REMARK    9  A    between atoms: C_29  and  O_30
REMARK   10  A    between atoms: O_30  and  C_31
REMARK                            x       y       z     vdW  Elec       q    Type
REMARK                         _______ _______ _______ _____ _____    ______ ____
ROOT
ATOM      1  C   UNL     1       2.153   5.260  19.120  0.00  0.00    +0.000 C 
ATOM      2  C   UNL     1       2.063   5.539  20.625  0.00  0.00    +0.000 C 
ATOM      3  C   UNL     1       1.399   6.905  20.694  0.00  0.00    +0.000 C 
ATOM      4  N   UNL     1       1.872   7.569  19.506  0.00  0.00    +0.000 N 
ATOM      5  C   UNL     1       2.343   6.664  18.550  0.00  0.00    +0.000 C 
ATOM      6  O   UNL     1       2.743   6.945  17.430  0.00  0.00    +0.000 OA
ENDROOT
BRANCH   1   7
ATOM      7  N   UNL     1       3.104   4.152  18.774  0.00  0.00    +0.000 NA
BRANCH   7   8
ATOM      8  S   UNL     1       4.787   4.448  18.992  0.00  0.00    +0.000 S 
ATOM      9  O   UNL     1       4.967   5.656  19.772  0.00  0.00    +0.000 OA
ATOM     10  O   UNL     1       5.392   3.209  19.440  0.00  0.00    +0.000 OA
BRANCH   8  11
ATOM     11  C   UNL     1       5.416   4.779  17.340  0.00  0.00    +0.000 A 
ATOM     12  C   UNL     1       6.584   5.534  17.237  0.00  0.00    +0.000 A 
ATOM     13  C   UNL     1       7.265   5.603  16.018  0.00  0.00    +0.000 A 
ATOM     14  C   UNL     1       6.793   4.916  14.889  0.00  0.00    +0.000 A 
ATOM     15  C   UNL     1       7.545   4.924  13.707  0.00  0.00    +0.000 A 
ATOM     16  C   UNL     1       7.119   4.239  12.569  0.00  0.00    +0.000 A 
ATOM     17  C   UNL     1       5.903   3.562  12.580  0.00  0.00    +0.000 A 
ATOM     18  C   UNL     1       5.143   3.539  13.766  0.00  0.00    +0.000 A 
ATOM     19  C   UNL     1       5.582   4.188  14.951  0.00  0.00    +0.000 A 
ATOM     20  C   UNL     1       4.903   4.120  16.203  0.00  0.00    +0.000 A 
BRANCH  17  21
ATOM     21  O   UNL     1       5.379   2.892  11.503  0.00  0.00    +0.000 OA
ATOM     22  C   UNL     1       4.004   3.141  11.205  0.00  0.00    +0.000 C 
ENDBRANCH  17  21
ENDBRANCH   8  11
ENDBRANCH   7   8
BRANCH   7  24
ATOM     23  C   UNL     1       1.226   2.476  19.048  0.00  0.00    +0.000 C 
ATOM     24  C   UNL     1       2.697   2.794  19.257  0.00  0.00    +0.000 C 
ENDBRANCH   7  24
ENDBRANCH   1   7
BRANCH   4  25
ATOM     25  C   UNL     1       1.979   9.013  19.403  0.00  0.00    +0.000 C 
BRANCH  25  26
ATOM     26  C   UNL     1       0.704   9.796  19.638  0.00  0.00    +0.000 A 
ATOM     27  C   UNL     1       0.527  10.529  20.823  0.00  0.00    +0.000 A 
ATOM     28  C   UNL     1      -0.560  11.399  20.975  0.00  0.00    +0.000 A 
ATOM     29  C   UNL     1      -1.486  11.549  19.942  0.00  0.00    +0.000 A 
ATOM     30  C   UNL     1      -1.342  10.811  18.762  0.00  0.00    +0.000 A 
ATOM     31  C   UNL     1      -0.256   9.927  18.621  0.00  0.00    +0.000 A 
BRANCH  30  32
ATOM     32  C   UNL     1      -2.280  11.026  17.622  0.00  0.00    +0.000 C 
ATOM     33  N   UNL     1      -1.979  11.723  16.572  0.00  0.00    +0.000 NA
ATOM     34  N   UNL     1      -3.516  10.454  17.632  0.00  0.00    +0.000 N 
ATOM     35  H   UNL     1      -1.053  12.148  16.652  0.00  0.00    +0.000 HD
ATOM     36  H   UNL     1      -3.590   9.545  18.076  0.00  0.00    +0.000 HD
ATOM     37  H   UNL     1      -3.941  10.478  16.711  0.00  0.00    +0.000 HD
ENDBRANCH  30  32
ENDBRANCH  25  26
ENDBRANCH   4  25
TORSDOF 8
ENDMDL
MODEL 3
REMARK VINA RESULT:      -8.4      4.244      7.970
REMARK  Name = 
REMARK  10 active torsions:
REMARK  status: ('A' for Active; 'I' for Inactive)
REMARK    1  A    between atoms: C_1  and  C_2
REMARK    2  A    between atoms: C_2  and  N_3
REMARK    3  A    between atoms: N_3  and  C_4
REMARK    4  A    between atoms: N_3  and  S_20
REMARK    5  A    between atoms: N_7  and  C_8
REMARK    6  A    between atoms: C_8  and  C_9
REMARK    7  A    between atoms: C_13  and  C_14
REMARK    8  A    between atoms: S_20  and  C_23
REMARK    9  A    between atoms: C_29  and  O_30
REMARK   10  A    between atoms: O_30  and  C_31
REMARK                            x       y       z     vdW  Elec       q    Type
REMARK                         _______ _______ _______ _____ _____    ______ ____
ROOT
ATOM      1  C   UNL     1       6.255   5.700  18.129  0.00  0.00    +0.000 C 
ATOM      2  C   UNL     1       7.636   5.435  18.740  0.00  0.00    +0.000 C 
ATOM      3  C   UNL     1       8.219   6.828  18.921  0.00  0.00    +0.000 C 
ATOM      4  N   UNL     1       7.656   7.572  17.824  0.00  0.00    +0.000 N 
ATOM      5  C   UNL     1       6.513   6.958  17.303  0.00  0.00    +0.000 C 
ATOM      6  O   UNL     1       5.802   7.402  16.413  0.00  0.00    +0.000 OA
ENDROOT
BRANCH   1   7
ATOM      7  N   UNL     1       5.633   4.484  17.508  0.00  0.00    +0.000 NA
BRANCH   7   8
ATOM      8  S   UNL     1       4.475   3.616  18.443  0.00  0.00    +0.000 S 
ATOM      9  O   UNL     1       3.762   2.689  17.588  0.00  0.00    +0.000 OA
ATOM     10  O   UNL     1       5.153   3.123  19.626  0.00  0.00    +0.000 OA
BRANCH   8  11
ATOM     11  C   UNL     1       3.295   4.859  18.987  0.00  0.00    +0.000 A 
ATOM     12  C   UNL     1       2.760   4.720  20.267  0.00  0.00    +0.000 A 
ATOM     13  C   UNL     1       2.051   5.776  20.847  0.00  0.00    +0.000 A 
ATOM     14  C   UNL     1       1.871   6.986  20.158  0.00  0.00    +0.000 A 
ATOM     15  C   UNL     1       1.241   8.062  20.798  0.00  0.00    +0.000 A 
ATOM     16  C   UNL     1       1.059   9.285  20.154  0.00  0.00    +0.000 A 
ATOM     17  C   UNL     1       1.471   9.445  18.834  0.00  0.00    +0.000 A 
ATOM     18  C   UNL     1       2.115   8.373  18.184  0.00  0.00    +0.000 A 
ATOM     19  C   UNL     1       2.355   7.134  18.838  0.00  0.00    +0.000 A 
ATOM     20  C   UNL     1       3.082   6.051  18.264  0.00  0.00    +0.000 A 
BRANCH  17  21
ATOM     21  O   UNL     1       1.303  10.593  18.103  0.00  0.00    +0.000 OA
ATOM     22  C   UNL     1       1.565  11.824  18.781  0.00  0.00    +0.000 C 
ENDBRANCH  17  21
ENDBRANCH   8  11
ENDBRANCH   7   8
BRANCH   7  24
ATOM     23  C   UNL     1       6.073   3.896  15.085  0.00  0.00    +0.000 C 
ATOM     24  C   UNL     1       5.208   4.648  16.082  0.00  0.00    +0.000 C 
ENDBRANCH   7  24
ENDBRANCH   1   7
BRANCH   4  25
ATOM     25  C   UNL     1       8.306   8.736  17.249  0.00  0.00    +0.000 C 
BRANCH  25  26
ATOM     26  C   UNL     1       8.566   9.891  18.193  0.00  0.00    +0.000 A 
ATOM     27  C   UNL     1       9.131   9.662  19.459  0.00  0.00    +0.000 A 
ATOM     28  C   UNL     1       9.544  10.730  20.266  0.00  0.00    +0.000 A 
ATOM     29  C   UNL     1       9.399  12.043  19.817  0.00  0.00    +0.000 A 
ATOM     30  C   UNL     1       8.818  12.294  18.570  0.00  0.00    +0.000 A 
ATOM     31  C   UNL     1       8.392  11.218  17.769  0.00  0.00    +0.000 A 
BRANCH  30  32
ATOM     32  C   UNL     1       8.734  13.689  18.047  0.00  0.00    +0.000 C 
ATOM     33  N   UNL     1       9.675  14.568  18.203  0.00  0.00    +0.000 NA
ATOM     34  N   UNL     1       7.642  14.095  17.341  0.00  0.00    +0.000 N 
ATOM     35  H   UNL     1      10.443  14.203  18.769  0.00  0.00    +0.000 HD
ATOM     36  H   UNL     1       7.198  13.396  16.756  0.00  0.00    +0.000 HD
ATOM     37  H   UNL     1       7.823  14.963  16.849  0.00  0.00    +0.000 HD
ENDBRANCH  30  32
ENDBRANCH  25  26
ENDBRANCH   4  25
TORSDOF 8
ENDMDL
MODEL 4
REMARK VINA RESULT:      -8.4      3.317      9.287
REMARK  Name = 
REMARK  10 active torsions:
REMARK  status: ('A' for Active; 'I' for Inactive)
REMARK    1  A    between atoms: C_1  and  C_2
REMARK    2  A    between atoms: C_2  and  N_3
REMARK    3  A    between atoms: N_3  and  C_4
REMARK    4  A    between atoms: N_3  and  S_20
REMARK    5  A    between atoms: N_7  and  C_8
REMARK    6  A    between atoms: C_8  and  C_9
REMARK    7  A    between atoms: C_13  and  C_14
REMARK    8  A    between atoms: S_20  and  C_23
REMARK    9  A    between atoms: C_29  and  O_30
REMARK   10  A    between atoms: O_30  and  C_31
REMARK                            x       y       z     vdW  Elec       q    Type
REMARK                         _______ _______ _______ _____ _____    ______ ____
ROOT
ATOM      1  C   UNL     1       4.422   4.861  18.303  0.00  0.00    +0.000 C 
ATOM      2  C   UNL     1       5.517   5.751  18.902  0.00  0.00    +0.000 C 
ATOM      3  C   UNL     1       6.444   6.017  17.727  0.00  0.00    +0.000 C 
ATOM      4  N   UNL     1       6.350   4.809  16.947  0.00  0.00    +0.000 N 
ATOM      5  C   UNL     1       5.197   4.077  17.246  0.00  0.00    +0.000 C 
ATOM      6  O   UNL     1       4.835   3.049  16.693  0.00  0.00    +0.000 OA
ENDROOT
BRANCH   1   7
ATOM      7  N   UNL     1       3.595   4.154  19.335  0.00  0.00    +0.000 NA
BRANCH   7   8
ATOM      8  S   UNL     1       1.945   4.623  19.493  0.00  0.00    +0.000 S 
ATOM      9  O   UNL     1       1.202   4.173  18.333  0.00  0.00    +0.000 OA
ATOM     10  O   UNL     1       1.507   4.233  20.819  0.00  0.00    +0.000 OA
BRANCH   8  11
ATOM     11  C   UNL     1       1.969   6.420  19.449  0.00  0.00    +0.000 A 
ATOM     12  C   UNL     1       2.256   7.029  18.228  0.00  0.00    +0.000 A 
ATOM     13  C   UNL     1       2.034   8.400  18.061  0.00  0.00    +0.000 A 
ATOM     14  C   UNL     1       1.517   9.178  19.109  0.00  0.00    +0.000 A 
ATOM     15  C   UNL     1       1.213  10.527  18.886  0.00  0.00    +0.000 A 
ATOM     16  C   UNL     1       0.683  11.329  19.896  0.00  0.00    +0.000 A 
ATOM     17  C   UNL     1       0.482  10.803  21.169  0.00  0.00    +0.000 A 
ATOM     18  C   UNL     1       0.774   9.445  21.402  0.00  0.00    +0.000 A 
ATOM     19  C   UNL     1       1.269   8.597  20.374  0.00  0.00    +0.000 A 
ATOM     20  C   UNL     1       1.493   7.198  20.526  0.00  0.00    +0.000 A 
BRANCH  17  21
ATOM     21  O   UNL     1       0.002  11.518  22.237  0.00  0.00    +0.000 OA
ATOM     22  C   UNL     1      -0.962  10.861  23.062  0.00  0.00    +0.000 C 
ENDBRANCH  17  21
ENDBRANCH   8  11
ENDBRANCH   7   8
BRANCH   7  24
ATOM     23  C   UNL     1       4.359   2.150  20.682  0.00  0.00    +0.000 C 
ATOM     24  C   UNL     1       3.772   2.668  19.379  0.00  0.00    +0.000 C 
ENDBRANCH   7  24
ENDBRANCH   1   7
BRANCH   4  25
ATOM     25  C   UNL     1       7.416   4.355  16.072  0.00  0.00    +0.000 C 
BRANCH  25  26
ATOM     26  C   UNL     1       7.187   4.538  14.587  0.00  0.00    +0.000 A 
ATOM     27  C   UNL     1       7.967   5.446  13.852  0.00  0.00    +0.000 A 
ATOM     28  C   UNL     1       7.891   5.494  12.454  0.00  0.00    +0.000 A 
ATOM     29  C   UNL     1       7.033   4.632  11.770  0.00  0.00    +0.000 A 
ATOM     30  C   UNL     1       6.229   3.736  12.484  0.00  0.00    +0.000 A 
ATOM     31  C   UNL     1       6.299   3.702  13.889  0.00  0.00    +0.000 A 
BRANCH  30  32
ATOM     32  C   UNL     1       5.370   2.756  11.758  0.00  0.00    +0.000 C 
ATOM     33  N   UNL     1       4.155   3.010  11.386  0.00  0.00    +0.000 NA
ATOM     34  N   UNL     1       5.858   1.528  11.425  0.00  0.00    +0.000 N 
ATOM     35  H   UNL     1       3.848   3.933  11.701  0.00  0.00    +0.000 HD
ATOM     36  H   UNL     1       6.843   1.482  11.190  0.00  0.00    +0.000 HD
ATOM     37  H   UNL     1       5.268   1.071  10.737  0.00  0.00    +0.000 HD
ENDBRANCH  30  32
ENDBRANCH  25  26
ENDBRANCH   4  25
TORSDOF 8
ENDMDL
MODEL 5
REMARK VINA RESULT:      -8.3      1.351      1.723
REMARK  Name = 
REMARK  10 active torsions:
REMARK  status: ('A' for Active; 'I' for Inactive)
REMARK    1  A    between atoms: C_1  and  C_2
REMARK    2  A    between atoms: C_2  and  N_3
REMARK    3  A    between atoms: N_3  and  C_4
REMARK    4  A    between atoms: N_3  and  S_20
REMARK    5  A    between atoms: N_7  and  C_8
REMARK    6  A    between atoms: C_8  and  C_9
REMARK    7  A    between atoms: C_13  and  C_14
REMARK    8  A    between atoms: S_20  and  C_23
REMARK    9  A    between atoms: C_29  and  O_30
REMARK   10  A    between atoms: O_30  and  C_31
REMARK                            x       y       z     vdW  Elec       q    Type
REMARK                         _______ _______ _______ _____ _____    ______ ____
ROOT
ATOM      1  C   UNL     1       3.040   6.741  19.084  0.00  0.00    +0.000 C 
ATOM      2  C   UNL     1       2.704   7.556  17.829  0.00  0.00    +0.000 C 
ATOM      3  C   UNL     1       2.212   8.882  18.386  0.00  0.00    +0.000 C 
ATOM      4  N   UNL     1       1.579   8.511  19.625  0.00  0.00    +0.000 N 
ATOM      5  C   UNL     1       2.007   7.260  20.081  0.00  0.00    +0.000 C 
ATOM      6  O   UNL     1       1.681   6.730  21.133  0.00  0.00    +0.000 OA
ENDROOT
BRANCH   1   7
ATOM      7  N   UNL     1       3.187   5.271  18.821  0.00  0.00    +0.000 NA
BRANCH   7   8
ATOM      8  S   UNL     1       4.781   4.617  18.824  0.00  0.00    +0.000 S 
ATOM      9  O   UNL     1       5.620   5.395  19.712  0.00  0.00    +0.000 OA
ATOM     10  O   UNL     1       4.662   3.185  19.020  0.00  0.00    +0.000 OA
BRANCH   8  11
ATOM     11  C   UNL     1       5.390   4.875  17.151  0.00  0.00    +0.000 A 
ATOM     12  C   UNL     1       6.513   5.685  16.994  0.00  0.00    +0.000 A 
ATOM     13  C   UNL     1       7.189   5.714  15.770  0.00  0.00    +0.000 A 
ATOM     14  C   UNL     1       6.755   4.929  14.690  0.00  0.00    +0.000 A 
ATOM     15  C   UNL     1       7.505   4.903  13.507  0.00  0.00    +0.000 A 
ATOM     16  C   UNL     1       7.117   4.123  12.418  0.00  0.00    +0.000 A 
ATOM     17  C   UNL     1       5.940   3.381  12.477  0.00  0.00    +0.000 A 
ATOM     18  C   UNL     1       5.184   3.392  13.666  0.00  0.00    +0.000 A 
ATOM     19  C   UNL     1       5.587   4.141  14.804  0.00  0.00    +0.000 A 
ATOM     20  C   UNL     1       4.913   4.116  16.060  0.00  0.00    +0.000 A 
BRANCH  17  21
ATOM     21  O   UNL     1       5.454   2.615  11.449  0.00  0.00    +0.000 OA
ATOM     22  C   UNL     1       6.163   1.407  11.164  0.00  0.00    +0.000 C 
ENDBRANCH  17  21
ENDBRANCH   8  11
ENDBRANCH   7   8
BRANCH   7  24
ATOM     23  C   UNL     1       1.261   3.638  18.632  0.00  0.00    +0.000 C 
ATOM     24  C   UNL     1       2.210   4.397  19.544  0.00  0.00    +0.000 C 
ENDBRANCH   7  24
ENDBRANCH   1   7
BRANCH   4  25
ATOM     25  C   UNL     1       0.513   9.292  20.227  0.00  0.00    +0.000 C 
BRANCH  25  26
ATOM     26  C   UNL     1      -0.147  10.322  19.335  0.00  0.00    +0.000 A 
ATOM     27  C   UNL     1      -1.145   9.939  18.424  0.00  0.00    +0.000 A 
ATOM     28  C   UNL     1      -1.888  10.900  17.726  0.00  0.00    +0.000 A 
ATOM     29  C   UNL     1      -1.644  12.259  17.932  0.00  0.00    +0.000 A 
ATOM     30  C   UNL     1      -0.639  12.661  18.817  0.00  0.00    +0.000 A 
ATOM     31  C   UNL     1       0.115  11.691  19.504  0.00  0.00    +0.000 A 
BRANCH  30  32
ATOM     32  C   UNL     1      -0.426  14.109  19.103  0.00  0.00    +0.000 C 
ATOM     33  N   UNL     1      -1.324  14.869  19.648  0.00  0.00    +0.000 NA
ATOM     34  N   UNL     1       0.769  14.698  18.819  0.00  0.00    +0.000 N 
ATOM     35  H   UNL     1      -2.202  14.368  19.800  0.00  0.00    +0.000 HD
ATOM     36  H   UNL     1       1.594  14.119  18.927  0.00  0.00    +0.000 HD
ATOM     37  H   UNL     1       0.856  15.598  19.281  0.00  0.00    +0.000 HD
ENDBRANCH  30  32
ENDBRANCH  25  26
ENDBRANCH   4  25
TORSDOF 8
ENDMDL
MODEL 6
REMARK VINA RESULT:      -8.2      1.859      2.460
REMARK  Name = 
REMARK  10 active torsions:
REMARK  status: ('A' for Active; 'I' for Inactive)
REMARK    1  A    between atoms: C_1  and  C_2
REMARK    2  A    between atoms: C_2  and  N_3
REMARK    3  A    between atoms: N_3  and  C_4
REMARK    4  A    between atoms: N_3  and  S_20
REMARK    5  A    between atoms: N_7  and  C_8
REMARK    6  A    between atoms: C_8  and  C_9
REMARK    7  A    between atoms: C_13  and  C_14
REMARK    8  A    between atoms: S_20  and  C_23
REMARK    9  A    between atoms: C_29  and  O_30
REMARK   10  A    between atoms: O_30  and  C_31
REMARK                            x       y       z     vdW  Elec       q    Type
REMARK                         _______ _______ _______ _____ _____    ______ ____
ROOT
ATOM      1  C   UNL     1       2.222   5.209  19.123  0.00  0.00    +0.000 C 
ATOM      2  C   UNL     1       2.148   5.602  20.603  0.00  0.00    +0.000 C 
ATOM      3  C   UNL     1       1.550   6.999  20.572  0.00  0.00    +0.000 C 
ATOM      4  N   UNL     1       2.052   7.550  19.339  0.00  0.00    +0.000 N 
ATOM      5  C   UNL     1       2.476   6.556  18.452  0.00  0.00    +0.000 C 
ATOM      6  O   UNL     1       2.886   6.736  17.315  0.00  0.00    +0.000 OA
ENDROOT
BRANCH   1   7
ATOM      7  N   UNL     1       3.118   4.034  18.860  0.00  0.00    +0.000 NA
BRANCH   7   8
ATOM      8  S   UNL     1       4.812   4.262  19.070  0.00  0.00    +0.000 S 
ATOM      9  O   UNL     1       5.043   5.420  19.910  0.00  0.00    +0.000 OA
ATOM     10  O   UNL     1       5.380   2.981  19.444  0.00  0.00    +0.000 OA
BRANCH   8  11
ATOM     11  C   UNL     1       5.433   4.658  17.430  0.00  0.00    +0.000 A 
ATOM     12  C   UNL     1       6.559   5.476  17.349  0.00  0.00    +0.000 A 
ATOM     13  C   UNL     1       7.243   5.606  16.136  0.00  0.00    +0.000 A 
ATOM     14  C   UNL     1       6.814   4.917  14.990  0.00  0.00    +0.000 A 
ATOM     15  C   UNL     1       7.572   4.989  13.814  0.00  0.00    +0.000 A 
ATOM     16  C   UNL     1       7.188   4.305  12.660  0.00  0.00    +0.000 A 
ATOM     17  C   UNL     1       6.010   3.565  12.649  0.00  0.00    +0.000 A 
ATOM     18  C   UNL     1       5.246   3.478  13.830  0.00  0.00    +0.000 A 
ATOM     19  C   UNL     1       5.643   4.126  15.030  0.00  0.00    +0.000 A 
ATOM     20  C   UNL     1       4.962   3.997  16.275  0.00  0.00    +0.000 A 
BRANCH  17  21
ATOM     21  O   UNL     1       5.529   2.890  11.556  0.00  0.00    +0.000 OA
ATOM     22  C   UNL     1       4.159   3.120  11.217  0.00  0.00    +0.000 C 
ENDBRANCH  17  21
ENDBRANCH   8  11
ENDBRANCH   7   8
BRANCH   7  24
ATOM     23  C   UNL     1       1.196   2.403  19.100  0.00  0.00    +0.000 C 
ATOM     24  C   UNL     1       2.642   2.734  19.430  0.00  0.00    +0.000 C 
ENDBRANCH   7  24
ENDBRANCH   1   7
BRANCH   4  25
ATOM     25  C   UNL     1       2.226   8.977  19.130  0.00  0.00    +0.000 C 
BRANCH  25  26
ATOM     26  C   UNL     1       0.990   9.834  19.305  0.00  0.00    +0.000 A 
ATOM     27  C   UNL     1       0.071   9.980  18.253  0.00  0.00    +0.000 A 
ATOM     28  C   UNL     1      -1.161  10.616  18.458  0.00  0.00    +0.000 A 
ATOM     29  C   UNL     1      -1.490  11.115  19.718  0.00  0.00    +0.000 A 
ATOM     30  C   UNL     1      -0.579  11.001  20.774  0.00  0.00    +0.000 A 
ATOM     31  C   UNL     1       0.662  10.374  20.559  0.00  0.00    +0.000 A 
BRANCH  30  32
ATOM     32  C   UNL     1      -0.955  11.458  22.143  0.00  0.00    +0.000 C 
ATOM     33  N   UNL     1      -0.490  10.921  23.228  0.00  0.00    +0.000 NA
ATOM     34  N   UNL     1      -1.806  12.509  22.308  0.00  0.00    +0.000 N 
ATOM     35  H   UNL     1       0.111  10.120  23.026  0.00  0.00    +0.000 HD
ATOM     36  H   UNL     1      -1.751  13.247  21.615  0.00  0.00    +0.000 HD
ATOM     37  H   UNL     1      -1.779  12.860  23.260  0.00  0.00    +0.000 HD
ENDBRANCH  30  32
ENDBRANCH  25  26
ENDBRANCH   4  25
TORSDOF 8
ENDMDL
MODEL 7
REMARK VINA RESULT:      -8.2      3.907      6.856
REMARK  Name = 
REMARK  10 active torsions:
REMARK  status: ('A' for Active; 'I' for Inactive)
REMARK    1  A    between atoms: C_1  and  C_2
REMARK    2  A    between atoms: C_2  and  N_3
REMARK    3  A    between atoms: N_3  and  C_4
REMARK    4  A    between atoms: N_3  and  S_20
REMARK    5  A    between atoms: N_7  and  C_8
REMARK    6  A    between atoms: C_8  and  C_9
REMARK    7  A    between atoms: C_13  and  C_14
REMARK    8  A    between atoms: S_20  and  C_23
REMARK    9  A    between atoms: C_29  and  O_30
REMARK   10  A    between atoms: O_30  and  C_31
REMARK                            x       y       z     vdW  Elec       q    Type
REMARK                         _______ _______ _______ _____ _____    ______ ____
ROOT
ATOM      1  C   UNL     1      -0.540  11.369  20.741  0.00  0.00    +0.000 C 
ATOM      2  C   UNL     1      -0.433  11.583  22.255  0.00  0.00    +0.000 C 
ATOM      3  C   UNL     1      -1.872  11.818  22.685  0.00  0.00    +0.000 C 
ATOM      4  N   UNL     1      -2.457  12.480  21.547  0.00  0.00    +0.000 N 
ATOM      5  C   UNL     1      -1.718  12.271  20.379  0.00  0.00    +0.000 C 
ATOM      6  O   UNL     1      -2.017  12.662  19.260  0.00  0.00    +0.000 OA
ENDROOT
BRANCH   1   7
ATOM      7  N   UNL     1       0.773  11.491  20.026  0.00  0.00    +0.000 NA
BRANCH   7   8
ATOM      8  S   UNL     1       1.001  10.536  18.610  0.00  0.00    +0.000 S 
ATOM      9  O   UNL     1      -0.283  10.273  17.994  0.00  0.00    +0.000 OA
ATOM     10  O   UNL     1       2.055  11.157  17.832  0.00  0.00    +0.000 OA
BRANCH   8  11
ATOM     11  C   UNL     1       1.639   8.965  19.209  0.00  0.00    +0.000 A 
ATOM     12  C   UNL     1       1.296   8.585  20.506  0.00  0.00    +0.000 A 
ATOM     13  C   UNL     1       1.533   7.276  20.936  0.00  0.00    +0.000 A 
ATOM     14  C   UNL     1       2.111   6.328  20.075  0.00  0.00    +0.000 A 
ATOM     15  C   UNL     1       2.248   5.000  20.498  0.00  0.00    +0.000 A 
ATOM     16  C   UNL     1       2.801   4.026  19.667  0.00  0.00    +0.000 A 
ATOM     17  C   UNL     1       3.266   4.374  18.402  0.00  0.00    +0.000 A 
ATOM     18  C   UNL     1       3.123   5.705  17.962  0.00  0.00    +0.000 A 
ATOM     19  C   UNL     1       2.518   6.702  18.774  0.00  0.00    +0.000 A 
ATOM     20  C   UNL     1       2.263   8.038  18.348  0.00  0.00    +0.000 A 
BRANCH  17  21
ATOM     21  O   UNL     1       3.858   3.499  17.526  0.00  0.00    +0.000 OA
ATOM     22  C   UNL     1       5.133   3.883  17.007  0.00  0.00    +0.000 C 
ENDBRANCH  17  21
ENDBRANCH   8  11
ENDBRANCH   7   8
BRANCH   7  24
ATOM     23  C   UNL     1       2.377  13.279  20.828  0.00  0.00    +0.000 C 
ATOM     24  C   UNL     1       1.275  12.891  19.856  0.00  0.00    +0.000 C 
ENDBRANCH   7  24
ENDBRANCH   1   7
BRANCH   4  25
ATOM     25  C   UNL     1      -3.594  13.377  21.658  0.00  0.00    +0.000 C 
BRANCH  25  26
ATOM     26  C   UNL     1      -4.962  12.737  21.553  0.00  0.00    +0.000 A 
ATOM     27  C   UNL     1      -5.974  13.067  22.470  0.00  0.00    +0.000 A 
ATOM     28  C   UNL     1      -7.290  12.626  22.277  0.00  0.00    +0.000 A 
ATOM     29  C   UNL     1      -7.612  11.850  21.163  0.00  0.00    +0.000 A 
ATOM     30  C   UNL     1      -6.615  11.491  20.251  0.00  0.00    +0.000 A 
ATOM     31  C   UNL     1      -5.292  11.924  20.457  0.00  0.00    +0.000 A 
BRANCH  30  32
ATOM     32  C   UNL     1      -6.966  10.731  19.016  0.00  0.00    +0.000 C 
ATOM     33  N   UNL     1      -7.452   9.529  19.031  0.00  0.00    +0.000 NA
ATOM     34  N   UNL     1      -6.807  11.301  17.789  0.00  0.00    +0.000 N 
ATOM     35  H   UNL     1      -7.509   9.156  19.981  0.00  0.00    +0.000 HD
ATOM     36  H   UNL     1      -6.970  12.300  17.732  0.00  0.00    +0.000 HD
ATOM     37  H   UNL     1      -7.303  10.779  17.073  0.00  0.00    +0.000 HD
ENDBRANCH  30  32
ENDBRANCH  25  26
ENDBRANCH   4  25
TORSDOF 8
ENDMDL
MODEL 8
REMARK VINA RESULT:      -8.1      1.728      2.386
REMARK  Name = 
REMARK  10 active torsions:
REMARK  status: ('A' for Active; 'I' for Inactive)
REMARK    1  A    between atoms: C_1  and  C_2
REMARK    2  A    between atoms: C_2  and  N_3
REMARK    3  A    between atoms: N_3  and  C_4
REMARK    4  A    between atoms: N_3  and  S_20
REMARK    5  A    between atoms: N_7  and  C_8
REMARK    6  A    between atoms: C_8  and  C_9
REMARK    7  A    between atoms: C_13  and  C_14
REMARK    8  A    between atoms: S_20  and  C_23
REMARK    9  A    between atoms: C_29  and  O_30
REMARK   10  A    between atoms: O_30  and  C_31
REMARK                            x       y       z     vdW  Elec       q    Type
REMARK                         _______ _______ _______ _____ _____    ______ ____
ROOT
ATOM      1  C   UNL     1       3.089   6.874  18.912  0.00  0.00    +0.000 C 
ATOM      2  C   UNL     1       2.780   7.491  17.543  0.00  0.00    +0.000 C 
ATOM      3  C   UNL     1       2.279   8.886  17.885  0.00  0.00    +0.000 C 
ATOM      4  N   UNL     1       1.621   8.703  19.153  0.00  0.00    +0.000 N 
ATOM      5  C   UNL     1       2.037   7.536  19.800  0.00  0.00    +0.000 C 
ATOM      6  O   UNL     1       1.690   7.168  20.912  0.00  0.00    +0.000 OA
ENDROOT
BRANCH   1   7
ATOM      7  N   UNL     1       3.239   5.382  18.875  0.00  0.00    +0.000 NA
BRANCH   7   8
ATOM      8  S   UNL     1       4.838   4.742  18.881  0.00  0.00    +0.000 S 
ATOM      9  O   UNL     1       5.677   5.547  19.745  0.00  0.00    +0.000 OA
ATOM     10  O   UNL     1       4.734   3.314  19.112  0.00  0.00    +0.000 OA
BRANCH   8  11
ATOM     11  C   UNL     1       5.433   4.965  17.199  0.00  0.00    +0.000 A 
ATOM     12  C   UNL     1       6.593   5.717  17.022  0.00  0.00    +0.000 A 
ATOM     13  C   UNL     1       7.250   5.709  15.787  0.00  0.00    +0.000 A 
ATOM     14  C   UNL     1       6.759   4.946  14.715  0.00  0.00    +0.000 A 
ATOM     15  C   UNL     1       7.488   4.879  13.521  0.00  0.00    +0.000 A 
ATOM     16  C   UNL     1       7.042   4.119  12.440  0.00  0.00    +0.000 A 
ATOM     17  C   UNL     1       5.831   3.439  12.519  0.00  0.00    +0.000 A 
ATOM     18  C   UNL     1       5.095   3.490  13.720  0.00  0.00    +0.000 A 
ATOM     19  C   UNL     1       5.554   4.219  14.851  0.00  0.00    +0.000 A 
ATOM     20  C   UNL     1       4.901   4.231  16.117  0.00  0.00    +0.000 A 
BRANCH  17  21
ATOM     21  O   UNL     1       5.290   2.697  11.501  0.00  0.00    +0.000 OA
ATOM     22  C   UNL     1       4.002   3.103  11.031  0.00  0.00    +0.000 C 
ENDBRANCH  17  21
ENDBRANCH   8  11
ENDBRANCH   7   8
BRANCH   7  24
ATOM     23  C   UNL     1       1.274   3.796  19.066  0.00  0.00    +0.000 C 
ATOM     24  C   UNL     1       2.320   4.630  19.787  0.00  0.00    +0.000 C 
ENDBRANCH   7  24
ENDBRANCH   1   7
BRANCH   4  25
ATOM     25  C   UNL     1       0.544   9.564  19.610  0.00  0.00    +0.000 C 
BRANCH  25  26
ATOM     26  C   UNL     1       0.538  10.975  19.060  0.00  0.00    +0.000 A 
ATOM     27  C   UNL     1      -0.674  11.609  18.740  0.00  0.00    +0.000 A 
ATOM     28  C   UNL     1      -0.707  12.969  18.406  0.00  0.00    +0.000 A 
ATOM     29  C   UNL     1       0.472  13.715  18.389  0.00  0.00    +0.000 A 
ATOM     30  C   UNL     1       1.692  13.098  18.682  0.00  0.00    +0.000 A 
ATOM     31  C   UNL     1       1.722  11.728  19.002  0.00  0.00    +0.000 A 
BRANCH  30  32
ATOM     32  C   UNL     1       2.945  13.905  18.745  0.00  0.00    +0.000 C 
ATOM     33  N   UNL     1       3.590  14.306  17.694  0.00  0.00    +0.000 NA
ATOM     34  N   UNL     1       3.459  14.285  19.949  0.00  0.00    +0.000 N 
ATOM     35  H   UNL     1       3.166  13.955  16.833  0.00  0.00    +0.000 HD
ATOM     36  H   UNL     1       2.788  14.485  20.682  0.00  0.00    +0.000 HD
ATOM     37  H   UNL     1       4.154  15.016  19.838  0.00  0.00    +0.000 HD
ENDBRANCH  30  32
ENDBRANCH  25  26
ENDBRANCH   4  25
TORSDOF 8
ENDMDL
MODEL 9
REMARK VINA RESULT:      -8.1      1.222      1.571
REMARK  Name = 
REMARK  10 active torsions:
REMARK  status: ('A' for Active; 'I' for Inactive)
REMARK    1  A    between atoms: C_1  and  C_2
REMARK    2  A    between atoms: C_2  and  N_3
REMARK    3  A    between atoms: N_3  and  C_4
REMARK    4  A    between atoms: N_3  and  S_20
REMARK    5  A    between atoms: N_7  and  C_8
REMARK    6  A    between atoms: C_8  and  C_9
REMARK    7  A    between atoms: C_13  and  C_14
REMARK    8  A    between atoms: S_20  and  C_23
REMARK    9  A    between atoms: C_29  and  O_30
REMARK   10  A    between atoms: O_30  and  C_31
REMARK                            x       y       z     vdW  Elec       q    Type
REMARK                         _______ _______ _______ _____ _____    ______ ____
ROOT
ATOM      1  C   UNL     1       2.954   7.016  18.874  0.00  0.00    +0.000 C 
ATOM      2  C   UNL     1       2.633   7.842  17.623  0.00  0.00    +0.000 C 
ATOM      3  C   UNL     1       2.206   9.189  18.185  0.00  0.00    +0.000 C 
ATOM      4  N   UNL     1       1.577   8.845  19.435  0.00  0.00    +0.000 N 
ATOM      5  C   UNL     1       1.959   7.579  19.887  0.00  0.00    +0.000 C 
ATOM      6  O   UNL     1       1.629   7.063  20.944  0.00  0.00    +0.000 OA
ENDROOT
BRANCH   1   7
ATOM      7  N   UNL     1       3.036   5.541  18.611  0.00  0.00    +0.000 NA
BRANCH   7   8
ATOM      8  S   UNL     1       4.589   4.802  18.692  0.00  0.00    +0.000 S 
ATOM      9  O   UNL     1       5.428   5.541  19.614  0.00  0.00    +0.000 OA
ATOM     10  O   UNL     1       4.385   3.380  18.892  0.00  0.00    +0.000 OA
BRANCH   8  11
ATOM     11  C   UNL     1       5.288   5.012  17.049  0.00  0.00    +0.000 A 
ATOM     12  C   UNL     1       6.459   5.761  16.939  0.00  0.00    +0.000 A 
ATOM     13  C   UNL     1       7.191   5.743  15.748  0.00  0.00    +0.000 A 
ATOM     14  C   UNL     1       6.767   4.973  14.653  0.00  0.00    +0.000 A 
ATOM     15  C   UNL     1       7.568   4.896  13.507  0.00  0.00    +0.000 A 
ATOM     16  C   UNL     1       7.191   4.128  12.406  0.00  0.00    +0.000 A 
ATOM     17  C   UNL     1       5.975   3.449  12.415  0.00  0.00    +0.000 A 
ATOM     18  C   UNL     1       5.166   3.510  13.567  0.00  0.00    +0.000 A 
ATOM     19  C   UNL     1       5.555   4.247  14.719  0.00  0.00    +0.000 A 
ATOM     20  C   UNL     1       4.824   4.269  15.942  0.00  0.00    +0.000 A 
BRANCH  17  21
ATOM     21  O   UNL     1       5.498   2.699  11.371  0.00  0.00    +0.000 OA
ATOM     22  C   UNL     1       5.956   1.347  11.294  0.00  0.00    +0.000 C 
ENDBRANCH  17  21
ENDBRANCH   8  11
ENDBRANCH   7   8
BRANCH   7  24
ATOM     23  C   UNL     1       1.209   3.808  18.336  0.00  0.00    +0.000 C 
ATOM     24  C   UNL     1       1.978   4.719  19.279  0.00  0.00    +0.000 C 
ENDBRANCH   7  24
ENDBRANCH   1   7
BRANCH   4  25
ATOM     25  C   UNL     1       0.554   9.671  20.052  0.00  0.00    +0.000 C 
BRANCH  25  26
ATOM     26  C   UNL     1      -0.525  10.199  19.131  0.00  0.00    +0.000 A 
ATOM     27  C   UNL     1      -0.704   9.644  17.853  0.00  0.00    +0.000 A 
ATOM     28  C   UNL     1      -1.808   9.995  17.064  0.00  0.00    +0.000 A 
ATOM     29  C   UNL     1      -2.750  10.905  17.545  0.00  0.00    +0.000 A 
ATOM     30  C   UNL     1      -2.579  11.487  18.805  0.00  0.00    +0.000 A 
ATOM     31  C   UNL     1      -1.460  11.143  19.587  0.00  0.00    +0.000 A 
BRANCH  30  32
ATOM     32  C   UNL     1      -3.621  12.399  19.359  0.00  0.00    +0.000 C 
ATOM     33  N   UNL     1      -4.894  12.177  19.251  0.00  0.00    +0.000 NA
ATOM     34  N   UNL     1      -3.261  13.519  20.045  0.00  0.00    +0.000 N 
ATOM     35  H   UNL     1      -5.087  11.340  18.696  0.00  0.00    +0.000 HD
ATOM     36  H   UNL     1      -2.415  13.456  20.601  0.00  0.00    +0.000 HD
ATOM     37  H   UNL     1      -4.045  13.902  20.564  0.00  0.00    +0.000 HD
ENDBRANCH  30  32
ENDBRANCH  25  26
ENDBRANCH   4  25
TORSDOF 8
ENDMDL
