MODEL 1
REMARK VINA RESULT:      -8.8      0.000      0.000
REMARK  Name = 
REMARK  5 active torsions:
REMARK  status: ('A' for Active; 'I' for Inactive)
REMARK    1  A    between atoms: C_6  and  N_7
REMARK    2  A    between atoms: N_7  and  C_8
REMARK    3  A    between atoms: N_11  and  C_12
REMARK    4  A    between atoms: C_12  and  C_13
REMARK    5  A    between atoms: C_15  and  C_16
REMARK                            x       y       z     vdW  Elec       q    Type
REMARK                         _______ _______ _______ _____ _____    ______ ____
ROOT
ATOM      1  C   UNL     1       6.342   4.854  18.106  0.00  0.00    +0.000 A 
ATOM      2  N   UNL     1       7.013   5.890  18.654  0.00  0.00    +0.000 NA
ATOM      3  C   UNL     1       7.576   6.810  17.862  0.00  0.00    +0.000 A 
ATOM      4  N   UNL     1       8.279   7.802  18.509  0.00  0.00    +0.000 N 
ATOM      5  N   UNL     1       7.498   6.781  16.530  0.00  0.00    +0.000 NA
ATOM      6  C   UNL     1       6.839   5.738  15.988  0.00  0.00    +0.000 A 
ATOM      7  C   UNL     1       6.243   4.741  16.725  0.00  0.00    +0.000 A 
ATOM      8 BR   UNL     1       5.331   3.338  15.854  0.00  0.00    +0.000 Br
ATOM      9  H   UNL     1       8.035   7.768  19.493  0.00  0.00    +0.000 HD
ENDROOT
BRANCH   1  10
ATOM     10  N   UNL     1       5.686   3.928  18.934  0.00  0.00    +0.000 N 
ATOM     11  H   UNL     1       6.194   3.080  19.149  0.00  0.00    +0.000 HD
BRANCH  10  17
ATOM     12  N   UNL     1       2.107   6.434  20.561  0.00  0.00    +0.000 N 
ATOM     13  C   UNL     1       2.660   5.170  20.353  0.00  0.00    +0.000 A 
ATOM     14  C   UNL     1       1.957   4.040  20.737  0.00  0.00    +0.000 A 
ATOM     15  C   UNL     1       2.524   2.800  20.505  0.00  0.00    +0.000 A 
ATOM     16  C   UNL     1       3.770   2.734  19.893  0.00  0.00    +0.000 A 
ATOM     17  C   UNL     1       4.423   3.904  19.522  0.00  0.00    +0.000 A 
ATOM     18  N   UNL     1       3.864   5.117  19.745  0.00  0.00    +0.000 NA
ATOM     19  H   UNL     1       1.808   6.559  21.522  0.00  0.00    +0.000 HD
ATOM     20  H   UNL     1       2.799   7.124  20.281  0.00  0.00    +0.000 HD
ENDBRANCH  10  17
ENDBRANCH   1  10
BRANCH   4  21
ATOM     21  C   UNL     1       8.242   9.133  17.922  0.00  0.00    +0.000 C 
BRANCH  21  22
ATOM     22  C   UNL     1       8.969  10.178  18.690  0.00  0.00    +0.000 A 
ATOM     23  C   UNL     1       9.577  11.366  18.360  0.00  0.00    +0.000 A 
ATOM     24  C   UNL     1       9.997  11.919  19.599  0.00  0.00    +0.000 A 
ATOM     25  N   UNL     1       9.727  11.066  20.601  0.00  0.00    +0.000 NA
ATOM     26  O   UNL     1       9.073   9.991  20.032  0.00  0.00    +0.000 OA
BRANCH  24  27
ATOM     27  C   UNL     1      10.601  13.230  19.835  0.00  0.00    +0.000 A 
ATOM     28  C   UNL     1      10.113  14.054  20.861  0.00  0.00    +0.000 A 
ATOM     29  C   UNL     1      10.701  15.294  21.120  0.00  0.00    +0.000 A 
ATOM     30  C   UNL     1      11.781  15.725  20.353  0.00  0.00    +0.000 A 
ATOM     31  C   UNL     1      12.274  14.919  19.329  0.00  0.00    +0.000 A 
ATOM     32  C   UNL     1      11.690  13.675  19.072  0.00  0.00    +0.000 A 
ENDBRANCH  24  27
ENDBRANCH  21  22
ENDBRANCH   4  21
TORSDOF 5
ENDMDL
MODEL 2
REMARK VINA RESULT:      -8.8      5.871      9.072
REMARK  Name = 
REMARK  5 active torsions:
REMARK  status: ('A' for Active; 'I' for Inactive)
REMARK    1  A    between atoms: C_6  and  N_7
REMARK    2  A    between atoms: N_7  and  C_8
REMARK    3  A    between atoms: N_11  and  C_12
REMARK    4  A    between atoms: C_12  and  C_13
REMARK    5  A    between atoms: C_15  and  C_16
REMARK                            x       y       z     vdW  Elec       q    Type
REMARK                         _______ _______ _______ _____ _____    ______ ____
ROOT
ATOM      1  C   UNL     1       3.216   5.449  19.110  0.00  0.00    +0.000 A 
ATOM      2  N   UNL     1       2.857   6.698  19.478  0.00  0.00    +0.000 NA
ATOM      3  C   UNL     1       1.839   6.873  20.329  0.00  0.00    +0.000 A 
ATOM      4  N   UNL     1       1.516   8.183  20.609  0.00  0.00    +0.000 N 
ATOM      5  N   UNL     1       1.150   5.865  20.868  0.00  0.00    +0.000 NA
ATOM      6  C   UNL     1       1.502   4.623  20.486  0.00  0.00    +0.000 A 
ATOM      7  C   UNL     1       2.525   4.351  19.607  0.00  0.00    +0.000 A 
ATOM      8 BR   UNL     1       2.940   2.566  19.160  0.00  0.00    +0.000 Br
ATOM      9  H   UNL     1       2.279   8.769  20.286  0.00  0.00    +0.000 HD
ENDROOT
BRANCH   1  10
ATOM     10  N   UNL     1       4.331   5.258  18.277  0.00  0.00    +0.000 N 
ATOM     11  H   UNL     1       4.216   4.597  17.519  0.00  0.00    +0.000 HD
BRANCH  10  17
ATOM     12  N   UNL     1       8.505   5.255  20.355  0.00  0.00    +0.000 N 
ATOM     13  C   UNL     1       7.690   5.779  19.350  0.00  0.00    +0.000 A 
ATOM     14  C   UNL     1       8.196   6.735  18.485  0.00  0.00    +0.000 A 
ATOM     15  C   UNL     1       7.370   7.227  17.490  0.00  0.00    +0.000 A 
ATOM     16  C   UNL     1       6.072   6.741  17.392  0.00  0.00    +0.000 A 
ATOM     17  C   UNL     1       5.625   5.774  18.285  0.00  0.00    +0.000 A 
ATOM     18  N   UNL     1       6.436   5.290  19.255  0.00  0.00    +0.000 NA
ATOM     19  H   UNL     1       8.935   5.986  20.909  0.00  0.00    +0.000 HD
ATOM     20  H   UNL     1       7.935   4.630  20.918  0.00  0.00    +0.000 HD
ENDBRANCH  10  17
ENDBRANCH   1  10
BRANCH   4  21
ATOM     21  C   UNL     1       1.054   8.479  21.956  0.00  0.00    +0.000 C 
BRANCH  21  22
ATOM     22  C   UNL     1       0.382   9.795  22.114  0.00  0.00    +0.000 A 
ATOM     23  C   UNL     1      -0.771  10.218  22.730  0.00  0.00    +0.000 A 
ATOM     24  C   UNL     1      -0.770  11.631  22.581  0.00  0.00    +0.000 A 
ATOM     25  N   UNL     1       0.285  12.016  21.844  0.00  0.00    +0.000 NA
ATOM     26  O   UNL     1       1.007  10.872  21.569  0.00  0.00    +0.000 OA
BRANCH  24  27
ATOM     27  C   UNL     1      -1.714  12.592  23.149  0.00  0.00    +0.000 A 
ATOM     28  C   UNL     1      -1.386  13.955  23.197  0.00  0.00    +0.000 A 
ATOM     29  C   UNL     1      -2.292  14.889  23.705  0.00  0.00    +0.000 A 
ATOM     30  C   UNL     1      -3.534  14.469  24.176  0.00  0.00    +0.000 A 
ATOM     31  C   UNL     1      -3.872  13.117  24.138  0.00  0.00    +0.000 A 
ATOM     32  C   UNL     1      -2.969  12.182  23.623  0.00  0.00    +0.000 A 
ENDBRANCH  24  27
ENDBRANCH  21  22
ENDBRANCH   4  21
TORSDOF 5
ENDMDL
MODEL 3
REMARK VINA RESULT:      -8.7      5.890      8.728
REMARK  Name = 
REMARK  5 active torsions:
REMARK  status: ('A' for Active; 'I' for Inactive)
REMARK    1  A    between atoms: C_6  and  N_7
REMARK    2  A    between atoms: N_7  and  C_8
REMARK    3  A    between atoms: N_11  and  C_12
REMARK    4  A    between atoms: C_12  and  C_13
REMARK    5  A    between atoms: C_15  and  C_16
REMARK                            x       y       z     vdW  Elec       q    Type
REMARK                         _______ _______ _______ _____ _____    ______ ____
ROOT
ATOM      1  C   UNL     1       3.149   5.343  19.290  0.00  0.00    +0.000 A 
ATOM      2  N   UNL     1       4.331   5.845  18.871  0.00  0.00    +0.000 NA
ATOM      3  C   UNL     1       5.424   5.073  18.890  0.00  0.00    +0.000 A 
ATOM      4  N   UNL     1       6.591   5.685  18.489  0.00  0.00    +0.000 N 
ATOM      5  N   UNL     1       5.419   3.799  19.289  0.00  0.00    +0.000 NA
ATOM      6  C   UNL     1       4.240   3.309  19.720  0.00  0.00    +0.000 A 
ATOM      7  C   UNL     1       3.072   4.034  19.748  0.00  0.00    +0.000 A 
ATOM      8 BR   UNL     1       1.475   3.232  20.356  0.00  0.00    +0.000 Br
ATOM      9  H   UNL     1       6.346   6.556  18.029  0.00  0.00    +0.000 HD
ENDROOT
BRANCH   1  10
ATOM     10  N   UNL     1       1.985   6.125  19.201  0.00  0.00    +0.000 N 
ATOM     11  H   UNL     1       1.198   5.705  18.724  0.00  0.00    +0.000 HD
BRANCH  10  17
ATOM     12  N   UNL     1       1.591  10.605  17.971  0.00  0.00    +0.000 N 
ATOM     13  C   UNL     1       1.509   9.652  18.987  0.00  0.00    +0.000 A 
ATOM     14  C   UNL     1       1.156  10.042  20.268  0.00  0.00    +0.000 A 
ATOM     15  C   UNL     1       1.070   9.073  21.252  0.00  0.00    +0.000 A 
ATOM     16  C   UNL     1       1.334   7.750  20.918  0.00  0.00    +0.000 A 
ATOM     17  C   UNL     1       1.674   7.419  19.612  0.00  0.00    +0.000 A 
ATOM     18  N   UNL     1       1.754   8.368  18.649  0.00  0.00    +0.000 NA
ATOM     19  H   UNL     1       2.178  11.387  18.237  0.00  0.00    +0.000 HD
ATOM     20  H   UNL     1       1.929  10.136  17.135  0.00  0.00    +0.000 HD
ENDBRANCH  10  17
ENDBRANCH   1  10
BRANCH   4  21
ATOM     21  C   UNL     1       7.554   4.869  17.766  0.00  0.00    +0.000 C 
BRANCH  21  22
ATOM     22  C   UNL     1       7.260   4.682  16.321  0.00  0.00    +0.000 A 
ATOM     23  C   UNL     1       6.606   3.720  15.589  0.00  0.00    +0.000 A 
ATOM     24  C   UNL     1       6.604   4.211  14.256  0.00  0.00    +0.000 A 
ATOM     25  N   UNL     1       7.292   5.363  14.187  0.00  0.00    +0.000 NA
ATOM     26  O   UNL     1       7.685   5.660  15.478  0.00  0.00    +0.000 OA
BRANCH  24  27
ATOM     27  C   UNL     1       5.940   3.631  13.090  0.00  0.00    +0.000 A 
ATOM     28  C   UNL     1       6.572   2.617  12.353  0.00  0.00    +0.000 A 
ATOM     29  C   UNL     1       5.935   2.030  11.257  0.00  0.00    +0.000 A 
ATOM     30  C   UNL     1       4.662   2.454  10.883  0.00  0.00    +0.000 A 
ATOM     31  C   UNL     1       4.024   3.462  11.603  0.00  0.00    +0.000 A 
ATOM     32  C   UNL     1       4.657   4.046  12.705  0.00  0.00    +0.000 A 
ENDBRANCH  24  27
ENDBRANCH  21  22
ENDBRANCH   4  21
TORSDOF 5
ENDMDL
MODEL 4
REMARK VINA RESULT:      -8.6      5.752      8.375
REMARK  Name = 
REMARK  5 active torsions:
REMARK  status: ('A' for Active; 'I' for Inactive)
REMARK    1  A    between atoms: C_6  and  N_7
REMARK    2  A    between atoms: N_7  and  C_8
REMARK    3  A    between atoms: N_11  and  C_12
REMARK    4  A    between atoms: C_12  and  C_13
REMARK    5  A    between atoms: C_15  and  C_16
REMARK                            x       y       z     vdW  Elec       q    Type
REMARK                         _______ _______ _______ _____ _____    ______ ____
ROOT
ATOM      1  C   UNL     1       3.270   5.270  19.686  0.00  0.00    +0.000 A 
ATOM      2  N   UNL     1       4.524   5.758  19.574  0.00  0.00    +0.000 NA
ATOM      3  C   UNL     1       5.541   4.924  19.331  0.00  0.00    +0.000 A 
ATOM      4  N   UNL     1       6.789   5.506  19.280  0.00  0.00    +0.000 N 
ATOM      5  N   UNL     1       5.390   3.608  19.166  0.00  0.00    +0.000 NA
ATOM      6  C   UNL     1       4.139   3.125  19.294  0.00  0.00    +0.000 A 
ATOM      7  C   UNL     1       3.038   3.907  19.557  0.00  0.00    +0.000 A 
ATOM      8 BR   UNL     1       1.329   3.118  19.695  0.00  0.00    +0.000 Br
ATOM      9  H   UNL     1       6.663   6.510  19.209  0.00  0.00    +0.000 HD
ENDROOT
BRANCH   1  10
ATOM     10  N   UNL     1       2.190   6.151  19.867  0.00  0.00    +0.000 N 
ATOM     11  H   UNL     1       1.399   5.790  20.385  0.00  0.00    +0.000 HD
BRANCH  10  17
ATOM     12  N   UNL     1       0.582  10.374  21.017  0.00  0.00    +0.000 N 
ATOM     13  C   UNL     1       1.113   9.546  20.027  0.00  0.00    +0.000 A 
ATOM     14  C   UNL     1       1.334  10.050  18.756  0.00  0.00    +0.000 A 
ATOM     15  C   UNL     1       1.875   9.209  17.799  0.00  0.00    +0.000 A 
ATOM     16  C   UNL     1       2.180   7.899  18.148  0.00  0.00    +0.000 A 
ATOM     17  C   UNL     1       1.943   7.455  19.443  0.00  0.00    +0.000 A 
ATOM     18  N   UNL     1       1.419   8.280  20.381  0.00  0.00    +0.000 NA
ATOM     19  H   UNL     1      -0.266  10.833  20.707  0.00  0.00    +0.000 HD
ATOM     20  H   UNL     1       0.432   9.805  21.846  0.00  0.00    +0.000 HD
ENDBRANCH  10  17
ENDBRANCH   1  10
BRANCH   4  21
ATOM     21  C   UNL     1       7.745   4.947  18.336  0.00  0.00    +0.000 C 
BRANCH  21  22
ATOM     22  C   UNL     1       7.295   4.939  16.919  0.00  0.00    +0.000 A 
ATOM     23  C   UNL     1       7.177   3.969  15.953  0.00  0.00    +0.000 A 
ATOM     24  C   UNL     1       6.589   4.628  14.840  0.00  0.00    +0.000 A 
ATOM     25  N   UNL     1       6.444   5.937  15.104  0.00  0.00    +0.000 NA
ATOM     26  O   UNL     1       6.871   6.123  16.404  0.00  0.00    +0.000 OA
BRANCH  24  27
ATOM     27  C   UNL     1       6.143   4.034  13.581  0.00  0.00    +0.000 A 
ATOM     28  C   UNL     1       7.084   3.562  12.654  0.00  0.00    +0.000 A 
ATOM     29  C   UNL     1       6.671   2.961  11.463  0.00  0.00    +0.000 A 
ATOM     30  C   UNL     1       5.313   2.829  11.183  0.00  0.00    +0.000 A 
ATOM     31  C   UNL     1       4.367   3.296  12.094  0.00  0.00    +0.000 A 
ATOM     32  C   UNL     1       4.778   3.892  13.290  0.00  0.00    +0.000 A 
ENDBRANCH  24  27
ENDBRANCH  21  22
ENDBRANCH   4  21
TORSDOF 5
ENDMDL
MODEL 5
REMARK VINA RESULT:      -8.4      6.148      9.050
REMARK  Name = 
REMARK  5 active torsions:
REMARK  status: ('A' for Active; 'I' for Inactive)
REMARK    1  A    between atoms: C_6  and  N_7
REMARK    2  A    between atoms: N_7  and  C_8
REMARK    3  A    between atoms: N_11  and  C_12
REMARK    4  A    between atoms: C_12  and  C_13
REMARK    5  A    between atoms: C_15  and  C_16
REMARK                            x       y       z     vdW  Elec       q    Type
REMARK                         _______ _______ _______ _____ _____    ______ ____
ROOT
ATOM      1  C   UNL     1       2.698   5.040  18.579  0.00  0.00    +0.000 A 
ATOM      2  N   UNL     1       2.491   6.337  18.892  0.00  0.00    +0.000 NA
ATOM      3  C   UNL     1       1.875   6.654  20.037  0.00  0.00    +0.000 A 
ATOM      4  N   UNL     1       1.666   7.999  20.248  0.00  0.00    +0.000 N 
ATOM      5  N   UNL     1       1.458   5.747  20.923  0.00  0.00    +0.000 NA
ATOM      6  C   UNL     1       1.653   4.454  20.599  0.00  0.00    +0.000 A 
ATOM      7  C   UNL     1       2.265   4.038  19.439  0.00  0.00    +0.000 A 
ATOM      8 BR   UNL     1       2.501   2.197  19.102  0.00  0.00    +0.000 Br
ATOM      9  H   UNL     1       2.239   8.512  19.586  0.00  0.00    +0.000 HD
ENDROOT
BRANCH   1  10
ATOM     10  N   UNL     1       3.411   4.705  17.416  0.00  0.00    +0.000 N 
ATOM     11  H   UNL     1       2.859   4.403  16.623  0.00  0.00    +0.000 HD
BRANCH  10  17
ATOM     12  N   UNL     1       7.771   4.973  19.047  0.00  0.00    +0.000 N 
ATOM     13  C   UNL     1       6.936   4.827  17.938  0.00  0.00    +0.000 A 
ATOM     14  C   UNL     1       7.488   4.672  16.678  0.00  0.00    +0.000 A 
ATOM     15  C   UNL     1       6.636   4.515  15.599  0.00  0.00    +0.000 A 
ATOM     16  C   UNL     1       5.264   4.513  15.821  0.00  0.00    +0.000 A 
ATOM     17  C   UNL     1       4.770   4.664  17.111  0.00  0.00    +0.000 A 
ATOM     18  N   UNL     1       5.606   4.812  18.167  0.00  0.00    +0.000 NA
ATOM     19  H   UNL     1       8.453   5.710  18.908  0.00  0.00    +0.000 HD
ATOM     20  H   UNL     1       7.181   5.143  19.857  0.00  0.00    +0.000 HD
ENDBRANCH  10  17
ENDBRANCH   1  10
BRANCH   4  21
ATOM     21  C   UNL     1       1.752   8.477  21.620  0.00  0.00    +0.000 C 
BRANCH  21  22
ATOM     22  C   UNL     1       0.745   9.507  21.990  0.00  0.00    +0.000 A 
ATOM     23  C   UNL     1      -0.116  10.307  21.280  0.00  0.00    +0.000 A 
ATOM     24  C   UNL     1      -0.872  10.997  22.265  0.00  0.00    +0.000 A 
ATOM     25  N   UNL     1      -0.425  10.684  23.493  0.00  0.00    +0.000 NA
ATOM     26  O   UNL     1       0.572   9.744  23.316  0.00  0.00    +0.000 OA
BRANCH  24  27
ATOM     27  C   UNL     1      -2.007  11.895  22.056  0.00  0.00    +0.000 A 
ATOM     28  C   UNL     1      -2.859  12.211  23.126  0.00  0.00    +0.000 A 
ATOM     29  C   UNL     1      -3.927  13.094  22.949  0.00  0.00    +0.000 A 
ATOM     30  C   UNL     1      -4.157  13.667  21.701  0.00  0.00    +0.000 A 
ATOM     31  C   UNL     1      -3.321  13.360  20.629  0.00  0.00    +0.000 A 
ATOM     32  C   UNL     1      -2.247  12.481  20.805  0.00  0.00    +0.000 A 
ENDBRANCH  24  27
ENDBRANCH  21  22
ENDBRANCH   4  21
TORSDOF 5
ENDMDL
MODEL 6
REMARK VINA RESULT:      -8.2      0.947      1.315
REMARK  Name = 
REMARK  5 active torsions:
REMARK  status: ('A' for Active; 'I' for Inactive)
REMARK    1  A    between atoms: C_6  and  N_7
REMARK    2  A    between atoms: N_7  and  C_8
REMARK    3  A    between atoms: N_11  and  C_12
REMARK    4  A    between atoms: C_12  and  C_13
REMARK    5  A    between atoms: C_15  and  C_16
REMARK                            x       y       z     vdW  Elec       q    Type
REMARK                         _______ _______ _______ _____ _____    ______ ____
ROOT
ATOM      1  C   UNL     1       6.351   4.779  18.129  0.00  0.00    +0.000 A 
ATOM      2  N   UNL     1       6.972   5.854  18.659  0.00  0.00    +0.000 NA
ATOM      3  C   UNL     1       7.553   6.750  17.852  0.00  0.00    +0.000 A 
ATOM      4  N   UNL     1       8.201   7.788  18.485  0.00  0.00    +0.000 N 
ATOM      5  N   UNL     1       7.540   6.658  16.521  0.00  0.00    +0.000 NA
ATOM      6  C   UNL     1       6.932   5.576  15.998  0.00  0.00    +0.000 A 
ATOM      7  C   UNL     1       6.323   4.599  16.751  0.00  0.00    +0.000 A 
ATOM      8 BR   UNL     1       5.485   3.136  15.905  0.00  0.00    +0.000 Br
ATOM      9  H   UNL     1       7.909   7.793  19.457  0.00  0.00    +0.000 HD
ENDROOT
BRANCH   1  10
ATOM     10  N   UNL     1       5.675   3.876  18.967  0.00  0.00    +0.000 N 
ATOM     11  H   UNL     1       6.255   3.272  19.536  0.00  0.00    +0.000 HD
BRANCH  10  17
ATOM     12  N   UNL     1       1.277   4.815  17.737  0.00  0.00    +0.000 N 
ATOM     13  C   UNL     1       2.140   4.094  18.564  0.00  0.00    +0.000 A 
ATOM     14  C   UNL     1       1.620   3.206  19.491  0.00  0.00    +0.000 A 
ATOM     15  C   UNL     1       2.500   2.496  20.288  0.00  0.00    +0.000 A 
ATOM     16  C   UNL     1       3.866   2.694  20.126  0.00  0.00    +0.000 A 
ATOM     17  C   UNL     1       4.327   3.594  19.172  0.00  0.00    +0.000 A 
ATOM     18  N   UNL     1       3.464   4.285  18.389  0.00  0.00    +0.000 NA
ATOM     19  H   UNL     1       0.561   5.295  18.269  0.00  0.00    +0.000 HD
ATOM     20  H   UNL     1       1.842   5.454  17.185  0.00  0.00    +0.000 HD
ENDBRANCH  10  17
ENDBRANCH   1  10
BRANCH   4  21
ATOM     21  C   UNL     1       8.164   9.089  17.835  0.00  0.00    +0.000 C 
BRANCH  21  22
ATOM     22  C   UNL     1       8.974  10.145  18.497  0.00  0.00    +0.000 A 
ATOM     23  C   UNL     1       9.671  11.242  18.053  0.00  0.00    +0.000 A 
ATOM     24  C   UNL     1      10.140  11.882  19.232  0.00  0.00    +0.000 A 
ATOM     25  N   UNL     1       9.808  11.157  20.313  0.00  0.00    +0.000 NA
ATOM     26  O   UNL     1       9.069  10.085  19.851  0.00  0.00    +0.000 OA
BRANCH  24  27
ATOM     27  C   UNL     1      10.845  13.158  19.338  0.00  0.00    +0.000 A 
ATOM     28  C   UNL     1      11.681  13.588  18.296  0.00  0.00    +0.000 A 
ATOM     29  C   UNL     1      12.333  14.821  18.368  0.00  0.00    +0.000 A 
ATOM     30  C   UNL     1      12.161  15.635  19.486  0.00  0.00    +0.000 A 
ATOM     31  C   UNL     1      11.336  15.219  20.529  0.00  0.00    +0.000 A 
ATOM     32  C   UNL     1      10.677  13.989  20.456  0.00  0.00    +0.000 A 
ENDBRANCH  24  27
ENDBRANCH  21  22
ENDBRANCH   4  21
TORSDOF 5
ENDMDL
MODEL 7
REMARK VINA RESULT:      -8.2      7.857     11.293
REMARK  Name = 
REMARK  5 active torsions:
REMARK  status: ('A' for Active; 'I' for Inactive)
REMARK    1  A    between atoms: C_6  and  N_7
REMARK    2  A    between atoms: N_7  and  C_8
REMARK    3  A    between atoms: N_11  and  C_12
REMARK    4  A    between atoms: C_12  and  C_13
REMARK    5  A    between atoms: C_15  and  C_16
REMARK                            x       y       z     vdW  Elec       q    Type
REMARK                         _______ _______ _______ _____ _____    ______ ____
ROOT
ATOM      1  C   UNL     1      -3.258  12.088  19.179  0.00  0.00    +0.000 A 
ATOM      2  N   UNL     1      -2.046  11.828  19.715  0.00  0.00    +0.000 NA
ATOM      3  C   UNL     1      -1.201  11.009  19.078  0.00  0.00    +0.000 A 
ATOM      4  N   UNL     1      -0.009  10.766  19.724  0.00  0.00    +0.000 N 
ATOM      5  N   UNL     1      -1.477  10.434  17.906  0.00  0.00    +0.000 NA
ATOM      6  C   UNL     1      -2.693  10.686  17.383  0.00  0.00    +0.000 A 
ATOM      7  C   UNL     1      -3.628  11.502  17.976  0.00  0.00    +0.000 A 
ATOM      8 BR   UNL     1      -5.294  11.795  17.138  0.00  0.00    +0.000 Br
ATOM      9  H   UNL     1       0.092  11.452  20.464  0.00  0.00    +0.000 HD
ENDROOT
BRANCH   1  10
ATOM     10  N   UNL     1      -4.119  13.005  19.807  0.00  0.00    +0.000 N 
ATOM     11  H   UNL     1      -4.080  13.959  19.471  0.00  0.00    +0.000 HD
BRANCH  10  17
ATOM     12  N   UNL     1      -4.888  13.615  24.365  0.00  0.00    +0.000 N 
ATOM     13  C   UNL     1      -5.383  13.178  23.136  0.00  0.00    +0.000 A 
ATOM     14  C   UNL     1      -6.672  12.677  23.053  0.00  0.00    +0.000 A 
ATOM     15  C   UNL     1      -7.141  12.264  21.819  0.00  0.00    +0.000 A 
ATOM     16  C   UNL     1      -6.309  12.372  20.712  0.00  0.00    +0.000 A 
ATOM     17  C   UNL     1      -5.028  12.892  20.856  0.00  0.00    +0.000 A 
ATOM     18  N   UNL     1      -4.571  13.301  22.065  0.00  0.00    +0.000 NA
ATOM     19  H   UNL     1      -5.000  12.912  25.086  0.00  0.00    +0.000 HD
ATOM     20  H   UNL     1      -3.915  13.876  24.229  0.00  0.00    +0.000 HD
ENDBRANCH  10  17
ENDBRANCH   1  10
BRANCH   4  21
ATOM     21  C   UNL     1       1.174  10.595  18.892  0.00  0.00    +0.000 C 
BRANCH  21  22
ATOM     22  C   UNL     1       1.675   9.199  18.793  0.00  0.00    +0.000 A 
ATOM     23  C   UNL     1       2.218   8.442  17.783  0.00  0.00    +0.000 A 
ATOM     24  C   UNL     1       2.570   7.211  18.397  0.00  0.00    +0.000 A 
ATOM     25  N   UNL     1       2.182   7.208  19.683  0.00  0.00    +0.000 NA
ATOM     26  O   UNL     1       1.639   8.454  19.929  0.00  0.00    +0.000 OA
BRANCH  24  27
ATOM     27  C   UNL     1       3.287   6.085  17.798  0.00  0.00    +0.000 A 
ATOM     28  C   UNL     1       2.741   4.793  17.857  0.00  0.00    +0.000 A 
ATOM     29  C   UNL     1       3.398   3.715  17.260  0.00  0.00    +0.000 A 
ATOM     30  C   UNL     1       4.609   3.915  16.602  0.00  0.00    +0.000 A 
ATOM     31  C   UNL     1       5.164   5.192  16.539  0.00  0.00    +0.000 A 
ATOM     32  C   UNL     1       4.505   6.274  17.130  0.00  0.00    +0.000 A 
ENDBRANCH  24  27
ENDBRANCH  21  22
ENDBRANCH   4  21
TORSDOF 5
ENDMDL
MODEL 8
REMARK VINA RESULT:      -8.2      6.376      9.136
REMARK  Name = 
REMARK  5 active torsions:
REMARK  status: ('A' for Active; 'I' for Inactive)
REMARK    1  A    between atoms: C_6  and  N_7
REMARK    2  A    between atoms: N_7  and  C_8
REMARK    3  A    between atoms: N_11  and  C_12
REMARK    4  A    between atoms: C_12  and  C_13
REMARK    5  A    between atoms: C_15  and  C_16
REMARK                            x       y       z     vdW  Elec       q    Type
REMARK                         _______ _______ _______ _____ _____    ______ ____
ROOT
ATOM      1  C   UNL     1       2.647   5.076  18.609  0.00  0.00    +0.000 A 
ATOM      2  N   UNL     1       2.457   6.380  18.908  0.00  0.00    +0.000 NA
ATOM      3  C   UNL     1       1.874   6.717  20.065  0.00  0.00    +0.000 A 
ATOM      4  N   UNL     1       1.679   8.066  20.262  0.00  0.00    +0.000 N 
ATOM      5  N   UNL     1       1.476   5.825  20.975  0.00  0.00    +0.000 NA
ATOM      6  C   UNL     1       1.655   4.527  20.664  0.00  0.00    +0.000 A 
ATOM      7  C   UNL     1       2.231   4.090  19.494  0.00  0.00    +0.000 A 
ATOM      8 BR   UNL     1       2.447   2.242  19.178  0.00  0.00    +0.000 Br
ATOM      9  H   UNL     1       2.237   8.565  19.576  0.00  0.00    +0.000 HD
ENDROOT
BRANCH   1  10
ATOM     10  N   UNL     1       3.325   4.720  17.431  0.00  0.00    +0.000 N 
ATOM     11  H   UNL     1       2.749   4.421  16.655  0.00  0.00    +0.000 HD
BRANCH  10  17
ATOM     12  N   UNL     1       6.462   3.714  14.131  0.00  0.00    +0.000 N 
ATOM     13  C   UNL     1       6.225   4.122  15.445  0.00  0.00    +0.000 A 
ATOM     14  C   UNL     1       7.293   4.404  16.280  0.00  0.00    +0.000 A 
ATOM     15  C   UNL     1       7.027   4.819  17.573  0.00  0.00    +0.000 A 
ATOM     16  C   UNL     1       5.705   4.943  17.981  0.00  0.00    +0.000 A 
ATOM     17  C   UNL     1       4.675   4.654  17.093  0.00  0.00    +0.000 A 
ATOM     18  N   UNL     1       4.937   4.252  15.826  0.00  0.00    +0.000 NA
ATOM     19  H   UNL     1       7.109   2.935  14.092  0.00  0.00    +0.000 HD
ATOM     20  H   UNL     1       5.564   3.491  13.711  0.00  0.00    +0.000 HD
ENDBRANCH  10  17
ENDBRANCH   1  10
BRANCH   4  21
ATOM     21  C   UNL     1       1.806   8.563  21.623  0.00  0.00    +0.000 C 
BRANCH  21  22
ATOM     22  C   UNL     1       0.770   9.548  22.031  0.00  0.00    +0.000 A 
ATOM     23  C   UNL     1      -0.062  10.405  21.351  0.00  0.00    +0.000 A 
ATOM     24  C   UNL     1      -0.877  10.997  22.352  0.00  0.00    +0.000 A 
ATOM     25  N   UNL     1      -0.493  10.576  23.569  0.00  0.00    +0.000 NA
ATOM     26  O   UNL     1       0.523   9.662  23.362  0.00  0.00    +0.000 OA
BRANCH  24  27
ATOM     27  C   UNL     1      -2.009  11.903  22.165  0.00  0.00    +0.000 A 
ATOM     28  C   UNL     1      -2.819  12.251  23.258  0.00  0.00    +0.000 A 
ATOM     29  C   UNL     1      -3.883  13.142  23.100  0.00  0.00    +0.000 A 
ATOM     30  C   UNL     1      -4.152  13.692  21.849  0.00  0.00    +0.000 A 
ATOM     31  C   UNL     1      -3.358  13.353  20.755  0.00  0.00    +0.000 A 
ATOM     32  C   UNL     1      -2.288  12.466  20.911  0.00  0.00    +0.000 A 
ENDBRANCH  24  27
ENDBRANCH  21  22
ENDBRANCH   4  21
TORSDOF 5
ENDMDL
MODEL 9
REMARK VINA RESULT:      -8.1      5.745      8.980
REMARK  Name = 
REMARK  5 active torsions:
REMARK  status: ('A' for Active; 'I' for Inactive)
REMARK    1  A    between atoms: C_6  and  N_7
REMARK    2  A    between atoms: N_7  and  C_8
REMARK    3  A    between atoms: N_11  and  C_12
REMARK    4  A    between atoms: C_12  and  C_13
REMARK    5  A    between atoms: C_15  and  C_16
REMARK                            x       y       z     vdW  Elec       q    Type
REMARK                         _______ _______ _______ _____ _____    ______ ____
ROOT
ATOM      1  C   UNL     1       2.809   5.050  18.977  0.00  0.00    +0.000 A 
ATOM      2  N   UNL     1       2.687   6.345  19.339  0.00  0.00    +0.000 NA
ATOM      3  C   UNL     1       1.787   6.693  20.267  0.00  0.00    +0.000 A 
ATOM      4  N   UNL     1       1.701   8.042  20.536  0.00  0.00    +0.000 N 
ATOM      5  N   UNL     1       0.997   5.817  20.890  0.00  0.00    +0.000 NA
ATOM      6  C   UNL     1       1.113   4.528  20.515  0.00  0.00    +0.000 A 
ATOM      7  C   UNL     1       1.999   4.084  19.561  0.00  0.00    +0.000 A 
ATOM      8 BR   UNL     1       2.086   2.249  19.132  0.00  0.00    +0.000 Br
ATOM      9  H   UNL     1       2.516   8.493  20.133  0.00  0.00    +0.000 HD
ENDROOT
BRANCH   1  10
ATOM     10  N   UNL     1       3.803   4.670  18.059  0.00  0.00    +0.000 N 
ATOM     11  H   UNL     1       3.527   4.001  17.352  0.00  0.00    +0.000 HD
BRANCH  10  17
ATOM     12  N   UNL     1       7.356   5.371  15.123  0.00  0.00    +0.000 N 
ATOM     13  C   UNL     1       6.915   5.319  16.446  0.00  0.00    +0.000 A 
ATOM     14  C   UNL     1       7.804   5.574  17.477  0.00  0.00    +0.000 A 
ATOM     15  C   UNL     1       7.335   5.530  18.778  0.00  0.00    +0.000 A 
ATOM     16  C   UNL     1       5.995   5.238  19.000  0.00  0.00    +0.000 A 
ATOM     17  C   UNL     1       5.149   5.000  17.923  0.00  0.00    +0.000 A 
ATOM     18  N   UNL     1       5.609   5.049  16.650  0.00  0.00    +0.000 NA
ATOM     19  H   UNL     1       8.180   4.797  14.980  0.00  0.00    +0.000 HD
ATOM     20  H   UNL     1       6.582   5.088  14.529  0.00  0.00    +0.000 HD
ENDBRANCH  10  17
ENDBRANCH   1  10
BRANCH   4  21
ATOM     21  C   UNL     1       1.411   8.427  21.909  0.00  0.00    +0.000 C 
BRANCH  21  22
ATOM     22  C   UNL     1       0.665   9.705  22.057  0.00  0.00    +0.000 A 
ATOM     23  C   UNL     1      -0.485  10.075  22.711  0.00  0.00    +0.000 A 
ATOM     24  C   UNL     1      -0.579  11.480  22.521  0.00  0.00    +0.000 A 
ATOM     25  N   UNL     1       0.418  11.905  21.727  0.00  0.00    +0.000 NA
ATOM     26  O   UNL     1       1.198  10.799  21.454  0.00  0.00    +0.000 OA
BRANCH  24  27
ATOM     27  C   UNL     1      -1.557  12.398  23.101  0.00  0.00    +0.000 A 
ATOM     28  C   UNL     1      -2.843  11.940  23.431  0.00  0.00    +0.000 A 
ATOM     29  C   UNL     1      -3.776  12.798  24.018  0.00  0.00    +0.000 A 
ATOM     30  C   UNL     1      -3.436  14.123  24.278  0.00  0.00    +0.000 A 
ATOM     31  C   UNL     1      -2.164  14.592  23.954  0.00  0.00    +0.000 A 
ATOM     32  C   UNL     1      -1.226  13.734  23.372  0.00  0.00    +0.000 A 
ENDBRANCH  24  27
ENDBRANCH  21  22
ENDBRANCH   4  21
TORSDOF 5
ENDMDL
