MODEL 1
REMARK VINA RESULT:      -7.0      0.000      0.000
REMARK  Name = 
REMARK  15 active torsions:
REMARK  status: ('A' for Active; 'I' for Inactive)
REMARK    1  A    between atoms: C_1  and  O_2
REMARK    2  A    between atoms: O_2  and  C_3
REMARK    3  A    between atoms: C_8  and  C_9
REMARK    4  A    between atoms: C_9  and  C_10
REMARK    5  A    between atoms: C_10  and  C_11
REMARK    6  A    between atoms: C_11  and  C_12
REMARK    7  A    between atoms: C_12  and  O_13
REMARK    8  A    between atoms: C_12  and  C_14
REMARK    9  A    between atoms: C_14  and  N_15
REMARK   10  A    between atoms: N_15  and  C_16
REMARK   11  A    between atoms: C_16  and  C_17
REMARK   12  A    between atoms: C_17  and  O_18
REMARK   13  A    between atoms: O_18  and  C_19
REMARK   14  A    between atoms: C_22  and  O_23
REMARK   15  A    between atoms: C_24  and  C_25
REMARK                            x       y       z     vdW  Elec       q    Type
REMARK                         _______ _______ _______ _____ _____    ______ ____
ROOT
ATOM      1  N   UNL     1       1.824   2.699  17.720  0.00  0.00    +0.000 NA
ATOM      2  H   UNL     1       1.251   3.526  17.889  0.00  0.00    +0.000 HD
ENDROOT
BRANCH   1   3
ATOM      3  C   UNL     1       1.712   1.786  18.863  0.00  0.00    +0.000 C 
BRANCH   3   4
ATOM      4  C   UNL     1       0.904   2.374  20.025  0.00  0.00    +0.000 C 
BRANCH   4   5
ATOM      5  O   UNL     1      -0.207   3.091  19.480  0.00  0.00    +0.000 OA
ATOM      6  H   UNL     1       0.112   3.969  19.204  0.00  0.00    +0.000 HD
ENDBRANCH   4   5
BRANCH   4   7
ATOM      7  C   UNL     1       1.763   3.309  20.888  0.00  0.00    +0.000 C 
BRANCH   7   8
ATOM      8  C   UNL     1       1.477   4.797  20.685  0.00  0.00    +0.000 C 
BRANCH   8   9
ATOM      9  C   UNL     1       2.698   5.712  20.529  0.00  0.00    +0.000 C 
BRANCH   9  15
ATOM     10  C   UNL     1       1.691   8.100  20.155  0.00  0.00    +0.000 A 
ATOM     11  C   UNL     1       1.480   9.151  19.241  0.00  0.00    +0.000 A 
ATOM     12  C   UNL     1       1.816   9.043  17.894  0.00  0.00    +0.000 A 
ATOM     13  C   UNL     1       2.393   7.874  17.431  0.00  0.00    +0.000 A 
ATOM     14  C   UNL     1       2.653   6.839  18.328  0.00  0.00    +0.000 A 
ATOM     15  C   UNL     1       2.309   6.923  19.703  0.00  0.00    +0.000 A 
BRANCH  10  17
ATOM     16  C   UNL     1       0.722   9.719  21.698  0.00  0.00    +0.000 C 
ATOM     17  O   UNL     1       1.133   8.413  21.359  0.00  0.00    +0.000 OA
ENDBRANCH  10  17
ENDBRANCH   9  15
ENDBRANCH   8   9
ENDBRANCH   7   8
ENDBRANCH   4   7
ENDBRANCH   3   4
ENDBRANCH   1   3
BRANCH   1  18
ATOM     18  C   UNL     1       3.213   3.116  17.498  0.00  0.00    +0.000 C 
BRANCH  18  19
ATOM     19  C   UNL     1       4.195   2.450  18.461  0.00  0.00    +0.000 C 
BRANCH  19  20
ATOM     20  O   UNL     1       4.892   3.451  19.199  0.00  0.00    +0.000 OA
BRANCH  20  21
ATOM     21  C   UNL     1       5.656   4.296  18.444  0.00  0.00    +0.000 A 
ATOM     22  C   UNL     1       6.254   5.331  19.156  0.00  0.00    +0.000 A 
ATOM     23  C   UNL     1       7.034   6.279  18.504  0.00  0.00    +0.000 A 
ATOM     24  C   UNL     1       7.231   6.190  17.116  0.00  0.00    +0.000 A 
ATOM     25  C   UNL     1       6.640   5.156  16.390  0.00  0.00    +0.000 A 
ATOM     26  C   UNL     1       5.857   4.213  17.065  0.00  0.00    +0.000 A 
BRANCH  25  27
ATOM     27  C   UNL     1       6.774   4.965  14.911  0.00  0.00    +0.000 C 
ATOM     28  N   UNL     1       5.919   4.080  14.316  0.00  0.00    +0.000 N 
ATOM     29  O   UNL     1       7.616   5.561  14.244  0.00  0.00    +0.000 OA
ATOM     30  H   UNL     1       5.239   3.562  14.860  0.00  0.00    +0.000 HD
ATOM     31  H   UNL     1       6.004   3.916  13.322  0.00  0.00    +0.000 HD
ENDBRANCH  25  27
BRANCH  24  32
ATOM     32  O   UNL     1       8.010   7.139  16.510  0.00  0.00    +0.000 OA
ATOM     33  H   UNL     1       8.755   6.698  16.057  0.00  0.00    +0.000 HD
ENDBRANCH  24  32
ENDBRANCH  20  21
ENDBRANCH  19  20
ENDBRANCH  18  19
ENDBRANCH   1  18
TORSDOF 14
ENDMDL
MODEL 2
REMARK VINA RESULT:      -6.9      2.289      6.274
REMARK  Name = 
REMARK  15 active torsions:
REMARK  status: ('A' for Active; 'I' for Inactive)
REMARK    1  A    between atoms: C_1  and  O_2
REMARK    2  A    between atoms: O_2  and  C_3
REMARK    3  A    between atoms: C_8  and  C_9
REMARK    4  A    between atoms: C_9  and  C_10
REMARK    5  A    between atoms: C_10  and  C_11
REMARK    6  A    between atoms: C_11  and  C_12
REMARK    7  A    between atoms: C_12  and  O_13
REMARK    8  A    between atoms: C_12  and  C_14
REMARK    9  A    between atoms: C_14  and  N_15
REMARK   10  A    between atoms: N_15  and  C_16
REMARK   11  A    between atoms: C_16  and  C_17
REMARK   12  A    between atoms: C_17  and  O_18
REMARK   13  A    between atoms: O_18  and  C_19
REMARK   14  A    between atoms: C_22  and  O_23
REMARK   15  A    between atoms: C_24  and  C_25
REMARK                            x       y       z     vdW  Elec       q    Type
REMARK                         _______ _______ _______ _____ _____    ______ ____
ROOT
ATOM      1  N   UNL     1       2.868   3.089  21.169  0.00  0.00    +0.000 NA
ATOM      2  H   UNL     1       3.278   3.890  21.651  0.00  0.00    +0.000 HD
ENDROOT
BRANCH   1   3
ATOM      3  C   UNL     1       3.509   2.928  19.859  0.00  0.00    +0.000 C 
BRANCH   3   4
ATOM      4  C   UNL     1       2.721   2.017  18.912  0.00  0.00    +0.000 C 
BRANCH   4   5
ATOM      5  O   UNL     1       3.509   0.852  18.651  0.00  0.00    +0.000 OA
ATOM      6  H   UNL     1       3.942   0.974  17.787  0.00  0.00    +0.000 HD
ENDBRANCH   4   5
BRANCH   4   7
ATOM      7  C   UNL     1       2.384   2.732  17.597  0.00  0.00    +0.000 C 
BRANCH   7   8
ATOM      8  C   UNL     1       3.338   3.870  17.234  0.00  0.00    +0.000 C 
BRANCH   8   9
ATOM      9  C   UNL     1       4.740   3.461  16.762  0.00  0.00    +0.000 C 
BRANCH   9  15
ATOM     10  C   UNL     1       6.284   5.515  16.262  0.00  0.00    +0.000 A 
ATOM     11  C   UNL     1       7.124   6.508  16.806  0.00  0.00    +0.000 A 
ATOM     12  C   UNL     1       7.458   6.541  18.157  0.00  0.00    +0.000 A 
ATOM     13  C   UNL     1       6.938   5.580  19.007  0.00  0.00    +0.000 A 
ATOM     14  C   UNL     1       6.069   4.617  18.499  0.00  0.00    +0.000 A 
ATOM     15  C   UNL     1       5.723   4.557  17.123  0.00  0.00    +0.000 A 
BRANCH  10  17
ATOM     16  C   UNL     1       7.117   4.907  14.054  0.00  0.00    +0.000 C 
ATOM     17  O   UNL     1       6.252   5.627  14.905  0.00  0.00    +0.000 OA
ENDBRANCH  10  17
ENDBRANCH   9  15
ENDBRANCH   8   9
ENDBRANCH   7   8
ENDBRANCH   4   7
ENDBRANCH   3   4
ENDBRANCH   1   3
BRANCH   1  18
ATOM     18  C   UNL     1       1.422   3.298  21.039  0.00  0.00    +0.000 C 
BRANCH  18  19
ATOM     19  C   UNL     1       1.069   4.668  20.458  0.00  0.00    +0.000 C 
BRANCH  19  20
ATOM     20  O   UNL     1       2.196   5.534  20.565  0.00  0.00    +0.000 OA
BRANCH  20  21
ATOM     21  C   UNL     1       2.069   6.729  19.913  0.00  0.00    +0.000 A 
ATOM     22  C   UNL     1       2.577   6.742  18.619  0.00  0.00    +0.000 A 
ATOM     23  C   UNL     1       2.538   7.904  17.856  0.00  0.00    +0.000 A 
ATOM     24  C   UNL     1       1.972   9.075  18.390  0.00  0.00    +0.000 A 
ATOM     25  C   UNL     1       1.455   9.074  19.685  0.00  0.00    +0.000 A 
ATOM     26  C   UNL     1       1.506   7.894  20.437  0.00  0.00    +0.000 A 
BRANCH  25  27
ATOM     27  C   UNL     1       0.837  10.259  20.359  0.00  0.00    +0.000 C 
ATOM     28  N   UNL     1      -0.006  11.034  19.612  0.00  0.00    +0.000 N 
ATOM     29  O   UNL     1       1.071  10.548  21.530  0.00  0.00    +0.000 OA
ATOM     30  H   UNL     1      -0.184  10.822  18.637  0.00  0.00    +0.000 HD
ATOM     31  H   UNL     1      -0.418  11.853  20.035  0.00  0.00    +0.000 HD
ENDBRANCH  25  27
BRANCH  24  32
ATOM     32  O   UNL     1       1.947  10.197  17.607  0.00  0.00    +0.000 OA
ATOM     33  H   UNL     1       2.741  10.207  17.038  0.00  0.00    +0.000 HD
ENDBRANCH  24  32
ENDBRANCH  20  21
ENDBRANCH  19  20
ENDBRANCH  18  19
ENDBRANCH   1  18
TORSDOF 14
ENDMDL
MODEL 3
REMARK VINA RESULT:      -6.9      1.897      5.446
REMARK  Name = 
REMARK  15 active torsions:
REMARK  status: ('A' for Active; 'I' for Inactive)
REMARK    1  A    between atoms: C_1  and  O_2
REMARK    2  A    between atoms: O_2  and  C_3
REMARK    3  A    between atoms: C_8  and  C_9
REMARK    4  A    between atoms: C_9  and  C_10
REMARK    5  A    between atoms: C_10  and  C_11
REMARK    6  A    between atoms: C_11  and  C_12
REMARK    7  A    between atoms: C_12  and  O_13
REMARK    8  A    between atoms: C_12  and  C_14
REMARK    9  A    between atoms: C_14  and  N_15
REMARK   10  A    between atoms: N_15  and  C_16
REMARK   11  A    between atoms: C_16  and  C_17
REMARK   12  A    between atoms: C_17  and  O_18
REMARK   13  A    between atoms: O_18  and  C_19
REMARK   14  A    between atoms: C_22  and  O_23
REMARK   15  A    between atoms: C_24  and  C_25
REMARK                            x       y       z     vdW  Elec       q    Type
REMARK                         _______ _______ _______ _____ _____    ______ ____
ROOT
ATOM      1  N   UNL     1       7.413   5.793  17.406  0.00  0.00    +0.000 NA
ATOM      2  H   UNL     1       8.336   6.020  17.036  0.00  0.00    +0.000 HD
ENDROOT
BRANCH   1   3
ATOM      3  C   UNL     1       6.450   6.814  16.976  0.00  0.00    +0.000 C 
BRANCH   3   4
ATOM      4  C   UNL     1       5.305   6.243  16.132  0.00  0.00    +0.000 C 
BRANCH   4   5
ATOM      5  O   UNL     1       5.127   7.085  14.990  0.00  0.00    +0.000 OA
ATOM      6  H   UNL     1       5.977   7.125  14.516  0.00  0.00    +0.000 HD
ENDBRANCH   4   5
BRANCH   4   7
ATOM      7  C   UNL     1       4.001   6.163  16.938  0.00  0.00    +0.000 C 
BRANCH   7   8
ATOM      8  C   UNL     1       3.794   7.316  17.920  0.00  0.00    +0.000 C 
BRANCH   8   9
ATOM      9  C   UNL     1       2.624   8.263  17.623  0.00  0.00    +0.000 C 
BRANCH   9  15
ATOM     10  C   UNL     1       0.972   9.573  19.175  0.00  0.00    +0.000 A 
ATOM     11  C   UNL     1       0.282   9.586  20.404  0.00  0.00    +0.000 A 
ATOM     12  C   UNL     1       0.479   8.610  21.378  0.00  0.00    +0.000 A 
ATOM     13  C   UNL     1       1.367   7.578  21.132  0.00  0.00    +0.000 A 
ATOM     14  C   UNL     1       2.026   7.521  19.906  0.00  0.00    +0.000 A 
ATOM     15  C   UNL     1       1.850   8.511  18.903  0.00  0.00    +0.000 A 
BRANCH  10  17
ATOM     16  C   UNL     1       0.098  11.846  19.069  0.00  0.00    +0.000 C 
ATOM     17  O   UNL     1       0.710  10.717  18.484  0.00  0.00    +0.000 OA
ENDBRANCH  10  17
ENDBRANCH   9  15
ENDBRANCH   8   9
ENDBRANCH   7   8
ENDBRANCH   4   7
ENDBRANCH   3   4
ENDBRANCH   1   3
BRANCH   1  18
ATOM     18  C   UNL     1       7.491   5.708  18.868  0.00  0.00    +0.000 C 
BRANCH  18  19
ATOM     19  C   UNL     1       6.258   5.054  19.492  0.00  0.00    +0.000 C 
BRANCH  19  20
ATOM     20  O   UNL     1       6.039   3.781  18.891  0.00  0.00    +0.000 OA
BRANCH  20  21
ATOM     21  C   UNL     1       4.737   3.366  18.875  0.00  0.00    +0.000 A 
ATOM     22  C   UNL     1       4.356   2.691  17.721  0.00  0.00    +0.000 A 
ATOM     23  C   UNL     1       3.049   2.241  17.564  0.00  0.00    +0.000 A 
ATOM     24  C   UNL     1       2.105   2.459  18.582  0.00  0.00    +0.000 A 
ATOM     25  C   UNL     1       2.475   3.132  19.746  0.00  0.00    +0.000 A 
ATOM     26  C   UNL     1       3.794   3.578  19.884  0.00  0.00    +0.000 A 
BRANCH  25  27
ATOM     27  C   UNL     1       1.556   3.427  20.891  0.00  0.00    +0.000 C 
ATOM     28  N   UNL     1       0.407   4.111  20.609  0.00  0.00    +0.000 N 
ATOM     29  O   UNL     1       1.811   3.088  22.044  0.00  0.00    +0.000 OA
ATOM     30  H   UNL     1       0.200   4.421  19.667  0.00  0.00    +0.000 HD
ATOM     31  H   UNL     1      -0.219   4.344  21.367  0.00  0.00    +0.000 HD
ENDBRANCH  25  27
BRANCH  24  32
ATOM     32  O   UNL     1       0.831   1.997  18.393  0.00  0.00    +0.000 OA
ATOM     33  H   UNL     1       0.788   1.059  18.665  0.00  0.00    +0.000 HD
ENDBRANCH  24  32
ENDBRANCH  20  21
ENDBRANCH  19  20
ENDBRANCH  18  19
ENDBRANCH   1  18
TORSDOF 14
ENDMDL
MODEL 4
REMARK VINA RESULT:      -6.9      4.762      6.920
REMARK  Name = 
REMARK  15 active torsions:
REMARK  status: ('A' for Active; 'I' for Inactive)
REMARK    1  A    between atoms: C_1  and  O_2
REMARK    2  A    between atoms: O_2  and  C_3
REMARK    3  A    between atoms: C_8  and  C_9
REMARK    4  A    between atoms: C_9  and  C_10
REMARK    5  A    between atoms: C_10  and  C_11
REMARK    6  A    between atoms: C_11  and  C_12
REMARK    7  A    between atoms: C_12  and  O_13
REMARK    8  A    between atoms: C_12  and  C_14
REMARK    9  A    between atoms: C_14  and  N_15
REMARK   10  A    between atoms: N_15  and  C_16
REMARK   11  A    between atoms: C_16  and  C_17
REMARK   12  A    between atoms: C_17  and  O_18
REMARK   13  A    between atoms: O_18  and  C_19
REMARK   14  A    between atoms: C_22  and  O_23
REMARK   15  A    between atoms: C_24  and  C_25
REMARK                            x       y       z     vdW  Elec       q    Type
REMARK                         _______ _______ _______ _____ _____    ______ ____
ROOT
ATOM      1  N   UNL     1       7.075   7.070  16.644  0.00  0.00    +0.000 NA
ATOM      2  H   UNL     1       6.075   7.272  16.638  0.00  0.00    +0.000 HD
ENDROOT
BRANCH   1   3
ATOM      3  C   UNL     1       7.285   5.638  16.403  0.00  0.00    +0.000 C 
BRANCH   3   4
ATOM      4  C   UNL     1       6.361   5.068  15.322  0.00  0.00    +0.000 C 
BRANCH   4   5
ATOM      5  O   UNL     1       5.435   6.089  14.939  0.00  0.00    +0.000 OA
ATOM      6  H   UNL     1       5.418   6.755  15.650  0.00  0.00    +0.000 HD
ENDBRANCH   4   5
BRANCH   4   7
ATOM      7  C   UNL     1       5.603   3.832  15.827  0.00  0.00    +0.000 C 
BRANCH   7   8
ATOM      8  C   UNL     1       4.319   4.147  16.594  0.00  0.00    +0.000 C 
BRANCH   8   9
ATOM      9  C   UNL     1       4.464   4.373  18.104  0.00  0.00    +0.000 C 
BRANCH   9  15
ATOM     10  C   UNL     1       2.405   4.712  19.686  0.00  0.00    +0.000 A 
ATOM     11  C   UNL     1       1.195   4.171  20.163  0.00  0.00    +0.000 A 
ATOM     12  C   UNL     1       0.766   2.891  19.821  0.00  0.00    +0.000 A 
ATOM     13  C   UNL     1       1.540   2.123  18.970  0.00  0.00    +0.000 A 
ATOM     14  C   UNL     1       2.718   2.656  18.449  0.00  0.00    +0.000 A 
ATOM     15  C   UNL     1       3.181   3.953  18.794  0.00  0.00    +0.000 A 
BRANCH  10  17
ATOM     16  C   UNL     1       2.053   7.115  19.890  0.00  0.00    +0.000 C 
ATOM     17  O   UNL     1       2.653   5.904  20.296  0.00  0.00    +0.000 OA
ENDBRANCH  10  17
ENDBRANCH   9  15
ENDBRANCH   8   9
ENDBRANCH   7   8
ENDBRANCH   4   7
ENDBRANCH   3   4
ENDBRANCH   1   3
BRANCH   1  18
ATOM     18  C   UNL     1       7.640   7.489  17.931  0.00  0.00    +0.000 C 
BRANCH  18  19
ATOM     19  C   UNL     1       8.090   8.950  17.934  0.00  0.00    +0.000 C 
BRANCH  19  20
ATOM     20  O   UNL     1       9.114   9.130  18.908  0.00  0.00    +0.000 OA
BRANCH  20  21
ATOM     21  C   UNL     1       9.478  10.429  19.130  0.00  0.00    +0.000 A 
ATOM     22  C   UNL     1       9.431  10.826  20.463  0.00  0.00    +0.000 A 
ATOM     23  C   UNL     1       9.749  12.131  20.823  0.00  0.00    +0.000 A 
ATOM     24  C   UNL     1      10.129  13.058  19.838  0.00  0.00    +0.000 A 
ATOM     25  C   UNL     1      10.183  12.672  18.499  0.00  0.00    +0.000 A 
ATOM     26  C   UNL     1       9.858  11.354  18.156  0.00  0.00    +0.000 A 
BRANCH  25  27
ATOM     27  C   UNL     1      10.566  13.572  17.365  0.00  0.00    +0.000 C 
ATOM     28  N   UNL     1       9.950  14.791  17.299  0.00  0.00    +0.000 N 
ATOM     29  O   UNL     1      11.390  13.245  16.513  0.00  0.00    +0.000 OA
ATOM     30  H   UNL     1       9.249  15.060  17.979  0.00  0.00    +0.000 HD
ATOM     31  H   UNL     1      10.174  15.407  16.530  0.00  0.00    +0.000 HD
ENDBRANCH  25  27
BRANCH  24  32
ATOM     32  O   UNL     1      10.439  14.331  20.232  0.00  0.00    +0.000 OA
ATOM     33  H   UNL     1      11.280  14.599  19.814  0.00  0.00    +0.000 HD
ENDBRANCH  24  32
ENDBRANCH  20  21
ENDBRANCH  19  20
ENDBRANCH  18  19
ENDBRANCH   1  18
TORSDOF 14
ENDMDL
MODEL 5
REMARK VINA RESULT:      -6.8      2.040      3.213
REMARK  Name = 
REMARK  15 active torsions:
REMARK  status: ('A' for Active; 'I' for Inactive)
REMARK    1  A    between atoms: C_1  and  O_2
REMARK    2  A    between atoms: O_2  and  C_3
REMARK    3  A    between atoms: C_8  and  C_9
REMARK    4  A    between atoms: C_9  and  C_10
REMARK    5  A    between atoms: C_10  and  C_11
REMARK    6  A    between atoms: C_11  and  C_12
REMARK    7  A    between atoms: C_12  and  O_13
REMARK    8  A    between atoms: C_12  and  C_14
REMARK    9  A    between atoms: C_14  and  N_15
REMARK   10  A    between atoms: N_15  and  C_16
REMARK   11  A    between atoms: C_16  and  C_17
REMARK   12  A    between atoms: C_17  and  O_18
REMARK   13  A    between atoms: O_18  and  C_19
REMARK   14  A    between atoms: C_22  and  O_23
REMARK   15  A    between atoms: C_24  and  C_25
REMARK                            x       y       z     vdW  Elec       q    Type
REMARK                         _______ _______ _______ _____ _____    ______ ____
ROOT
ATOM      1  N   UNL     1       1.964   3.012  21.078  0.00  0.00    +0.000 NA
ATOM      2  H   UNL     1       1.403   2.393  21.664  0.00  0.00    +0.000 HD
ENDROOT
BRANCH   1   3
ATOM      3  C   UNL     1       1.460   2.967  19.700  0.00  0.00    +0.000 C 
BRANCH   3   4
ATOM      4  C   UNL     1       1.149   4.354  19.129  0.00  0.00    +0.000 C 
BRANCH   4   5
ATOM      5  O   UNL     1       1.199   4.273  17.702  0.00  0.00    +0.000 OA
ATOM      6  H   UNL     1       0.296   4.414  17.364  0.00  0.00    +0.000 HD
ENDBRANCH   4   5
BRANCH   4   7
ATOM      7  C   UNL     1       2.147   5.405  19.634  0.00  0.00    +0.000 C 
BRANCH   7   8
ATOM      8  C   UNL     1       1.519   6.527  20.461  0.00  0.00    +0.000 C 
BRANCH   8   9
ATOM      9  C   UNL     1       1.916   7.959  20.082  0.00  0.00    +0.000 C 
BRANCH   9  15
ATOM     10  C   UNL     1       0.327  10.028  20.304  0.00  0.00    +0.000 A 
ATOM     11  C   UNL     1      -0.511  10.774  21.157  0.00  0.00    +0.000 A 
ATOM     12  C   UNL     1      -0.625  10.496  22.517  0.00  0.00    +0.000 A 
ATOM     13  C   UNL     1       0.091   9.441  23.054  0.00  0.00    +0.000 A 
ATOM     14  C   UNL     1       0.890   8.662  22.220  0.00  0.00    +0.000 A 
ATOM     15  C   UNL     1       1.031   8.934  20.833  0.00  0.00    +0.000 A 
BRANCH  10  17
ATOM     16  C   UNL     1       1.341  11.562  18.704  0.00  0.00    +0.000 C 
ATOM     17  O   UNL     1       0.369  10.608  19.072  0.00  0.00    +0.000 OA
ENDBRANCH  10  17
ENDBRANCH   9  15
ENDBRANCH   8   9
ENDBRANCH   7   8
ENDBRANCH   4   7
ENDBRANCH   3   4
ENDBRANCH   1   3
BRANCH   1  18
ATOM     18  C   UNL     1       3.369   2.597  21.152  0.00  0.00    +0.000 C 
BRANCH  18  19
ATOM     19  C   UNL     1       4.003   2.398  19.775  0.00  0.00    +0.000 C 
BRANCH  19  20
ATOM     20  O   UNL     1       5.273   3.042  19.738  0.00  0.00    +0.000 OA
BRANCH  20  21
ATOM     21  C   UNL     1       5.421   3.973  18.749  0.00  0.00    +0.000 A 
ATOM     22  C   UNL     1       4.587   3.792  17.651  0.00  0.00    +0.000 A 
ATOM     23  C   UNL     1       4.656   4.653  16.561  0.00  0.00    +0.000 A 
ATOM     24  C   UNL     1       5.567   5.723  16.569  0.00  0.00    +0.000 A 
ATOM     25  C   UNL     1       6.406   5.918  17.666  0.00  0.00    +0.000 A 
ATOM     26  C   UNL     1       6.323   5.039  18.752  0.00  0.00    +0.000 A 
BRANCH  25  27
ATOM     27  C   UNL     1       7.418   7.015  17.782  0.00  0.00    +0.000 C 
ATOM     28  N   UNL     1       8.255   6.982  18.863  0.00  0.00    +0.000 N 
ATOM     29  O   UNL     1       7.503   7.924  16.958  0.00  0.00    +0.000 OA
ATOM     30  H   UNL     1       8.175   6.255  19.563  0.00  0.00    +0.000 HD
ATOM     31  H   UNL     1       8.931   7.724  18.977  0.00  0.00    +0.000 HD
ENDBRANCH  25  27
BRANCH  24  32
ATOM     32  O   UNL     1       5.602   6.552  15.481  0.00  0.00    +0.000 OA
ATOM     33  H   UNL     1       6.001   7.404  15.742  0.00  0.00    +0.000 HD
ENDBRANCH  24  32
ENDBRANCH  20  21
ENDBRANCH  19  20
ENDBRANCH  18  19
ENDBRANCH   1  18
TORSDOF 14
ENDMDL
MODEL 6
REMARK VINA RESULT:      -6.8      1.350      1.628
REMARK  Name = 
REMARK  15 active torsions:
REMARK  status: ('A' for Active; 'I' for Inactive)
REMARK    1  A    between atoms: C_1  and  O_2
REMARK    2  A    between atoms: O_2  and  C_3
REMARK    3  A    between atoms: C_8  and  C_9
REMARK    4  A    between atoms: C_9  and  C_10
REMARK    5  A    between atoms: C_10  and  C_11
REMARK    6  A    between atoms: C_11  and  C_12
REMARK    7  A    between atoms: C_12  and  O_13
REMARK    8  A    between atoms: C_12  and  C_14
REMARK    9  A    between atoms: C_14  and  N_15
REMARK   10  A    between atoms: N_15  and  C_16
REMARK   11  A    between atoms: C_16  and  C_17
REMARK   12  A    between atoms: C_17  and  O_18
REMARK   13  A    between atoms: O_18  and  C_19
REMARK   14  A    between atoms: C_22  and  O_23
REMARK   15  A    between atoms: C_24  and  C_25
REMARK                            x       y       z     vdW  Elec       q    Type
REMARK                         _______ _______ _______ _____ _____    ______ ____
ROOT
ATOM      1  N   UNL     1       0.574   3.177  19.212  0.00  0.00    +0.000 NA
ATOM      2  H   UNL     1       0.616   4.171  18.983  0.00  0.00    +0.000 HD
ENDROOT
BRANCH   1   3
ATOM      3  C   UNL     1       0.981   2.980  20.607  0.00  0.00    +0.000 C 
BRANCH   3   4
ATOM      4  C   UNL     1       2.478   3.216  20.835  0.00  0.00    +0.000 C 
BRANCH   4   5
ATOM      5  O   UNL     1       2.865   2.524  22.025  0.00  0.00    +0.000 OA
ATOM      6  H   UNL     1       3.805   2.722  22.192  0.00  0.00    +0.000 HD
ENDBRANCH   4   5
BRANCH   4   7
ATOM      7  C   UNL     1       2.796   4.713  20.968  0.00  0.00    +0.000 C 
BRANCH   7   8
ATOM      8  C   UNL     1       1.623   5.638  20.647  0.00  0.00    +0.000 C 
BRANCH   8   9
ATOM      9  C   UNL     1       1.723   7.076  21.174  0.00  0.00    +0.000 C 
BRANCH   9  15
ATOM     10  C   UNL     1       1.282   9.363  19.979  0.00  0.00    +0.000 A 
ATOM     11  C   UNL     1       1.453  10.122  18.804  0.00  0.00    +0.000 A 
ATOM     12  C   UNL     1       2.010   9.585  17.646  0.00  0.00    +0.000 A 
ATOM     13  C   UNL     1       2.428   8.266  17.645  0.00  0.00    +0.000 A 
ATOM     14  C   UNL     1       2.311   7.511  18.811  0.00  0.00    +0.000 A 
ATOM     15  C   UNL     1       1.736   8.034  19.999  0.00  0.00    +0.000 A 
BRANCH  10  17
ATOM     16  C   UNL     1      -0.742   9.760  21.278  0.00  0.00    +0.000 C 
ATOM     17  O   UNL     1       0.578  10.082  20.898  0.00  0.00    +0.000 OA
ENDBRANCH  10  17
ENDBRANCH   9  15
ENDBRANCH   8   9
ENDBRANCH   7   8
ENDBRANCH   4   7
ENDBRANCH   3   4
ENDBRANCH   1   3
BRANCH   1  18
ATOM     18  C   UNL     1       1.440   2.437  18.287  0.00  0.00    +0.000 C 
BRANCH  18  19
ATOM     19  C   UNL     1       2.369   3.349  17.485  0.00  0.00    +0.000 C 
BRANCH  19  20
ATOM     20  O   UNL     1       3.708   2.872  17.586  0.00  0.00    +0.000 OA
BRANCH  20  21
ATOM     21  C   UNL     1       4.670   3.769  17.215  0.00  0.00    +0.000 A 
ATOM     22  C   UNL     1       4.970   4.730  18.174  0.00  0.00    +0.000 A 
ATOM     23  C   UNL     1       5.911   5.720  17.912  0.00  0.00    +0.000 A 
ATOM     24  C   UNL     1       6.574   5.748  16.673  0.00  0.00    +0.000 A 
ATOM     25  C   UNL     1       6.284   4.788  15.704  0.00  0.00    +0.000 A 
ATOM     26  C   UNL     1       5.333   3.801  15.986  0.00  0.00    +0.000 A 
BRANCH  25  27
ATOM     27  C   UNL     1       6.920   4.722  14.350  0.00  0.00    +0.000 C 
ATOM     28  N   UNL     1       6.496   3.732  13.508  0.00  0.00    +0.000 N 
ATOM     29  O   UNL     1       7.795   5.509  13.994  0.00  0.00    +0.000 OA
ATOM     30  H   UNL     1       5.796   3.061  13.800  0.00  0.00    +0.000 HD
ATOM     31  H   UNL     1       6.926   3.652  12.597  0.00  0.00    +0.000 HD
ENDBRANCH  25  27
BRANCH  24  32
ATOM     32  O   UNL     1       7.497   6.734  16.454  0.00  0.00    +0.000 OA
ATOM     33  H   UNL     1       7.961   6.928  17.292  0.00  0.00    +0.000 HD
ENDBRANCH  24  32
ENDBRANCH  20  21
ENDBRANCH  19  20
ENDBRANCH  18  19
ENDBRANCH   1  18
TORSDOF 14
ENDMDL
MODEL 7
REMARK VINA RESULT:      -6.7      1.636      2.633
REMARK  Name = 
REMARK  15 active torsions:
REMARK  status: ('A' for Active; 'I' for Inactive)
REMARK    1  A    between atoms: C_1  and  O_2
REMARK    2  A    between atoms: O_2  and  C_3
REMARK    3  A    between atoms: C_8  and  C_9
REMARK    4  A    between atoms: C_9  and  C_10
REMARK    5  A    between atoms: C_10  and  C_11
REMARK    6  A    between atoms: C_11  and  C_12
REMARK    7  A    between atoms: C_12  and  O_13
REMARK    8  A    between atoms: C_12  and  C_14
REMARK    9  A    between atoms: C_14  and  N_15
REMARK   10  A    between atoms: N_15  and  C_16
REMARK   11  A    between atoms: C_16  and  C_17
REMARK   12  A    between atoms: C_17  and  O_18
REMARK   13  A    between atoms: O_18  and  C_19
REMARK   14  A    between atoms: C_22  and  O_23
REMARK   15  A    between atoms: C_24  and  C_25
REMARK                            x       y       z     vdW  Elec       q    Type
REMARK                         _______ _______ _______ _____ _____    ______ ____
ROOT
ATOM      1  N   UNL     1       1.595   2.102  19.591  0.00  0.00    +0.000 NA
ATOM      2  H   UNL     1       1.074   1.842  18.753  0.00  0.00    +0.000 HD
ENDROOT
BRANCH   1   3
ATOM      3  C   UNL     1       1.056   3.356  20.130  0.00  0.00    +0.000 C 
BRANCH   3   4
ATOM      4  C   UNL     1       2.094   4.168  20.912  0.00  0.00    +0.000 C 
BRANCH   4   5
ATOM      5  O   UNL     1       2.270   3.557  22.193  0.00  0.00    +0.000 OA
ATOM      6  H   UNL     1       2.901   4.101  22.697  0.00  0.00    +0.000 HD
ENDBRANCH   4   5
BRANCH   4   7
ATOM      7  C   UNL     1       1.651   5.629  21.080  0.00  0.00    +0.000 C 
BRANCH   7   8
ATOM      8  C   UNL     1       1.626   6.434  19.781  0.00  0.00    +0.000 C 
BRANCH   8   9
ATOM      9  C   UNL     1       2.182   7.862  19.852  0.00  0.00    +0.000 C 
BRANCH   9  15
ATOM     10  C   UNL     1       0.173   9.522  20.099  0.00  0.00    +0.000 A 
ATOM     11  C   UNL     1      -0.678  10.206  20.990  0.00  0.00    +0.000 A 
ATOM     12  C   UNL     1      -0.493  10.169  22.370  0.00  0.00    +0.000 A 
ATOM     13  C   UNL     1       0.548   9.424  22.894  0.00  0.00    +0.000 A 
ATOM     14  C   UNL     1       1.373   8.703  22.033  0.00  0.00    +0.000 A 
ATOM     15  C   UNL     1       1.211   8.735  20.623  0.00  0.00    +0.000 A 
BRANCH  10  17
ATOM     16  C   UNL     1      -0.611  11.131  18.444  0.00  0.00    +0.000 C 
ATOM     17  O   UNL     1      -0.138   9.855  18.814  0.00  0.00    +0.000 OA
ENDBRANCH  10  17
ENDBRANCH   9  15
ENDBRANCH   8   9
ENDBRANCH   7   8
ENDBRANCH   4   7
ENDBRANCH   3   4
ENDBRANCH   1   3
BRANCH   1  18
ATOM     18  C   UNL     1       3.016   2.229  19.250  0.00  0.00    +0.000 C 
BRANCH  18  19
ATOM     19  C   UNL     1       3.259   2.337  17.744  0.00  0.00    +0.000 C 
BRANCH  19  20
ATOM     20  O   UNL     1       3.065   3.686  17.327  0.00  0.00    +0.000 OA
BRANCH  20  21
ATOM     21  C   UNL     1       4.211   4.371  17.037  0.00  0.00    +0.000 A 
ATOM     22  C   UNL     1       4.582   5.314  17.990  0.00  0.00    +0.000 A 
ATOM     23  C   UNL     1       5.713   6.101  17.803  0.00  0.00    +0.000 A 
ATOM     24  C   UNL     1       6.497   5.938  16.648  0.00  0.00    +0.000 A 
ATOM     25  C   UNL     1       6.138   4.994  15.686  0.00  0.00    +0.000 A 
ATOM     26  C   UNL     1       4.995   4.213  15.892  0.00  0.00    +0.000 A 
BRANCH  25  27
ATOM     27  C   UNL     1       6.891   4.739  14.417  0.00  0.00    +0.000 C 
ATOM     28  N   UNL     1       6.516   3.653  13.676  0.00  0.00    +0.000 N 
ATOM     29  O   UNL     1       7.817   5.456  14.045  0.00  0.00    +0.000 OA
ATOM     30  H   UNL     1       5.774   3.038  13.988  0.00  0.00    +0.000 HD
ATOM     31  H   UNL     1       7.024   3.445  12.828  0.00  0.00    +0.000 HD
ENDBRANCH  25  27
BRANCH  24  32
ATOM     32  O   UNL     1       7.606   6.727  16.502  0.00  0.00    +0.000 OA
ATOM     33  H   UNL     1       8.394   6.225  16.784  0.00  0.00    +0.000 HD
ENDBRANCH  24  32
ENDBRANCH  20  21
ENDBRANCH  19  20
ENDBRANCH  18  19
ENDBRANCH   1  18
TORSDOF 14
ENDMDL
MODEL 8
REMARK VINA RESULT:      -6.7      2.220      6.088
REMARK  Name = 
REMARK  15 active torsions:
REMARK  status: ('A' for Active; 'I' for Inactive)
REMARK    1  A    between atoms: C_1  and  O_2
REMARK    2  A    between atoms: O_2  and  C_3
REMARK    3  A    between atoms: C_8  and  C_9
REMARK    4  A    between atoms: C_9  and  C_10
REMARK    5  A    between atoms: C_10  and  C_11
REMARK    6  A    between atoms: C_11  and  C_12
REMARK    7  A    between atoms: C_12  and  O_13
REMARK    8  A    between atoms: C_12  and  C_14
REMARK    9  A    between atoms: C_14  and  N_15
REMARK   10  A    between atoms: N_15  and  C_16
REMARK   11  A    between atoms: C_16  and  C_17
REMARK   12  A    between atoms: C_17  and  O_18
REMARK   13  A    between atoms: O_18  and  C_19
REMARK   14  A    between atoms: C_22  and  O_23
REMARK   15  A    between atoms: C_24  and  C_25
REMARK                            x       y       z     vdW  Elec       q    Type
REMARK                         _______ _______ _______ _____ _____    ______ ____
ROOT
ATOM      1  N   UNL     1       0.555   3.544  20.106  0.00  0.00    +0.000 NA
ATOM      2  H   UNL     1      -0.298   3.638  20.658  0.00  0.00    +0.000 HD
ENDROOT
BRANCH   1   3
ATOM      3  C   UNL     1       0.577   2.226  19.463  0.00  0.00    +0.000 C 
BRANCH   3   4
ATOM      4  C   UNL     1       1.454   2.185  18.207  0.00  0.00    +0.000 C 
BRANCH   4   5
ATOM      5  O   UNL     1       2.604   1.381  18.489  0.00  0.00    +0.000 OA
ATOM      6  H   UNL     1       2.308   0.613  19.010  0.00  0.00    +0.000 HD
ENDBRANCH   4   5
BRANCH   4   7
ATOM      7  C   UNL     1       1.888   3.594  17.779  0.00  0.00    +0.000 C 
BRANCH   7   8
ATOM      8  C   UNL     1       3.180   3.637  16.965  0.00  0.00    +0.000 C 
BRANCH   8   9
ATOM      9  C   UNL     1       4.472   3.289  17.715  0.00  0.00    +0.000 C 
BRANCH   9  15
ATOM     10  C   UNL     1       5.817   5.060  16.334  0.00  0.00    +0.000 A 
ATOM     11  C   UNL     1       6.715   6.146  16.382  0.00  0.00    +0.000 A 
ATOM     12  C   UNL     1       7.309   6.568  17.568  0.00  0.00    +0.000 A 
ATOM     13  C   UNL     1       7.000   5.916  18.749  0.00  0.00    +0.000 A 
ATOM     14  C   UNL     1       6.080   4.870  18.732  0.00  0.00    +0.000 A 
ATOM     15  C   UNL     1       5.471   4.415  17.532  0.00  0.00    +0.000 A 
BRANCH  10  17
ATOM     16  C   UNL     1       6.366   4.020  14.200  0.00  0.00    +0.000 C 
ATOM     17  O   UNL     1       5.513   4.767  15.039  0.00  0.00    +0.000 OA
ENDBRANCH  10  17
ENDBRANCH   9  15
ENDBRANCH   8   9
ENDBRANCH   7   8
ENDBRANCH   4   7
ENDBRANCH   3   4
ENDBRANCH   1   3
BRANCH   1  18
ATOM     18  C   UNL     1       1.715   3.735  20.984  0.00  0.00    +0.000 C 
BRANCH  18  19
ATOM     19  C   UNL     1       2.084   5.207  21.170  0.00  0.00    +0.000 C 
BRANCH  19  20
ATOM     20  O   UNL     1       2.918   5.629  20.095  0.00  0.00    +0.000 OA
BRANCH  20  21
ATOM     21  C   UNL     1       2.555   6.810  19.512  0.00  0.00    +0.000 A 
ATOM     22  C   UNL     1       3.080   7.017  18.241  0.00  0.00    +0.000 A 
ATOM     23  C   UNL     1       2.812   8.193  17.548  0.00  0.00    +0.000 A 
ATOM     24  C   UNL     1       1.997   9.179  18.129  0.00  0.00    +0.000 A 
ATOM     25  C   UNL     1       1.462   8.983  19.402  0.00  0.00    +0.000 A 
ATOM     26  C   UNL     1       1.744   7.794  20.083  0.00  0.00    +0.000 A 
BRANCH  25  27
ATOM     27  C   UNL     1       0.589   9.964  20.122  0.00  0.00    +0.000 C 
ATOM     28  N   UNL     1      -0.223   9.473  21.106  0.00  0.00    +0.000 N 
ATOM     29  O   UNL     1       0.580  11.162  19.848  0.00  0.00    +0.000 OA
ATOM     30  H   UNL     1      -0.245   8.483  21.320  0.00  0.00    +0.000 HD
ATOM     31  H   UNL     1      -0.839  10.110  21.590  0.00  0.00    +0.000 HD
ENDBRANCH  25  27
BRANCH  24  32
ATOM     32  O   UNL     1       1.753  10.320  17.414  0.00  0.00    +0.000 OA
ATOM     33  H   UNL     1       0.818  10.578  17.536  0.00  0.00    +0.000 HD
ENDBRANCH  24  32
ENDBRANCH  20  21
ENDBRANCH  19  20
ENDBRANCH  18  19
ENDBRANCH   1  18
TORSDOF 14
ENDMDL
MODEL 9
REMARK VINA RESULT:      -6.7      2.322      3.457
REMARK  Name = 
REMARK  15 active torsions:
REMARK  status: ('A' for Active; 'I' for Inactive)
REMARK    1  A    between atoms: C_1  and  O_2
REMARK    2  A    between atoms: O_2  and  C_3
REMARK    3  A    between atoms: C_8  and  C_9
REMARK    4  A    between atoms: C_9  and  C_10
REMARK    5  A    between atoms: C_10  and  C_11
REMARK    6  A    between atoms: C_11  and  C_12
REMARK    7  A    between atoms: C_12  and  O_13
REMARK    8  A    between atoms: C_12  and  C_14
REMARK    9  A    between atoms: C_14  and  N_15
REMARK   10  A    between atoms: N_15  and  C_16
REMARK   11  A    between atoms: C_16  and  C_17
REMARK   12  A    between atoms: C_17  and  O_18
REMARK   13  A    between atoms: O_18  and  C_19
REMARK   14  A    between atoms: C_22  and  O_23
REMARK   15  A    between atoms: C_24  and  C_25
REMARK                            x       y       z     vdW  Elec       q    Type
REMARK                         _______ _______ _______ _____ _____    ______ ____
ROOT
ATOM      1  N   UNL     1       1.059   3.415  19.560  0.00  0.00    +0.000 NA
ATOM      2  H   UNL     1       0.897   3.959  18.712  0.00  0.00    +0.000 HD
ENDROOT
BRANCH   1   3
ATOM      3  C   UNL     1       1.341   4.323  20.677  0.00  0.00    +0.000 C 
BRANCH   3   4
ATOM      4  C   UNL     1       1.833   5.701  20.221  0.00  0.00    +0.000 C 
BRANCH   4   5
ATOM      5  O   UNL     1       3.242   5.774  20.455  0.00  0.00    +0.000 OA
ATOM      6  H   UNL     1       3.505   4.970  20.937  0.00  0.00    +0.000 HD
ENDBRANCH   4   5
BRANCH   4   7
ATOM      7  C   UNL     1       1.114   6.830  20.974  0.00  0.00    +0.000 C 
BRANCH   7   8
ATOM      8  C   UNL     1       1.529   8.238  20.546  0.00  0.00    +0.000 C 
BRANCH   8   9
ATOM      9  C   UNL     1       1.000   9.395  21.402  0.00  0.00    +0.000 C 
BRANCH   9  15
ATOM     10  C   UNL     1       0.796  11.805  20.400  0.00  0.00    +0.000 A 
ATOM     11  C   UNL     1       0.178  12.621  19.431  0.00  0.00    +0.000 A 
ATOM     12  C   UNL     1      -0.834  12.151  18.598  0.00  0.00    +0.000 A 
ATOM     13  C   UNL     1      -1.242  10.833  18.706  0.00  0.00    +0.000 A 
ATOM     14  C   UNL     1      -0.613   9.996  19.626  0.00  0.00    +0.000 A 
ATOM     15  C   UNL     1       0.413  10.457  20.493  0.00  0.00    +0.000 A 
BRANCH  10  17
ATOM     16  C   UNL     1       2.517  13.514  20.639  0.00  0.00    +0.000 C 
ATOM     17  O   UNL     1       1.631  12.554  21.173  0.00  0.00    +0.000 OA
ENDBRANCH  10  17
ENDBRANCH   9  15
ENDBRANCH   8   9
ENDBRANCH   7   8
ENDBRANCH   4   7
ENDBRANCH   3   4
ENDBRANCH   1   3
BRANCH   1  18
ATOM     18  C   UNL     1       2.170   2.486  19.326  0.00  0.00    +0.000 C 
BRANCH  18  19
ATOM     19  C   UNL     1       3.124   2.965  18.231  0.00  0.00    +0.000 C 
BRANCH  19  20
ATOM     20  O   UNL     1       4.284   3.539  18.828  0.00  0.00    +0.000 OA
BRANCH  20  21
ATOM     21  C   UNL     1       5.136   4.156  17.956  0.00  0.00    +0.000 A 
ATOM     22  C   UNL     1       5.143   3.621  16.672  0.00  0.00    +0.000 A 
ATOM     23  C   UNL     1       5.988   4.138  15.696  0.00  0.00    +0.000 A 
ATOM     24  C   UNL     1       6.835   5.216  16.001  0.00  0.00    +0.000 A 
ATOM     25  C   UNL     1       6.835   5.764  17.283  0.00  0.00    +0.000 A 
ATOM     26  C   UNL     1       5.980   5.229  18.252  0.00  0.00    +0.000 A 
BRANCH  25  27
ATOM     27  C   UNL     1       7.698   6.906  17.724  0.00  0.00    +0.000 C 
ATOM     28  N   UNL     1       8.272   6.815  18.961  0.00  0.00    +0.000 N 
ATOM     29  O   UNL     1       7.887   7.898  17.023  0.00  0.00    +0.000 OA
ATOM     30  H   UNL     1       8.100   6.015  19.559  0.00  0.00    +0.000 HD
ATOM     31  H   UNL     1       8.839   7.583  19.292  0.00  0.00    +0.000 HD
ENDBRANCH  25  27
BRANCH  24  32
ATOM     32  O   UNL     1       7.648   5.701  15.012  0.00  0.00    +0.000 OA
ATOM     33  H   UNL     1       7.877   4.973  14.402  0.00  0.00    +0.000 HD
ENDBRANCH  24  32
ENDBRANCH  20  21
ENDBRANCH  19  20
ENDBRANCH  18  19
ENDBRANCH   1  18
TORSDOF 14
ENDMDL
