MODEL 1
REMARK VINA RESULT:      -7.1      0.000      0.000
REMARK  Name = 
REMARK  6 active torsions:
REMARK  status: ('A' for Active; 'I' for Inactive)
REMARK    1  A    between atoms: C_1  and  C_2
REMARK    2  A    between atoms: C_2  and  C_3
REMARK    3  A    between atoms: C_3  and  N_13
REMARK    4  A    between atoms: C_4  and  C_5
REMARK    5  A    between atoms: C_5  and  C_7
REMARK    6  A    between atoms: N_13  and  C_14
REMARK                            x       y       z     vdW  Elec       q    Type
REMARK                         _______ _______ _______ _____ _____    ______ ____
ROOT
ATOM      1  C   UNL     1       2.893   5.535  19.684  0.00  0.00    +0.000 C 
ATOM      2  C   UNL     1       4.229   5.557  19.504  0.00  0.00    +0.000 C 
ENDROOT
BRANCH   1   4
ATOM      3  C   UNL     1       1.604   4.378  17.760  0.00  0.00    +0.000 C 
ATOM      4  C   UNL     1       1.957   4.408  19.250  0.00  0.00    +0.000 C 
ENDBRANCH   1   4
BRANCH   2   5
ATOM      5  C   UNL     1       5.129   4.578  18.810  0.00  0.00    +0.000 C 
ATOM      6  O   UNL     1       5.475   3.529  19.312  0.00  0.00    +0.000 OA
BRANCH   5   7
ATOM      7  C   UNL     1       5.627   4.974  17.459  0.00  0.00    +0.000 A 
ATOM      8  C   UNL     1       6.815   4.420  16.962  0.00  0.00    +0.000 A 
ATOM      9  C   UNL     1       7.179   4.716  15.658  0.00  0.00    +0.000 A 
ATOM     10  N   UNL     1       6.447   5.514  14.843  0.00  0.00    +0.000 NA
ATOM     11  C   UNL     1       5.314   6.039  15.347  0.00  0.00    +0.000 A 
ATOM     12  C   UNL     1       4.873   5.810  16.636  0.00  0.00    +0.000 A 
ENDBRANCH   5   7
ENDBRANCH   2   5
BRANCH   1  13
ATOM     13  N   UNL     1       2.283   6.535  20.442  0.00  0.00    +0.000 N 
ATOM     14  H   UNL     1       1.905   6.222  21.332  0.00  0.00    +0.000 HD
BRANCH  13  15
ATOM     15  C   UNL     1       1.787   7.782  20.004  0.00  0.00    +0.000 A 
ATOM     16  C   UNL     1       1.964   8.266  18.701  0.00  0.00    +0.000 A 
ATOM     17  C   UNL     1       1.569   9.563  18.348  0.00  0.00    +0.000 A 
ATOM     18  C   UNL     1       0.975  10.386  19.298  0.00  0.00    +0.000 A 
ATOM     19 BR   UNL     1       0.487  12.153  18.840  0.00  0.00    +0.000 Br
ATOM     20  C   UNL     1       0.755   9.918  20.590  0.00  0.00    +0.000 A 
ATOM     21  C   UNL     1       1.166   8.626  20.938  0.00  0.00    +0.000 A 
ENDBRANCH  13  15
ENDBRANCH   1  13
TORSDOF 5
ENDMDL
MODEL 2
REMARK VINA RESULT:      -7.0      1.438      1.764
REMARK  Name = 
REMARK  6 active torsions:
REMARK  status: ('A' for Active; 'I' for Inactive)
REMARK    1  A    between atoms: C_1  and  C_2
REMARK    2  A    between atoms: C_2  and  C_3
REMARK    3  A    between atoms: C_3  and  N_13
REMARK    4  A    between atoms: C_4  and  C_5
REMARK    5  A    between atoms: C_5  and  C_7
REMARK    6  A    between atoms: N_13  and  C_14
REMARK                            x       y       z     vdW  Elec       q    Type
REMARK                         _______ _______ _______ _____ _____    ______ ____
ROOT
ATOM      1  C   UNL     1       2.766   5.835  19.666  0.00  0.00    +0.000 C 
ATOM      2  C   UNL     1       3.298   5.815  18.428  0.00  0.00    +0.000 C 
ENDROOT
BRANCH   1   4
ATOM      3  C   UNL     1       1.000   4.077  20.364  0.00  0.00    +0.000 C 
ATOM      4  C   UNL     1       2.430   4.606  20.509  0.00  0.00    +0.000 C 
ENDBRANCH   1   4
BRANCH   2   5
ATOM      5  C   UNL     1       3.634   4.656  17.537  0.00  0.00    +0.000 C 
ATOM      6  O   UNL     1       2.813   3.834  17.185  0.00  0.00    +0.000 OA
BRANCH   5   7
ATOM      7  C   UNL     1       5.063   4.527  17.123  0.00  0.00    +0.000 A 
ATOM      8  C   UNL     1       5.389   4.400  15.766  0.00  0.00    +0.000 A 
ATOM      9  C   UNL     1       6.729   4.407  15.412  0.00  0.00    +0.000 A 
ATOM     10  N   UNL     1       7.737   4.528  16.311  0.00  0.00    +0.000 NA
ATOM     11  C   UNL     1       7.396   4.641  17.609  0.00  0.00    +0.000 A 
ATOM     12  C   UNL     1       6.091   4.635  18.060  0.00  0.00    +0.000 A 
ENDBRANCH   5   7
ENDBRANCH   2   5
BRANCH   1  13
ATOM     13  N   UNL     1       2.617   7.052  20.333  0.00  0.00    +0.000 N 
ATOM     14  H   UNL     1       3.068   7.096  21.243  0.00  0.00    +0.000 HD
BRANCH  13  15
ATOM     15  C   UNL     1       1.645   8.053  20.115  0.00  0.00    +0.000 A 
ATOM     16  C   UNL     1       1.584   8.825  18.947  0.00  0.00    +0.000 A 
ATOM     17  C   UNL     1       0.686   9.893  18.829  0.00  0.00    +0.000 A 
ATOM     18  C   UNL     1      -0.175  10.190  19.879  0.00  0.00    +0.000 A 
ATOM     19 BR   UNL     1      -1.354  11.661  19.743  0.00  0.00    +0.000 Br
ATOM     20  C   UNL     1      -0.161   9.417  21.036  0.00  0.00    +0.000 A 
ATOM     21  C   UNL     1       0.750   8.360  21.151  0.00  0.00    +0.000 A 
ENDBRANCH  13  15
ENDBRANCH   1  13
TORSDOF 5
ENDMDL
MODEL 3
REMARK VINA RESULT:      -7.0      0.799      1.465
REMARK  Name = 
REMARK  6 active torsions:
REMARK  status: ('A' for Active; 'I' for Inactive)
REMARK    1  A    between atoms: C_1  and  C_2
REMARK    2  A    between atoms: C_2  and  C_3
REMARK    3  A    between atoms: C_3  and  N_13
REMARK    4  A    between atoms: C_4  and  C_5
REMARK    5  A    between atoms: C_5  and  C_7
REMARK    6  A    between atoms: N_13  and  C_14
REMARK                            x       y       z     vdW  Elec       q    Type
REMARK                         _______ _______ _______ _____ _____    ______ ____
ROOT
ATOM      1  C   UNL     1       2.796   5.364  19.833  0.00  0.00    +0.000 C 
ATOM      2  C   UNL     1       4.139   5.280  19.740  0.00  0.00    +0.000 C 
ENDROOT
BRANCH   1   4
ATOM      3  C   UNL     1       1.662   4.449  17.694  0.00  0.00    +0.000 C 
ATOM      4  C   UNL     1       1.800   4.383  19.218  0.00  0.00    +0.000 C 
ENDBRANCH   1   4
BRANCH   2   5
ATOM      5  C   UNL     1       4.998   4.301  18.998  0.00  0.00    +0.000 C 
ATOM      6  O   UNL     1       5.114   3.139  19.330  0.00  0.00    +0.000 OA
BRANCH   5   7
ATOM      7  C   UNL     1       5.758   4.835  17.828  0.00  0.00    +0.000 A 
ATOM      8  C   UNL     1       6.504   6.014  17.957  0.00  0.00    +0.000 A 
ATOM      9  C   UNL     1       7.293   6.408  16.889  0.00  0.00    +0.000 A 
ATOM     10  N   UNL     1       7.377   5.714  15.727  0.00  0.00    +0.000 NA
ATOM     11  C   UNL     1       6.644   4.589  15.627  0.00  0.00    +0.000 A 
ATOM     12  C   UNL     1       5.822   4.119  16.633  0.00  0.00    +0.000 A 
ENDBRANCH   5   7
ENDBRANCH   2   5
BRANCH   1  13
ATOM     13  N   UNL     1       2.221   6.331  20.659  0.00  0.00    +0.000 N 
ATOM     14  H   UNL     1       1.848   5.974  21.534  0.00  0.00    +0.000 HD
BRANCH  13  15
ATOM     15  C   UNL     1       1.750   7.614  20.305  0.00  0.00    +0.000 A 
ATOM     16  C   UNL     1       0.961   8.406  21.150  0.00  0.00    +0.000 A 
ATOM     17  C   UNL     1       0.410   9.614  20.707  0.00  0.00    +0.000 A 
ATOM     18  C   UNL     1       0.657  10.052  19.411  0.00  0.00    +0.000 A 
ATOM     19 BR   UNL     1      -0.127  11.658  18.794  0.00  0.00    +0.000 Br
ATOM     20  C   UNL     1       1.466   9.304  18.562  0.00  0.00    +0.000 A 
ATOM     21  C   UNL     1       2.002   8.090  19.008  0.00  0.00    +0.000 A 
ENDBRANCH  13  15
ENDBRANCH   1  13
TORSDOF 5
ENDMDL
MODEL 4
REMARK VINA RESULT:      -6.9      0.447      1.270
REMARK  Name = 
REMARK  6 active torsions:
REMARK  status: ('A' for Active; 'I' for Inactive)
REMARK    1  A    between atoms: C_1  and  C_2
REMARK    2  A    between atoms: C_2  and  C_3
REMARK    3  A    between atoms: C_3  and  N_13
REMARK    4  A    between atoms: C_4  and  C_5
REMARK    5  A    between atoms: C_5  and  C_7
REMARK    6  A    between atoms: N_13  and  C_14
REMARK                            x       y       z     vdW  Elec       q    Type
REMARK                         _______ _______ _______ _____ _____    ______ ____
ROOT
ATOM      1  C   UNL     1       2.747   5.566  19.805  0.00  0.00    +0.000 C 
ATOM      2  C   UNL     1       4.082   5.531  19.621  0.00  0.00    +0.000 C 
ENDROOT
BRANCH   1   4
ATOM      3  C   UNL     1       1.161   3.606  20.390  0.00  0.00    +0.000 C 
ATOM      4  C   UNL     1       1.754   4.516  19.311  0.00  0.00    +0.000 C 
ENDBRANCH   1   4
BRANCH   2   5
ATOM      5  C   UNL     1       4.929   4.551  18.867  0.00  0.00    +0.000 C 
ATOM      6  O   UNL     1       5.204   3.449  19.294  0.00  0.00    +0.000 OA
BRANCH   5   7
ATOM      7  C   UNL     1       5.470   5.011  17.552  0.00  0.00    +0.000 A 
ATOM      8  C   UNL     1       6.662   4.467  17.057  0.00  0.00    +0.000 A 
ATOM      9  C   UNL     1       7.065   4.827  15.781  0.00  0.00    +0.000 A 
ATOM     10  N   UNL     1       6.366   5.679  14.991  0.00  0.00    +0.000 NA
ATOM     11  C   UNL     1       5.228   6.193  15.494  0.00  0.00    +0.000 A 
ATOM     12  C   UNL     1       4.749   5.901  16.756  0.00  0.00    +0.000 A 
ENDBRANCH   5   7
ENDBRANCH   2   5
BRANCH   1  13
ATOM     13  N   UNL     1       2.189   6.549  20.624  0.00  0.00    +0.000 N 
ATOM     14  H   UNL     1       1.812   6.206  21.503  0.00  0.00    +0.000 HD
BRANCH  13  15
ATOM     15  C   UNL     1       1.738   7.836  20.259  0.00  0.00    +0.000 A 
ATOM     16  C   UNL     1       1.051   8.688  21.134  0.00  0.00    +0.000 A 
ATOM     17  C   UNL     1       0.509   9.901  20.690  0.00  0.00    +0.000 A 
ATOM     18  C   UNL     1       0.663  10.281  19.362  0.00  0.00    +0.000 A 
ATOM     19 BR   UNL     1      -0.110  11.893  18.748  0.00  0.00    +0.000 Br
ATOM     20  C   UNL     1       1.371   9.471  18.480  0.00  0.00    +0.000 A 
ATOM     21  C   UNL     1       1.898   8.254  18.928  0.00  0.00    +0.000 A 
ENDBRANCH  13  15
ENDBRANCH   1  13
TORSDOF 5
ENDMDL
MODEL 5
REMARK VINA RESULT:      -6.9      0.803      1.091
REMARK  Name = 
REMARK  6 active torsions:
REMARK  status: ('A' for Active; 'I' for Inactive)
REMARK    1  A    between atoms: C_1  and  C_2
REMARK    2  A    between atoms: C_2  and  C_3
REMARK    3  A    between atoms: C_3  and  N_13
REMARK    4  A    between atoms: C_4  and  C_5
REMARK    5  A    between atoms: C_5  and  C_7
REMARK    6  A    between atoms: N_13  and  C_14
REMARK                            x       y       z     vdW  Elec       q    Type
REMARK                         _______ _______ _______ _____ _____    ______ ____
ROOT
ATOM      1  C   UNL     1       2.771   5.565  19.716  0.00  0.00    +0.000 C 
ATOM      2  C   UNL     1       4.112   5.455  19.635  0.00  0.00    +0.000 C 
ENDROOT
BRANCH   1   4
ATOM      3  C   UNL     1       0.908   3.836  20.207  0.00  0.00    +0.000 C 
ATOM      4  C   UNL     1       1.761   4.561  19.162  0.00  0.00    +0.000 C 
ENDBRANCH   1   4
BRANCH   2   5
ATOM      5  C   UNL     1       4.958   4.417  18.962  0.00  0.00    +0.000 C 
ATOM      6  O   UNL     1       5.057   3.278  19.371  0.00  0.00    +0.000 OA
BRANCH   5   7
ATOM      7  C   UNL     1       5.728   4.861  17.761  0.00  0.00    +0.000 A 
ATOM      8  C   UNL     1       6.524   6.012  17.825  0.00  0.00    +0.000 A 
ATOM      9  C   UNL     1       7.317   6.321  16.732  0.00  0.00    +0.000 A 
ATOM     10  N   UNL     1       7.360   5.568  15.606  0.00  0.00    +0.000 NA
ATOM     11  C   UNL     1       6.580   4.471  15.566  0.00  0.00    +0.000 A 
ATOM     12  C   UNL     1       5.750   4.086  16.601  0.00  0.00    +0.000 A 
ENDBRANCH   5   7
ENDBRANCH   2   5
BRANCH   1  13
ATOM     13  N   UNL     1       2.208   6.593  20.475  0.00  0.00    +0.000 N 
ATOM     14  H   UNL     1       1.861   6.306  21.386  0.00  0.00    +0.000 HD
BRANCH  13  15
ATOM     15  C   UNL     1       1.715   7.838  20.029  0.00  0.00    +0.000 A 
ATOM     16  C   UNL     1       1.948   8.342  18.742  0.00  0.00    +0.000 A 
ATOM     17  C   UNL     1       1.551   9.637  18.387  0.00  0.00    +0.000 A 
ATOM     18  C   UNL     1       0.899  10.439  19.317  0.00  0.00    +0.000 A 
ATOM     19 BR   UNL     1       0.407  12.205  18.857  0.00  0.00    +0.000 Br
ATOM     20  C   UNL     1       0.624   9.951  20.590  0.00  0.00    +0.000 A 
ATOM     21  C   UNL     1       1.037   8.661  20.942  0.00  0.00    +0.000 A 
ENDBRANCH  13  15
ENDBRANCH   1  13
TORSDOF 5
ENDMDL
MODEL 6
REMARK VINA RESULT:      -6.9      0.579      1.627
REMARK  Name = 
REMARK  6 active torsions:
REMARK  status: ('A' for Active; 'I' for Inactive)
REMARK    1  A    between atoms: C_1  and  C_2
REMARK    2  A    between atoms: C_2  and  C_3
REMARK    3  A    between atoms: C_3  and  N_13
REMARK    4  A    between atoms: C_4  and  C_5
REMARK    5  A    between atoms: C_5  and  C_7
REMARK    6  A    between atoms: N_13  and  C_14
REMARK                            x       y       z     vdW  Elec       q    Type
REMARK                         _______ _______ _______ _____ _____    ______ ____
ROOT
ATOM      1  C   UNL     1       2.757   5.481  19.747  0.00  0.00    +0.000 C 
ATOM      2  C   UNL     1       4.094   5.459  19.573  0.00  0.00    +0.000 C 
ENDROOT
BRANCH   1   4
ATOM      3  C   UNL     1       0.877   3.779  20.266  0.00  0.00    +0.000 C 
ATOM      4  C   UNL     1       1.775   4.439  19.215  0.00  0.00    +0.000 C 
ENDBRANCH   1   4
BRANCH   2   5
ATOM      5  C   UNL     1       4.954   4.505  18.800  0.00  0.00    +0.000 C 
ATOM      6  O   UNL     1       5.443   3.509  19.291  0.00  0.00    +0.000 OA
BRANCH   5   7
ATOM      7  C   UNL     1       5.226   4.859  17.374  0.00  0.00    +0.000 A 
ATOM      8  C   UNL     1       4.899   6.135  16.896  0.00  0.00    +0.000 A 
ATOM      9  C   UNL     1       5.280   6.467  15.605  0.00  0.00    +0.000 A 
ATOM     10  N   UNL     1       5.948   5.620  14.784  0.00  0.00    +0.000 NA
ATOM     11  C   UNL     1       6.244   4.398  15.266  0.00  0.00    +0.000 A 
ATOM     12  C   UNL     1       5.900   3.972  16.534  0.00  0.00    +0.000 A 
ENDBRANCH   5   7
ENDBRANCH   2   5
BRANCH   1  13
ATOM     13  N   UNL     1       2.187   6.438  20.588  0.00  0.00    +0.000 N 
ATOM     14  H   UNL     1       1.779   6.064  21.441  0.00  0.00    +0.000 HD
BRANCH  13  15
ATOM     15  C   UNL     1       1.762   7.744  20.261  0.00  0.00    +0.000 A 
ATOM     16  C   UNL     1       1.079   8.578  21.157  0.00  0.00    +0.000 A 
ATOM     17  C   UNL     1       0.563   9.814  20.748  0.00  0.00    +0.000 A 
ATOM     18  C   UNL     1       0.741  10.237  19.435  0.00  0.00    +0.000 A 
ATOM     19 BR   UNL     1       0.004  11.881  18.868  0.00  0.00    +0.000 Br
ATOM     20  C   UNL     1       1.446   9.445  18.535  0.00  0.00    +0.000 A 
ATOM     21  C   UNL     1       1.946   8.204  18.948  0.00  0.00    +0.000 A 
ENDBRANCH  13  15
ENDBRANCH   1  13
TORSDOF 5
ENDMDL
MODEL 7
REMARK VINA RESULT:      -6.9      0.769      1.121
REMARK  Name = 
REMARK  6 active torsions:
REMARK  status: ('A' for Active; 'I' for Inactive)
REMARK    1  A    between atoms: C_1  and  C_2
REMARK    2  A    between atoms: C_2  and  C_3
REMARK    3  A    between atoms: C_3  and  N_13
REMARK    4  A    between atoms: C_4  and  C_5
REMARK    5  A    between atoms: C_5  and  C_7
REMARK    6  A    between atoms: N_13  and  C_14
REMARK                            x       y       z     vdW  Elec       q    Type
REMARK                         _______ _______ _______ _____ _____    ______ ____
ROOT
ATOM      1  C   UNL     1       2.937   5.525  19.722  0.00  0.00    +0.000 C 
ATOM      2  C   UNL     1       4.260   5.306  19.581  0.00  0.00    +0.000 C 
ENDROOT
BRANCH   1   4
ATOM      3  C   UNL     1       0.978   3.958  20.361  0.00  0.00    +0.000 C 
ATOM      4  C   UNL     1       1.826   4.587  19.251  0.00  0.00    +0.000 C 
ENDBRANCH   1   4
BRANCH   2   5
ATOM      5  C   UNL     1       4.988   4.183  18.905  0.00  0.00    +0.000 C 
ATOM      6  O   UNL     1       5.119   3.085  19.405  0.00  0.00    +0.000 OA
BRANCH   5   7
ATOM      7  C   UNL     1       5.597   4.489  17.576  0.00  0.00    +0.000 A 
ATOM      8  C   UNL     1       4.956   4.075  16.400  0.00  0.00    +0.000 A 
ATOM      9  C   UNL     1       5.486   4.484  15.187  0.00  0.00    +0.000 A 
ATOM     10  N   UNL     1       6.592   5.261  15.081  0.00  0.00    +0.000 NA
ATOM     11  C   UNL     1       7.193   5.639  16.225  0.00  0.00    +0.000 A 
ATOM     12  C   UNL     1       6.745   5.275  17.480  0.00  0.00    +0.000 A 
ENDBRANCH   5   7
ENDBRANCH   2   5
BRANCH   1  13
ATOM     13  N   UNL     1       2.494   6.616  20.471  0.00  0.00    +0.000 N 
ATOM     14  H   UNL     1       2.384   6.432  21.464  0.00  0.00    +0.000 HD
BRANCH  13  15
ATOM     15  C   UNL     1       1.831   7.776  20.015  0.00  0.00    +0.000 A 
ATOM     16  C   UNL     1       2.000   8.304  18.728  0.00  0.00    +0.000 A 
ATOM     17  C   UNL     1       1.424   9.528  18.363  0.00  0.00    +0.000 A 
ATOM     18  C   UNL     1       0.656  10.230  19.284  0.00  0.00    +0.000 A 
ATOM     19 BR   UNL     1      -0.081  11.905  18.812  0.00  0.00    +0.000 Br
ATOM     20  C   UNL     1       0.442   9.712  20.557  0.00  0.00    +0.000 A 
ATOM     21  C   UNL     1       1.034   8.495  20.918  0.00  0.00    +0.000 A 
ENDBRANCH  13  15
ENDBRANCH   1  13
TORSDOF 5
ENDMDL
MODEL 8
REMARK VINA RESULT:      -6.9      1.414      2.086
REMARK  Name = 
REMARK  6 active torsions:
REMARK  status: ('A' for Active; 'I' for Inactive)
REMARK    1  A    between atoms: C_1  and  C_2
REMARK    2  A    between atoms: C_2  and  C_3
REMARK    3  A    between atoms: C_3  and  N_13
REMARK    4  A    between atoms: C_4  and  C_5
REMARK    5  A    between atoms: C_5  and  C_7
REMARK    6  A    between atoms: N_13  and  C_14
REMARK                            x       y       z     vdW  Elec       q    Type
REMARK                         _______ _______ _______ _____ _____    ______ ____
ROOT
ATOM      1  C   UNL     1       2.444   5.918  19.647  0.00  0.00    +0.000 C 
ATOM      2  C   UNL     1       3.317   5.792  18.628  0.00  0.00    +0.000 C 
ENDROOT
BRANCH   1   4
ATOM      3  C   UNL     1       2.301   3.903  21.265  0.00  0.00    +0.000 C 
ATOM      4  C   UNL     1       1.597   4.792  20.236  0.00  0.00    +0.000 C 
ENDBRANCH   1   4
BRANCH   2   5
ATOM      5  C   UNL     1       3.648   4.602  17.779  0.00  0.00    +0.000 C 
ATOM      6  O   UNL     1       2.832   3.752  17.485  0.00  0.00    +0.000 OA
BRANCH   5   7
ATOM      7  C   UNL     1       5.067   4.477  17.330  0.00  0.00    +0.000 A 
ATOM      8  C   UNL     1       5.356   4.249  15.978  0.00  0.00    +0.000 A 
ATOM      9  C   UNL     1       6.684   4.263  15.582  0.00  0.00    +0.000 A 
ATOM     10  N   UNL     1       7.714   4.483  16.435  0.00  0.00    +0.000 NA
ATOM     11  C   UNL     1       7.410   4.691  17.730  0.00  0.00    +0.000 A 
ATOM     12  C   UNL     1       6.119   4.688  18.222  0.00  0.00    +0.000 A 
ENDBRANCH   5   7
ENDBRANCH   2   5
BRANCH   1  13
ATOM     13  N   UNL     1       2.368   7.125  20.345  0.00  0.00    +0.000 N 
ATOM     14  H   UNL     1       2.698   7.081  21.305  0.00  0.00    +0.000 HD
BRANCH  13  15
ATOM     15  C   UNL     1       1.572   8.253  20.052  0.00  0.00    +0.000 A 
ATOM     16  C   UNL     1       0.644   8.795  20.952  0.00  0.00    +0.000 A 
ATOM     17  C   UNL     1      -0.215   9.834  20.571  0.00  0.00    +0.000 A 
ATOM     18  C   UNL     1      -0.143  10.353  19.284  0.00  0.00    +0.000 A 
ATOM     19 BR   UNL     1      -1.334  11.720  18.752  0.00  0.00    +0.000 Br
ATOM     20  C   UNL     1       0.793   9.858  18.382  0.00  0.00    +0.000 A 
ATOM     21  C   UNL     1       1.638   8.810  18.765  0.00  0.00    +0.000 A 
ENDBRANCH  13  15
ENDBRANCH   1  13
TORSDOF 5
ENDMDL
MODEL 9
REMARK VINA RESULT:      -6.8      1.285      1.519
REMARK  Name = 
REMARK  6 active torsions:
REMARK  status: ('A' for Active; 'I' for Inactive)
REMARK    1  A    between atoms: C_1  and  C_2
REMARK    2  A    between atoms: C_2  and  C_3
REMARK    3  A    between atoms: C_3  and  N_13
REMARK    4  A    between atoms: C_4  and  C_5
REMARK    5  A    between atoms: C_5  and  C_7
REMARK    6  A    between atoms: N_13  and  C_14
REMARK                            x       y       z     vdW  Elec       q    Type
REMARK                         _______ _______ _______ _____ _____    ______ ____
ROOT
ATOM      1  C   UNL     1       2.711   5.646  19.774  0.00  0.00    +0.000 C 
ATOM      2  C   UNL     1       3.261   5.717  18.545  0.00  0.00    +0.000 C 
ENDROOT
BRANCH   1   4
ATOM      3  C   UNL     1       1.052   3.778  20.451  0.00  0.00    +0.000 C 
ATOM      4  C   UNL     1       2.463   4.362  20.564  0.00  0.00    +0.000 C 
ENDBRANCH   1   4
BRANCH   2   5
ATOM      5  C   UNL     1       3.703   4.625  17.619  0.00  0.00    +0.000 C 
ATOM      6  O   UNL     1       2.974   3.721  17.267  0.00  0.00    +0.000 OA
BRANCH   5   7
ATOM      7  C   UNL     1       5.126   4.671  17.166  0.00  0.00    +0.000 A 
ATOM      8  C   UNL     1       6.160   4.726  18.110  0.00  0.00    +0.000 A 
ATOM      9  C   UNL     1       7.466   4.642  17.655  0.00  0.00    +0.000 A 
ATOM     10  N   UNL     1       7.793   4.513  16.346  0.00  0.00    +0.000 NA
ATOM     11  C   UNL     1       6.781   4.469  15.459  0.00  0.00    +0.000 A 
ATOM     12  C   UNL     1       5.449   4.554  15.814  0.00  0.00    +0.000 A 
ENDBRANCH   5   7
ENDBRANCH   2   5
BRANCH   1  13
ATOM     13  N   UNL     1       2.452   6.820  20.483  0.00  0.00    +0.000 N 
ATOM     14  H   UNL     1       2.549   6.737  21.492  0.00  0.00    +0.000 HD
BRANCH  13  15
ATOM     15  C   UNL     1       1.728   7.955  20.058  0.00  0.00    +0.000 A 
ATOM     16  C   UNL     1       1.814   8.483  18.763  0.00  0.00    +0.000 A 
ATOM     17  C   UNL     1       1.179   9.684  18.425  0.00  0.00    +0.000 A 
ATOM     18  C   UNL     1       0.434  10.364  19.381  0.00  0.00    +0.000 A 
ATOM     19 BR   UNL     1      -0.383  12.011  18.942  0.00  0.00    +0.000 Br
ATOM     20  C   UNL     1       0.302   9.845  20.665  0.00  0.00    +0.000 A 
ATOM     21  C   UNL     1       0.952   8.650  20.999  0.00  0.00    +0.000 A 
ENDBRANCH  13  15
ENDBRANCH   1  13
TORSDOF 5
ENDMDL
