MODEL 1
REMARK VINA RESULT:      -8.7      0.000      0.000
REMARK  Name = 
REMARK  6 active torsions:
REMARK  status: ('A' for Active; 'I' for Inactive)
REMARK    1  A    between atoms: C_1  and  N_2
REMARK    2  A    between atoms: C_6  and  C_7
REMARK    3  A    between atoms: C_7  and  O_8
REMARK    4  A    between atoms: C_7  and  C_9
REMARK    5  A    between atoms: C_7  and  C_27
REMARK    6  A    between atoms: C_16  and  C_17
REMARK                            x       y       z     vdW  Elec       q    Type
REMARK                         _______ _______ _______ _____ _____    ______ ____
ROOT
ATOM      1  C   UNL     1       3.519   5.002  19.048  0.00  0.00    +0.000 A 
ATOM      2  C   UNL     1       3.070   4.610  20.312  0.00  0.00    +0.000 A 
ATOM      3  C   UNL     1       2.289   5.469  21.092  0.00  0.00    +0.000 A 
ATOM      4  C   UNL     1       1.893   6.719  20.644  0.00  0.00    +0.000 A 
ATOM      5  N   UNL     1       1.078   7.426  21.422  0.00  0.00    +0.000 NA
ATOM      6  C   UNL     1       0.606   8.609  20.969  0.00  0.00    +0.000 A 
ATOM      7 CL   UNL     1      -0.578   9.198  22.087  0.00  0.00    +0.000 Cl
ATOM      8  C   UNL     1       0.951   9.230  19.761  0.00  0.00    +0.000 A 
ATOM      9  C   UNL     1       1.904   8.493  19.017  0.00  0.00    +0.000 A 
ATOM     10 CL   UNL     1       2.614   9.174  17.567  0.00  0.00    +0.000 Cl
ATOM     11  C   UNL     1       2.340   7.187  19.403  0.00  0.00    +0.000 A 
ATOM     12  C   UNL     1       3.175   6.313  18.639  0.00  0.00    +0.000 A 
ENDROOT
BRANCH   8  13
ATOM     13  C   UNL     1       0.313  10.503  19.292  0.00  0.00    +0.000 A 
ATOM     14  C   UNL     1      -0.915  10.523  18.599  0.00  0.00    +0.000 A 
ATOM     15  C   UNL     1      -1.451  11.704  18.069  0.00  0.00    +0.000 A 
ATOM     16  C   UNL     1      -0.819  12.920  18.290  0.00  0.00    +0.000 A 
ATOM     17  C   UNL     1       0.366  12.949  19.014  0.00  0.00    +0.000 A 
ATOM     18  C   UNL     1       0.938  11.755  19.474  0.00  0.00    +0.000 A 
ENDBRANCH   8  13
BRANCH   1  19
ATOM     19  C   UNL     1       4.398   4.076  18.156  0.00  0.00    +0.000 C 
BRANCH  19  25
ATOM     20  C   UNL     1       7.034   5.585  19.341  0.00  0.00    +0.000 C 
ATOM     21  N   UNL     1       6.548   5.549  17.977  0.00  0.00    +0.000 N 
ATOM     22  C   UNL     1       7.157   6.253  16.972  0.00  0.00    +0.000 A 
ATOM     23  N   UNL     1       6.579   6.051  15.816  0.00  0.00    +0.000 NA
ATOM     24  C   UNL     1       5.545   5.203  16.085  0.00  0.00    +0.000 A 
ATOM     25  C   UNL     1       5.461   4.885  17.433  0.00  0.00    +0.000 A 
ENDBRANCH  19  25
BRANCH  19  26
ATOM     26  C   UNL     1       3.468   3.239  17.270  0.00  0.00    +0.000 C 
ATOM     27  C   UNL     1       2.590   2.101  17.737  0.00  0.00    +0.000 C 
ATOM     28  C   UNL     1       1.960   3.414  17.366  0.00  0.00    +0.000 C 
ENDBRANCH  19  26
BRANCH  19  29
ATOM     29  O   UNL     1       5.109   3.174  19.008  0.00  0.00    +0.000 OA
ATOM     30  H   UNL     1       4.968   2.288  18.639  0.00  0.00    +0.000 HD
ENDBRANCH  19  29
ENDBRANCH   1  19
TORSDOF 5
ENDMDL
MODEL 2
REMARK VINA RESULT:      -8.2      0.536      1.446
REMARK  Name = 
REMARK  6 active torsions:
REMARK  status: ('A' for Active; 'I' for Inactive)
REMARK    1  A    between atoms: C_1  and  N_2
REMARK    2  A    between atoms: C_6  and  C_7
REMARK    3  A    between atoms: C_7  and  O_8
REMARK    4  A    between atoms: C_7  and  C_9
REMARK    5  A    between atoms: C_7  and  C_27
REMARK    6  A    between atoms: C_16  and  C_17
REMARK                            x       y       z     vdW  Elec       q    Type
REMARK                         _______ _______ _______ _____ _____    ______ ____
ROOT
ATOM      1  C   UNL     1       3.577   4.828  19.189  0.00  0.00    +0.000 A 
ATOM      2  C   UNL     1       3.067   4.466  20.439  0.00  0.00    +0.000 A 
ATOM      3  C   UNL     1       2.258   5.347  21.164  0.00  0.00    +0.000 A 
ATOM      4  C   UNL     1       1.896   6.591  20.674  0.00  0.00    +0.000 A 
ATOM      5  N   UNL     1       1.052   7.321  21.398  0.00  0.00    +0.000 NA
ATOM      6  C   UNL     1       0.612   8.499  20.901  0.00  0.00    +0.000 A 
ATOM      7 CL   UNL     1      -0.616   9.120  21.950  0.00  0.00    +0.000 Cl
ATOM      8  C   UNL     1       1.018   9.091  19.697  0.00  0.00    +0.000 A 
ATOM      9  C   UNL     1       1.997   8.331  19.013  0.00  0.00    +0.000 A 
ATOM     10 CL   UNL     1       2.780   8.976  17.583  0.00  0.00    +0.000 Cl
ATOM     11  C   UNL     1       2.403   7.029  19.445  0.00  0.00    +0.000 A 
ATOM     12  C   UNL     1       3.264   6.134  18.738  0.00  0.00    +0.000 A 
ENDROOT
BRANCH   8  13
ATOM     13  C   UNL     1       0.414  10.360  19.174  0.00  0.00    +0.000 A 
ATOM     14  C   UNL     1       1.037  11.615  19.332  0.00  0.00    +0.000 A 
ATOM     15  C   UNL     1       0.416  12.808  18.938  0.00  0.00    +0.000 A 
ATOM     16  C   UNL     1      -0.813  12.778  18.292  0.00  0.00    +0.000 A 
ATOM     17  C   UNL     1      -1.434  11.556  18.070  0.00  0.00    +0.000 A 
ATOM     18  C   UNL     1      -0.844  10.372  18.537  0.00  0.00    +0.000 A 
ENDBRANCH   8  13
BRANCH   1  19
ATOM     19  C   UNL     1       4.487   3.877  18.358  0.00  0.00    +0.000 C 
BRANCH  19  25
ATOM     20  C   UNL     1       5.165   4.474  15.225  0.00  0.00    +0.000 C 
ATOM     21  N   UNL     1       5.923   4.844  16.402  0.00  0.00    +0.000 N 
ATOM     22  C   UNL     1       7.134   5.480  16.315  0.00  0.00    +0.000 A 
ATOM     23  N   UNL     1       7.628   5.753  17.494  0.00  0.00    +0.000 NA
ATOM     24  C   UNL     1       6.716   5.258  18.379  0.00  0.00    +0.000 A 
ATOM     25  C   UNL     1       5.644   4.646  17.745  0.00  0.00    +0.000 A 
ENDBRANCH  19  25
BRANCH  19  26
ATOM     26  C   UNL     1       3.601   3.098  17.378  0.00  0.00    +0.000 C 
ATOM     27  C   UNL     1       2.597   2.030  17.751  0.00  0.00    +0.000 C 
ATOM     28  C   UNL     1       2.107   3.381  17.310  0.00  0.00    +0.000 C 
ENDBRANCH  19  26
BRANCH  19  29
ATOM     29  O   UNL     1       5.079   2.928  19.249  0.00  0.00    +0.000 OA
ATOM     30  H   UNL     1       5.642   3.440  19.850  0.00  0.00    +0.000 HD
ENDBRANCH  19  29
ENDBRANCH   1  19
TORSDOF 5
ENDMDL
MODEL 3
REMARK VINA RESULT:      -8.1      2.461      3.504
REMARK  Name = 
REMARK  6 active torsions:
REMARK  status: ('A' for Active; 'I' for Inactive)
REMARK    1  A    between atoms: C_1  and  N_2
REMARK    2  A    between atoms: C_6  and  C_7
REMARK    3  A    between atoms: C_7  and  O_8
REMARK    4  A    between atoms: C_7  and  C_9
REMARK    5  A    between atoms: C_7  and  C_27
REMARK    6  A    between atoms: C_16  and  C_17
REMARK                            x       y       z     vdW  Elec       q    Type
REMARK                         _______ _______ _______ _____ _____    ______ ____
ROOT
ATOM      1  C   UNL     1       2.435   6.744  19.246  0.00  0.00    +0.000 A 
ATOM      2  C   UNL     1       2.679   7.341  18.006  0.00  0.00    +0.000 A 
ATOM      3  C   UNL     1       2.210   8.630  17.729  0.00  0.00    +0.000 A 
ATOM      4  C   UNL     1       1.522   9.384  18.666  0.00  0.00    +0.000 A 
ATOM      5  N   UNL     1       1.195  10.631  18.339  0.00  0.00    +0.000 NA
ATOM      6  C   UNL     1       0.604  11.417  19.266  0.00  0.00    +0.000 A 
ATOM      7 CL   UNL     1       0.485  13.024  18.636  0.00  0.00    +0.000 Cl
ATOM      8  C   UNL     1       0.218  11.027  20.556  0.00  0.00    +0.000 A 
ATOM      9  C   UNL     1       0.489   9.663  20.822  0.00  0.00    +0.000 A 
ATOM     10 CL   UNL     1      -0.082   8.920  22.303  0.00  0.00    +0.000 Cl
ATOM     11  C   UNL     1       1.214   8.829  19.914  0.00  0.00    +0.000 A 
ATOM     12  C   UNL     1       1.662   7.496  20.163  0.00  0.00    +0.000 A 
ENDROOT
BRANCH   8  13
ATOM     13  C   UNL     1      -0.352  11.987  21.556  0.00  0.00    +0.000 A 
ATOM     14  C   UNL     1      -1.502  11.692  22.317  0.00  0.00    +0.000 A 
ATOM     15  C   UNL     1      -2.092  12.635  23.169  0.00  0.00    +0.000 A 
ATOM     16  C   UNL     1      -1.501  13.877  23.355  0.00  0.00    +0.000 A 
ATOM     17  C   UNL     1      -0.337  14.186  22.664  0.00  0.00    +0.000 A 
ATOM     18  C   UNL     1       0.205  13.268  21.754  0.00  0.00    +0.000 A 
ENDBRANCH   8  13
BRANCH   1  19
ATOM     19  C   UNL     1       2.934   5.308  19.587  0.00  0.00    +0.000 C 
BRANCH  19  25
ATOM     20  C   UNL     1       3.750   3.948  16.739  0.00  0.00    +0.000 C 
ATOM     21  N   UNL     1       4.617   4.443  17.787  0.00  0.00    +0.000 N 
ATOM     22  C   UNL     1       5.980   4.324  17.716  0.00  0.00    +0.000 A 
ATOM     23  N   UNL     1       6.572   4.868  18.748  0.00  0.00    +0.000 NA
ATOM     24  C   UNL     1       5.555   5.336  19.528  0.00  0.00    +0.000 A 
ATOM     25  C   UNL     1       4.307   5.064  18.986  0.00  0.00    +0.000 A 
ENDBRANCH  19  25
BRANCH  19  26
ATOM     26  C   UNL     1       1.837   4.312  19.190  0.00  0.00    +0.000 C 
ATOM     27  C   UNL     1       1.794   2.848  19.568  0.00  0.00    +0.000 C 
ATOM     28  C   UNL     1       0.849   3.809  20.233  0.00  0.00    +0.000 C 
ENDBRANCH  19  26
BRANCH  19  29
ATOM     29  O   UNL     1       3.107   5.217  21.003  0.00  0.00    +0.000 OA
ATOM     30  H   UNL     1       2.629   4.421  21.282  0.00  0.00    +0.000 HD
ENDBRANCH  19  29
ENDBRANCH   1  19
TORSDOF 5
ENDMDL
MODEL 4
REMARK VINA RESULT:      -8.1      2.311      3.320
REMARK  Name = 
REMARK  6 active torsions:
REMARK  status: ('A' for Active; 'I' for Inactive)
REMARK    1  A    between atoms: C_1  and  N_2
REMARK    2  A    between atoms: C_6  and  C_7
REMARK    3  A    between atoms: C_7  and  O_8
REMARK    4  A    between atoms: C_7  and  C_9
REMARK    5  A    between atoms: C_7  and  C_27
REMARK    6  A    between atoms: C_16  and  C_17
REMARK                            x       y       z     vdW  Elec       q    Type
REMARK                         _______ _______ _______ _____ _____    ______ ____
ROOT
ATOM      1  C   UNL     1       2.846   6.658  18.919  0.00  0.00    +0.000 A 
ATOM      2  C   UNL     1       3.318   7.392  17.826  0.00  0.00    +0.000 A 
ATOM      3  C   UNL     1       2.826   8.674  17.560  0.00  0.00    +0.000 A 
ATOM      4  C   UNL     1       1.887   9.289  18.372  0.00  0.00    +0.000 A 
ATOM      5  N   UNL     1       1.547  10.543  18.086  0.00  0.00    +0.000 NA
ATOM      6  C   UNL     1       0.701  11.196  18.914  0.00  0.00    +0.000 A 
ATOM      7 CL   UNL     1       0.604  12.850  18.414  0.00  0.00    +0.000 Cl
ATOM      8  C   UNL     1       0.063  10.656  20.039  0.00  0.00    +0.000 A 
ATOM      9  C   UNL     1       0.371   9.289  20.242  0.00  0.00    +0.000 A 
ATOM     10 CL   UNL     1      -0.462   8.368  21.479  0.00  0.00    +0.000 Cl
ATOM     11  C   UNL     1       1.347   8.594  19.460  0.00  0.00    +0.000 A 
ATOM     12  C   UNL     1       1.829   7.269  19.691  0.00  0.00    +0.000 A 
ENDROOT
BRANCH   8  13
ATOM     13  C   UNL     1      -0.792  11.476  20.957  0.00  0.00    +0.000 A 
ATOM     14  C   UNL     1      -0.467  11.678  22.314  0.00  0.00    +0.000 A 
ATOM     15  C   UNL     1      -1.326  12.353  23.192  0.00  0.00    +0.000 A 
ATOM     16  C   UNL     1      -2.500  12.924  22.722  0.00  0.00    +0.000 A 
ATOM     17  C   UNL     1      -2.830  12.792  21.379  0.00  0.00    +0.000 A 
ATOM     18  C   UNL     1      -2.006  12.049  20.522  0.00  0.00    +0.000 A 
ENDBRANCH   8  13
BRANCH   1  19
ATOM     19  C   UNL     1       3.364   5.225  19.241  0.00  0.00    +0.000 C 
BRANCH  19  25
ATOM     20  C   UNL     1       4.537   4.168  16.390  0.00  0.00    +0.000 C 
ATOM     21  N   UNL     1       5.265   4.569  17.575  0.00  0.00    +0.000 N 
ATOM     22  C   UNL     1       6.630   4.478  17.653  0.00  0.00    +0.000 A 
ATOM     23  N   UNL     1       7.085   4.925  18.794  0.00  0.00    +0.000 NA
ATOM     24  C   UNL     1       5.973   5.299  19.492  0.00  0.00    +0.000 A 
ATOM     25  C   UNL     1       4.803   5.063  18.784  0.00  0.00    +0.000 A 
ENDBRANCH  19  25
BRANCH  19  26
ATOM     26  C   UNL     1       2.359   4.213  18.678  0.00  0.00    +0.000 C 
ATOM     27  C   UNL     1       2.277   2.749  19.049  0.00  0.00    +0.000 C 
ATOM     28  C   UNL     1       1.224   3.697  19.552  0.00  0.00    +0.000 C 
ENDBRANCH  19  26
BRANCH  19  29
ATOM     29  O   UNL     1       3.387   5.065  20.663  0.00  0.00    +0.000 OA
ATOM     30  H   UNL     1       4.237   5.425  20.960  0.00  0.00    +0.000 HD
ENDBRANCH  19  29
ENDBRANCH   1  19
TORSDOF 5
ENDMDL
MODEL 5
REMARK VINA RESULT:      -8.1      2.599      3.753
REMARK  Name = 
REMARK  6 active torsions:
REMARK  status: ('A' for Active; 'I' for Inactive)
REMARK    1  A    between atoms: C_1  and  N_2
REMARK    2  A    between atoms: C_6  and  C_7
REMARK    3  A    between atoms: C_7  and  O_8
REMARK    4  A    between atoms: C_7  and  C_9
REMARK    5  A    between atoms: C_7  and  C_27
REMARK    6  A    between atoms: C_16  and  C_17
REMARK                            x       y       z     vdW  Elec       q    Type
REMARK                         _______ _______ _______ _____ _____    ______ ____
ROOT
ATOM      1  C   UNL     1       2.396   6.757  19.426  0.00  0.00    +0.000 A 
ATOM      2  C   UNL     1       2.616   7.336  18.172  0.00  0.00    +0.000 A 
ATOM      3  C   UNL     1       2.102   8.601  17.869  0.00  0.00    +0.000 A 
ATOM      4  C   UNL     1       1.390   9.351  18.792  0.00  0.00    +0.000 A 
ATOM      5  N   UNL     1       1.019  10.578  18.439  0.00  0.00    +0.000 NA
ATOM      6  C   UNL     1       0.403  11.363  19.351  0.00  0.00    +0.000 A 
ATOM      7 CL   UNL     1       0.226  12.951  18.687  0.00  0.00    +0.000 Cl
ATOM      8  C   UNL     1       0.033  10.987  20.649  0.00  0.00    +0.000 A 
ATOM      9  C   UNL     1       0.351   9.640  20.944  0.00  0.00    +0.000 A 
ATOM     10 CL   UNL     1      -0.191   8.909  22.442  0.00  0.00    +0.000 Cl
ATOM     11  C   UNL     1       1.103   8.812  20.052  0.00  0.00    +0.000 A 
ATOM     12  C   UNL     1       1.599   7.501  20.329  0.00  0.00    +0.000 A 
ENDROOT
BRANCH   8  13
ATOM     13  C   UNL     1      -0.569  11.948  21.630  0.00  0.00    +0.000 A 
ATOM     14  C   UNL     1      -1.794  11.696  22.282  0.00  0.00    +0.000 A 
ATOM     15  C   UNL     1      -2.404  12.645  23.113  0.00  0.00    +0.000 A 
ATOM     16  C   UNL     1      -1.765  13.846  23.390  0.00  0.00    +0.000 A 
ATOM     17  C   UNL     1      -0.532  14.110  22.809  0.00  0.00    +0.000 A 
ATOM     18  C   UNL     1       0.036  13.190  21.917  0.00  0.00    +0.000 A 
ENDBRANCH   8  13
BRANCH   1  19
ATOM     19  C   UNL     1       2.945   5.348  19.796  0.00  0.00    +0.000 C 
BRANCH  19  25
ATOM     20  C   UNL     1       5.569   4.419  18.099  0.00  0.00    +0.000 C 
ATOM     21  N   UNL     1       4.174   4.131  17.839  0.00  0.00    +0.000 N 
ATOM     22  C   UNL     1       3.772   3.436  16.728  0.00  0.00    +0.000 A 
ATOM     23  N   UNL     1       2.477   3.256  16.707  0.00  0.00    +0.000 NA
ATOM     24  C   UNL     1       2.019   3.876  17.833  0.00  0.00    +0.000 A 
ATOM     25  C   UNL     1       3.041   4.471  18.559  0.00  0.00    +0.000 A 
ENDBRANCH  19  25
BRANCH  19  26
ATOM     26  C   UNL     1       2.104   4.793  20.952  0.00  0.00    +0.000 C 
ATOM     27  C   UNL     1       1.078   3.687  20.848  0.00  0.00    +0.000 C 
ATOM     28  C   UNL     1       2.396   3.409  21.514  0.00  0.00    +0.000 C 
ENDBRANCH  19  26
BRANCH  19  29
ATOM     29  O   UNL     1       4.285   5.498  20.271  0.00  0.00    +0.000 OA
ATOM     30  H   UNL     1       4.519   6.428  20.124  0.00  0.00    +0.000 HD
ENDBRANCH  19  29
ENDBRANCH   1  19
TORSDOF 5
ENDMDL
MODEL 6
REMARK VINA RESULT:      -7.8      3.107      8.230
REMARK  Name = 
REMARK  6 active torsions:
REMARK  status: ('A' for Active; 'I' for Inactive)
REMARK    1  A    between atoms: C_1  and  N_2
REMARK    2  A    between atoms: C_6  and  C_7
REMARK    3  A    between atoms: C_7  and  O_8
REMARK    4  A    between atoms: C_7  and  C_9
REMARK    5  A    between atoms: C_7  and  C_27
REMARK    6  A    between atoms: C_16  and  C_17
REMARK                            x       y       z     vdW  Elec       q    Type
REMARK                         _______ _______ _______ _____ _____    ______ ____
ROOT
ATOM      1  C   UNL     1       0.591  10.093  20.468  0.00  0.00    +0.000 A 
ATOM      2  C   UNL     1       0.035   9.293  21.471  0.00  0.00    +0.000 A 
ATOM      3  C   UNL     1       0.346   7.932  21.555  0.00  0.00    +0.000 A 
ATOM      4  C   UNL     1       1.236   7.322  20.685  0.00  0.00    +0.000 A 
ATOM      5  N   UNL     1       1.534   6.043  20.900  0.00  0.00    +0.000 NA
ATOM      6  C   UNL     1       2.466   5.450  20.121  0.00  0.00    +0.000 A 
ATOM      7 CL   UNL     1       2.795   3.873  20.754  0.00  0.00    +0.000 Cl
ATOM      8  C   UNL     1       3.121   6.031  19.027  0.00  0.00    +0.000 A 
ATOM      9  C   UNL     1       2.693   7.355  18.770  0.00  0.00    +0.000 A 
ATOM     10 CL   UNL     1       3.244   8.202  17.337  0.00  0.00    +0.000 Cl
ATOM     11  C   UNL     1       1.797   8.058  19.635  0.00  0.00    +0.000 A 
ATOM     12  C   UNL     1       1.434   9.437  19.539  0.00  0.00    +0.000 A 
ENDROOT
BRANCH   8  13
ATOM     13  C   UNL     1       4.209   5.331  18.269  0.00  0.00    +0.000 A 
ATOM     14  C   UNL     1       5.562   5.391  18.660  0.00  0.00    +0.000 A 
ATOM     15  C   UNL     1       6.586   4.826  17.887  0.00  0.00    +0.000 A 
ATOM     16  C   UNL     1       6.281   4.107  16.739  0.00  0.00    +0.000 A 
ATOM     17  C   UNL     1       4.954   3.981  16.349  0.00  0.00    +0.000 A 
ATOM     18  C   UNL     1       3.942   4.614  17.084  0.00  0.00    +0.000 A 
ENDBRANCH   8  13
BRANCH   1  19
ATOM     19  C   UNL     1       0.261  11.609  20.339  0.00  0.00    +0.000 C 
BRANCH  19  25
ATOM     20  C   UNL     1      -1.527  10.582  17.813  0.00  0.00    +0.000 C 
ATOM     21  N   UNL     1      -1.935  11.394  18.941  0.00  0.00    +0.000 N 
ATOM     22  C   UNL     1      -3.199  11.911  19.042  0.00  0.00    +0.000 A 
ATOM     23  N   UNL     1      -3.366  12.582  20.152  0.00  0.00    +0.000 NA
ATOM     24  C   UNL     1      -2.158  12.516  20.784  0.00  0.00    +0.000 A 
ATOM     25  C   UNL     1      -1.216  11.811  20.049  0.00  0.00    +0.000 A 
ENDBRANCH  19  25
BRANCH  19  26
ATOM     26  C   UNL     1       1.237  12.229  19.330  0.00  0.00    +0.000 C 
ATOM     27  C   UNL     1       1.025  13.521  18.574  0.00  0.00    +0.000 C 
ATOM     28  C   UNL     1       2.023  13.479  19.697  0.00  0.00    +0.000 C 
ENDBRANCH  19  26
BRANCH  19  29
ATOM     29  O   UNL     1       0.498  12.230  21.605  0.00  0.00    +0.000 OA
ATOM     30  H   UNL     1      -0.356  12.238  22.064  0.00  0.00    +0.000 HD
ENDBRANCH  19  29
ENDBRANCH   1  19
TORSDOF 5
ENDMDL
MODEL 7
REMARK VINA RESULT:      -7.8      2.297      3.255
REMARK  Name = 
REMARK  6 active torsions:
REMARK  status: ('A' for Active; 'I' for Inactive)
REMARK    1  A    between atoms: C_1  and  N_2
REMARK    2  A    between atoms: C_6  and  C_7
REMARK    3  A    between atoms: C_7  and  O_8
REMARK    4  A    between atoms: C_7  and  C_9
REMARK    5  A    between atoms: C_7  and  C_27
REMARK    6  A    between atoms: C_16  and  C_17
REMARK                            x       y       z     vdW  Elec       q    Type
REMARK                         _______ _______ _______ _____ _____    ______ ____
ROOT
ATOM      1  C   UNL     1       2.697   6.622  18.949  0.00  0.00    +0.000 A 
ATOM      2  C   UNL     1       3.236   7.336  17.875  0.00  0.00    +0.000 A 
ATOM      3  C   UNL     1       2.818   8.643  17.605  0.00  0.00    +0.000 A 
ATOM      4  C   UNL     1       1.891   9.302  18.396  0.00  0.00    +0.000 A 
ATOM      5  N   UNL     1       1.624  10.573  18.110  0.00  0.00    +0.000 NA
ATOM      6  C   UNL     1       0.791  11.265  18.919  0.00  0.00    +0.000 A 
ATOM      7 CL   UNL     1       0.793  12.924  18.430  0.00  0.00    +0.000 Cl
ATOM      8  C   UNL     1       0.095  10.752  20.023  0.00  0.00    +0.000 A 
ATOM      9  C   UNL     1       0.326   9.369  20.224  0.00  0.00    +0.000 A 
ATOM     10 CL   UNL     1      -0.587   8.486  21.431  0.00  0.00    +0.000 Cl
ATOM     11  C   UNL     1       1.285   8.629  19.464  0.00  0.00    +0.000 A 
ATOM     12  C   UNL     1       1.692   7.279  19.699  0.00  0.00    +0.000 A 
ENDROOT
BRANCH   8  13
ATOM     13  C   UNL     1      -0.742  11.609  20.924  0.00  0.00    +0.000 A 
ATOM     14  C   UNL     1      -0.382  11.878  22.260  0.00  0.00    +0.000 A 
ATOM     15  C   UNL     1      -1.222  12.589  23.128  0.00  0.00    +0.000 A 
ATOM     16  C   UNL     1      -2.412  13.131  22.662  0.00  0.00    +0.000 A 
ATOM     17  C   UNL     1      -2.777  12.933  21.337  0.00  0.00    +0.000 A 
ATOM     18  C   UNL     1      -1.970  12.154  20.495  0.00  0.00    +0.000 A 
ENDBRANCH   8  13
BRANCH   1  19
ATOM     19  C   UNL     1       3.131   5.162  19.275  0.00  0.00    +0.000 C 
BRANCH  19  25
ATOM     20  C   UNL     1       6.374   5.497  19.275  0.00  0.00    +0.000 C 
ATOM     21  N   UNL     1       5.528   4.871  18.280  0.00  0.00    +0.000 N 
ATOM     22  C   UNL     1       6.034   4.370  17.110  0.00  0.00    +0.000 A 
ATOM     23  N   UNL     1       5.106   3.817  16.373  0.00  0.00    +0.000 NA
ATOM     24  C   UNL     1       3.952   3.986  17.080  0.00  0.00    +0.000 A 
ATOM     25  C   UNL     1       4.157   4.673  18.268  0.00  0.00    +0.000 A 
ENDBRANCH  19  25
BRANCH  19  26
ATOM     26  C   UNL     1       1.867   4.306  19.420  0.00  0.00    +0.000 C 
ATOM     27  C   UNL     1       1.825   2.854  19.841  0.00  0.00    +0.000 C 
ATOM     28  C   UNL     1       1.364   3.913  20.802  0.00  0.00    +0.000 C 
ENDBRANCH  19  26
BRANCH  19  29
ATOM     29  O   UNL     1       3.797   5.163  20.541  0.00  0.00    +0.000 OA
ATOM     30  H   UNL     1       3.247   4.630  21.135  0.00  0.00    +0.000 HD
ENDBRANCH  19  29
ENDBRANCH   1  19
TORSDOF 5
ENDMDL
MODEL 8
REMARK VINA RESULT:      -7.8      3.254      8.454
REMARK  Name = 
REMARK  6 active torsions:
REMARK  status: ('A' for Active; 'I' for Inactive)
REMARK    1  A    between atoms: C_1  and  N_2
REMARK    2  A    between atoms: C_6  and  C_7
REMARK    3  A    between atoms: C_7  and  O_8
REMARK    4  A    between atoms: C_7  and  C_9
REMARK    5  A    between atoms: C_7  and  C_27
REMARK    6  A    between atoms: C_16  and  C_17
REMARK                            x       y       z     vdW  Elec       q    Type
REMARK                         _______ _______ _______ _____ _____    ______ ____
ROOT
ATOM      1  C   UNL     1       0.390  10.794  20.821  0.00  0.00    +0.000 A 
ATOM      2  C   UNL     1      -0.058  10.074  21.932  0.00  0.00    +0.000 A 
ATOM      3  C   UNL     1       0.193   8.702  22.043  0.00  0.00    +0.000 A 
ATOM      4  C   UNL     1       0.919   8.003  21.092  0.00  0.00    +0.000 A 
ATOM      5  N   UNL     1       1.180   6.721  21.330  0.00  0.00    +0.000 NA
ATOM      6  C   UNL     1       1.962   6.040  20.463  0.00  0.00    +0.000 A 
ATOM      7 CL   UNL     1       2.297   4.477  21.126  0.00  0.00    +0.000 Cl
ATOM      8  C   UNL     1       2.485   6.533  19.259  0.00  0.00    +0.000 A 
ATOM      9  C   UNL     1       2.092   7.867  18.994  0.00  0.00    +0.000 A 
ATOM     10 CL   UNL     1       2.478   8.615  17.456  0.00  0.00    +0.000 Cl
ATOM     11  C   UNL     1       1.363   8.658  19.937  0.00  0.00    +0.000 A 
ATOM     12  C   UNL     1       1.060  10.049  19.819  0.00  0.00    +0.000 A 
ENDROOT
BRANCH   8  13
ATOM     13  C   UNL     1       3.418   5.739  18.396  0.00  0.00    +0.000 A 
ATOM     14  C   UNL     1       2.987   4.635  17.631  0.00  0.00    +0.000 A 
ATOM     15  C   UNL     1       3.883   3.832  16.913  0.00  0.00    +0.000 A 
ATOM     16  C   UNL     1       5.231   4.158  16.866  0.00  0.00    +0.000 A 
ATOM     17  C   UNL     1       5.687   5.268  17.563  0.00  0.00    +0.000 A 
ATOM     18  C   UNL     1       4.799   6.022  18.342  0.00  0.00    +0.000 A 
ENDBRANCH   8  13
BRANCH   1  19
ATOM     19  C   UNL     1       0.122  12.319  20.658  0.00  0.00    +0.000 C 
BRANCH  19  25
ATOM     20  C   UNL     1      -2.330  11.556  18.650  0.00  0.00    +0.000 C 
ATOM     21  N   UNL     1      -2.372  12.311  19.884  0.00  0.00    +0.000 N 
ATOM     22  C   UNL     1      -3.528  12.886  20.343  0.00  0.00    +0.000 A 
ATOM     23  N   UNL     1      -3.352  13.489  21.490  0.00  0.00    +0.000 NA
ATOM     24  C   UNL     1      -2.029  13.319  21.775  0.00  0.00    +0.000 A 
ATOM     25  C   UNL     1      -1.362  12.616  20.782  0.00  0.00    +0.000 A 
ENDBRANCH  19  25
BRANCH  19  26
ATOM     26  C   UNL     1       0.799  12.791  19.365  0.00  0.00    +0.000 C 
ATOM     27  C   UNL     1       0.724  14.185  18.786  0.00  0.00    +0.000 C 
ATOM     28  C   UNL     1       2.001  13.722  19.428  0.00  0.00    +0.000 C 
ENDBRANCH  19  26
BRANCH  19  29
ATOM     29  O   UNL     1       0.749  13.004  21.746  0.00  0.00    +0.000 OA
ATOM     30  H   UNL     1       0.256  13.831  21.863  0.00  0.00    +0.000 HD
ENDBRANCH  19  29
ENDBRANCH   1  19
TORSDOF 5
ENDMDL
MODEL 9
REMARK VINA RESULT:      -7.7      2.494      3.878
REMARK  Name = 
REMARK  6 active torsions:
REMARK  status: ('A' for Active; 'I' for Inactive)
REMARK    1  A    between atoms: C_1  and  N_2
REMARK    2  A    between atoms: C_6  and  C_7
REMARK    3  A    between atoms: C_7  and  O_8
REMARK    4  A    between atoms: C_7  and  C_9
REMARK    5  A    between atoms: C_7  and  C_27
REMARK    6  A    between atoms: C_16  and  C_17
REMARK                            x       y       z     vdW  Elec       q    Type
REMARK                         _______ _______ _______ _____ _____    ______ ____
ROOT
ATOM      1  C   UNL     1       2.613   6.698  19.367  0.00  0.00    +0.000 A 
ATOM      2  C   UNL     1       3.030   7.308  18.180  0.00  0.00    +0.000 A 
ATOM      3  C   UNL     1       2.525   8.557  17.803  0.00  0.00    +0.000 A 
ATOM      4  C   UNL     1       1.629   9.261  18.591  0.00  0.00    +0.000 A 
ATOM      5  N   UNL     1       1.275  10.479  18.190  0.00  0.00    +0.000 NA
ATOM      6  C   UNL     1       0.472  11.222  18.984  0.00  0.00    +0.000 A 
ATOM      7 CL   UNL     1       0.351  12.814  18.317  0.00  0.00    +0.000 Cl
ATOM      8  C   UNL     1      -0.108  10.809  20.191  0.00  0.00    +0.000 A 
ATOM      9  C   UNL     1       0.209   9.469  20.523  0.00  0.00    +0.000 A 
ATOM     10 CL   UNL     1      -0.562   8.690  21.891  0.00  0.00    +0.000 Cl
ATOM     11  C   UNL     1       1.143   8.689  19.772  0.00  0.00    +0.000 A 
ATOM     12  C   UNL     1       1.636   7.394  20.120  0.00  0.00    +0.000 A 
ENDROOT
BRANCH   8  13
ATOM     13  C   UNL     1      -0.917  11.727  21.058  0.00  0.00    +0.000 A 
ATOM     14  C   UNL     1      -0.441  12.214  22.293  0.00  0.00    +0.000 A 
ATOM     15  C   UNL     1      -1.243  12.982  23.148  0.00  0.00    +0.000 A 
ATOM     16  C   UNL     1      -2.520  13.362  22.756  0.00  0.00    +0.000 A 
ATOM     17  C   UNL     1      -3.005  12.946  21.524  0.00  0.00    +0.000 A 
ATOM     18  C   UNL     1      -2.227  12.113  20.707  0.00  0.00    +0.000 A 
ENDBRANCH   8  13
BRANCH   1  19
ATOM     19  C   UNL     1       3.145   5.305  19.814  0.00  0.00    +0.000 C 
BRANCH  19  25
ATOM     20  C   UNL     1       1.034   4.364  17.516  0.00  0.00    +0.000 C 
ATOM     21  N   UNL     1       2.424   3.991  17.676  0.00  0.00    +0.000 N 
ATOM     22  C   UNL     1       3.030   3.081  16.850  0.00  0.00    +0.000 A 
ATOM     23  N   UNL     1       4.293   2.917  17.147  0.00  0.00    +0.000 NA
ATOM     24  C   UNL     1       4.509   3.734  18.218  0.00  0.00    +0.000 A 
ATOM     25  C   UNL     1       3.359   4.403  18.611  0.00  0.00    +0.000 A 
ENDBRANCH  19  25
BRANCH  19  26
ATOM     26  C   UNL     1       2.215   4.763  20.907  0.00  0.00    +0.000 C 
ATOM     27  C   UNL     1       1.173   3.683  20.725  0.00  0.00    +0.000 C 
ATOM     28  C   UNL     1       2.436   3.369  21.476  0.00  0.00    +0.000 C 
ENDBRANCH  19  26
BRANCH  19  29
ATOM     29  O   UNL     1       4.438   5.485  20.400  0.00  0.00    +0.000 OA
ATOM     30  H   UNL     1       5.079   5.222  19.722  0.00  0.00    +0.000 HD
ENDBRANCH  19  29
ENDBRANCH   1  19
TORSDOF 5
ENDMDL
