MODEL 1
REMARK VINA RESULT:      -9.1      0.000      0.000
REMARK  Name = 
REMARK  6 active torsions:
REMARK  status: ('A' for Active; 'I' for Inactive)
REMARK    1  A    between atoms: C_4  and  C_5
REMARK    2  A    between atoms: C_5  and  C_6
REMARK    3  A    between atoms: C_6  and  C_7
REMARK    4  A    between atoms: C_16  and  C_17
REMARK    5  A    between atoms: C_17  and  C_18
REMARK    6  A    between atoms: C_17  and  C_25
REMARK                            x       y       z     vdW  Elec       q    Type
REMARK                         _______ _______ _______ _____ _____    ______ ____
ROOT
ATOM      1  O   UNL     1       3.033   3.476  20.750  0.00  0.00    +0.000 OA
ATOM      2  C   UNL     1       2.824   4.580  20.259  0.00  0.00    +0.000 A 
ATOM      3  C   UNL     1       3.366   4.932  18.929  0.00  0.00    +0.000 A 
ATOM      4  C   UNL     1       3.169   6.130  18.341  0.00  0.00    +0.000 A 
ATOM      5  C   UNL     1       2.364   7.142  19.085  0.00  0.00    +0.000 A 
ATOM      6  C   UNL     1       2.068   8.424  18.586  0.00  0.00    +0.000 A 
ATOM      7  C   UNL     1       1.273   9.341  19.309  0.00  0.00    +0.000 A 
ATOM      8  C   UNL     1       0.793   8.962  20.571  0.00  0.00    +0.000 A 
ATOM      9  C   UNL     1       1.080   7.701  21.088  0.00  0.00    +0.000 A 
ATOM     10  C   UNL     1       1.851   6.803  20.349  0.00  0.00    +0.000 A 
ATOM     11  N   UNL     1       2.099   5.538  20.893  0.00  0.00    +0.000 N 
ATOM     12  H   UNL     1       1.728   5.287  21.798  0.00  0.00    +0.000 HD
ENDROOT
BRANCH   4  13
ATOM     13  C   UNL     1       3.738   6.462  16.970  0.00  0.00    +0.000 C 
BRANCH  13  14
ATOM     14  C   UNL     1       5.037   5.731  16.587  0.00  0.00    +0.000 C 
BRANCH  14  15
ATOM     15  C   UNL     1       6.219   6.200  17.401  0.00  0.00    +0.000 A 
ATOM     16  C   UNL     1       6.846   5.320  18.295  0.00  0.00    +0.000 A 
ATOM     17  C   UNL     1       7.955   5.732  19.037  0.00  0.00    +0.000 A 
ATOM     18  C   UNL     1       8.441   7.030  18.899  0.00  0.00    +0.000 A 
ATOM     19  C   UNL     1       7.812   7.915  18.026  0.00  0.00    +0.000 A 
ATOM     20 CL   UNL     1       8.410   9.520  17.862  0.00  0.00    +0.000 Cl
ATOM     21  C   UNL     1       6.704   7.510  17.280  0.00  0.00    +0.000 A 
ENDBRANCH  14  15
ENDBRANCH  13  14
ENDBRANCH   4  13
BRANCH   7  22
ATOM     22  C   UNL     1       0.888  10.678  18.661  0.00  0.00    +0.000 C 
BRANCH  22  23
ATOM     23  C   UNL     1      -0.631  10.825  18.478  0.00  0.00    +0.000 A 
ATOM     24  C   UNL     1      -1.358  11.798  19.188  0.00  0.00    +0.000 A 
ATOM     25  C   UNL     1      -2.717  12.001  18.950  0.00  0.00    +0.000 A 
ATOM     26  C   UNL     1      -3.370  11.228  17.998  0.00  0.00    +0.000 A 
ATOM     27 CL   UNL     1      -5.035  11.509  17.669  0.00  0.00    +0.000 Cl
ATOM     28  C   UNL     1      -2.678  10.244  17.294  0.00  0.00    +0.000 A 
ATOM     29  C   UNL     1      -1.314  10.041  17.532  0.00  0.00    +0.000 A 
ENDBRANCH  22  23
BRANCH  22  30
ATOM     30  C   UNL     1       1.481  11.908  19.349  0.00  0.00    +0.000 A 
ATOM     31  N   UNL     1       1.547  12.088  20.656  0.00  0.00    +0.000 NA
ATOM     32  C   UNL     1       2.010  13.355  20.940  0.00  0.00    +0.000 A 
ATOM     33  C   UNL     1       2.356  14.117  19.847  0.00  0.00    +0.000 A 
ATOM     34  S   UNL     1       2.082  13.225  18.408  0.00  0.00    +0.000 S 
ENDBRANCH  22  30
ENDBRANCH   7  22
TORSDOF 6
ENDMDL
MODEL 2
REMARK VINA RESULT:      -8.8      0.686      1.130
REMARK  Name = 
REMARK  6 active torsions:
REMARK  status: ('A' for Active; 'I' for Inactive)
REMARK    1  A    between atoms: C_4  and  C_5
REMARK    2  A    between atoms: C_5  and  C_6
REMARK    3  A    between atoms: C_6  and  C_7
REMARK    4  A    between atoms: C_16  and  C_17
REMARK    5  A    between atoms: C_17  and  C_18
REMARK    6  A    between atoms: C_17  and  C_25
REMARK                            x       y       z     vdW  Elec       q    Type
REMARK                         _______ _______ _______ _____ _____    ______ ____
ROOT
ATOM      1  O   UNL     1       3.221   3.600  20.662  0.00  0.00    +0.000 OA
ATOM      2  C   UNL     1       2.982   4.688  20.148  0.00  0.00    +0.000 A 
ATOM      3  C   UNL     1       3.514   5.027  18.810  0.00  0.00    +0.000 A 
ATOM      4  C   UNL     1       3.285   6.206  18.197  0.00  0.00    +0.000 A 
ATOM      5  C   UNL     1       2.454   7.212  18.920  0.00  0.00    +0.000 A 
ATOM      6  C   UNL     1       2.123   8.474  18.396  0.00  0.00    +0.000 A 
ATOM      7  C   UNL     1       1.304   9.385  19.100  0.00  0.00    +0.000 A 
ATOM      8  C   UNL     1       0.835   9.020  20.370  0.00  0.00    +0.000 A 
ATOM      9  C   UNL     1       1.155   7.778  20.913  0.00  0.00    +0.000 A 
ATOM     10  C   UNL     1       1.950   6.886  20.193  0.00  0.00    +0.000 A 
ATOM     11  N   UNL     1       2.232   5.639  20.762  0.00  0.00    +0.000 N 
ATOM     12  H   UNL     1       1.868   5.397  21.673  0.00  0.00    +0.000 HD
ENDROOT
BRANCH   4  13
ATOM     13  C   UNL     1       3.844   6.525  16.819  0.00  0.00    +0.000 C 
BRANCH  13  14
ATOM     14  C   UNL     1       5.164   5.825  16.452  0.00  0.00    +0.000 C 
BRANCH  14  15
ATOM     15  C   UNL     1       6.308   6.258  17.338  0.00  0.00    +0.000 A 
ATOM     16  C   UNL     1       6.881   5.348  18.237  0.00  0.00    +0.000 A 
ATOM     17  C   UNL     1       7.954   5.727  19.045  0.00  0.00    +0.000 A 
ATOM     18  C   UNL     1       8.459   7.023  18.969  0.00  0.00    +0.000 A 
ATOM     19  C   UNL     1       7.883   7.938  18.089  0.00  0.00    +0.000 A 
ATOM     20 CL   UNL     1       8.504   9.541  18.000  0.00  0.00    +0.000 Cl
ATOM     21  C   UNL     1       6.811   7.566  17.277  0.00  0.00    +0.000 A 
ENDBRANCH  14  15
ENDBRANCH  13  14
ENDBRANCH   4  13
BRANCH   7  22
ATOM     22  C   UNL     1       0.884  10.698  18.424  0.00  0.00    +0.000 C 
BRANCH  22  23
ATOM     23  C   UNL     1      -0.639  10.798  18.237  0.00  0.00    +0.000 A 
ATOM     24  C   UNL     1      -1.340   9.853  17.464  0.00  0.00    +0.000 A 
ATOM     25  C   UNL     1      -2.730   9.881  17.374  0.00  0.00    +0.000 A 
ATOM     26  C   UNL     1      -3.442  10.861  18.056  0.00  0.00    +0.000 A 
ATOM     27 CL   UNL     1      -5.161  10.870  17.985  0.00  0.00    +0.000 Cl
ATOM     28  C   UNL     1      -2.771  11.821  18.813  0.00  0.00    +0.000 A 
ATOM     29  C   UNL     1      -1.376  11.791  18.904  0.00  0.00    +0.000 A 
ENDBRANCH  22  23
BRANCH  22  30
ATOM     30  C   UNL     1       1.440  11.957  19.088  0.00  0.00    +0.000 A 
ATOM     31  N   UNL     1       2.134  12.898  18.472  0.00  0.00    +0.000 NA
ATOM     32  C   UNL     1       2.600  13.821  19.382  0.00  0.00    +0.000 A 
ATOM     33  C   UNL     1       2.206  13.617  20.685  0.00  0.00    +0.000 A 
ATOM     34  S   UNL     1       1.228  12.212  20.783  0.00  0.00    +0.000 S 
ENDBRANCH  22  30
ENDBRANCH   7  22
TORSDOF 6
ENDMDL
MODEL 3
REMARK VINA RESULT:      -8.6      1.606      2.326
REMARK  Name = 
REMARK  6 active torsions:
REMARK  status: ('A' for Active; 'I' for Inactive)
REMARK    1  A    between atoms: C_4  and  C_5
REMARK    2  A    between atoms: C_5  and  C_6
REMARK    3  A    between atoms: C_6  and  C_7
REMARK    4  A    between atoms: C_16  and  C_17
REMARK    5  A    between atoms: C_17  and  C_18
REMARK    6  A    between atoms: C_17  and  C_25
REMARK                            x       y       z     vdW  Elec       q    Type
REMARK                         _______ _______ _______ _____ _____    ______ ____
ROOT
ATOM      1  O   UNL     1       2.931   3.747  20.924  0.00  0.00    +0.000 OA
ATOM      2  C   UNL     1       2.724   4.853  20.437  0.00  0.00    +0.000 A 
ATOM      3  C   UNL     1       3.384   5.262  19.178  0.00  0.00    +0.000 A 
ATOM      4  C   UNL     1       3.194   6.464  18.598  0.00  0.00    +0.000 A 
ATOM      5  C   UNL     1       2.271   7.421  19.273  0.00  0.00    +0.000 A 
ATOM      6  C   UNL     1       1.969   8.701  18.773  0.00  0.00    +0.000 A 
ATOM      7  C   UNL     1       1.061   9.564  19.427  0.00  0.00    +0.000 A 
ATOM      8  C   UNL     1       0.471   9.132  20.623  0.00  0.00    +0.000 A 
ATOM      9  C   UNL     1       0.761   7.872  21.142  0.00  0.00    +0.000 A 
ATOM     10  C   UNL     1       1.645   7.028  20.470  0.00  0.00    +0.000 A 
ATOM     11  N   UNL     1       1.894   5.761  21.010  0.00  0.00    +0.000 N 
ATOM     12  H   UNL     1       1.443   5.472  21.867  0.00  0.00    +0.000 HD
ENDROOT
BRANCH   4  13
ATOM     13  C   UNL     1       3.886   6.855  17.301  0.00  0.00    +0.000 C 
BRANCH  13  14
ATOM     14  C   UNL     1       5.395   6.559  17.229  0.00  0.00    +0.000 C 
BRANCH  14  15
ATOM     15  C   UNL     1       5.736   5.588  16.124  0.00  0.00    +0.000 A 
ATOM     16  C   UNL     1       5.101   4.338  16.069  0.00  0.00    +0.000 A 
ATOM     17  C   UNL     1       5.389   3.440  15.040  0.00  0.00    +0.000 A 
ATOM     18  C   UNL     1       6.321   3.779  14.061  0.00  0.00    +0.000 A 
ATOM     19  C   UNL     1       6.967   5.012  14.119  0.00  0.00    +0.000 A 
ATOM     20 CL   UNL     1       8.122   5.426  12.912  0.00  0.00    +0.000 Cl
ATOM     21  C   UNL     1       6.684   5.916  15.144  0.00  0.00    +0.000 A 
ENDBRANCH  14  15
ENDBRANCH  13  14
ENDBRANCH   4  13
BRANCH   7  22
ATOM     22  C   UNL     1       0.685  10.899  18.770  0.00  0.00    +0.000 C 
BRANCH  22  23
ATOM     23  C   UNL     1      -0.820  11.001  18.474  0.00  0.00    +0.000 A 
ATOM     24  C   UNL     1      -1.453  10.097  17.600  0.00  0.00    +0.000 A 
ATOM     25  C   UNL     1      -2.833  10.124  17.408  0.00  0.00    +0.000 A 
ATOM     26  C   UNL     1      -3.603  11.061  18.087  0.00  0.00    +0.000 A 
ATOM     27 CL   UNL     1      -5.311  11.065  17.889  0.00  0.00    +0.000 Cl
ATOM     28  C   UNL     1      -2.999  11.980  18.944  0.00  0.00    +0.000 A 
ATOM     29  C   UNL     1      -1.614  11.952  19.138  0.00  0.00    +0.000 A 
ENDBRANCH  22  23
BRANCH  22  30
ATOM     30  C   UNL     1       1.185  12.135  19.517  0.00  0.00    +0.000 A 
ATOM     31  N   UNL     1       1.094  12.321  20.822  0.00  0.00    +0.000 NA
ATOM     32  C   UNL     1       1.513  13.592  21.153  0.00  0.00    +0.000 A 
ATOM     33  C   UNL     1       1.983  14.350  20.105  0.00  0.00    +0.000 A 
ATOM     34  S   UNL     1       1.887  13.451  18.648  0.00  0.00    +0.000 S 
ENDBRANCH  22  30
ENDBRANCH   7  22
TORSDOF 6
ENDMDL
MODEL 4
REMARK VINA RESULT:      -8.6      1.726      2.229
REMARK  Name = 
REMARK  6 active torsions:
REMARK  status: ('A' for Active; 'I' for Inactive)
REMARK    1  A    between atoms: C_4  and  C_5
REMARK    2  A    between atoms: C_5  and  C_6
REMARK    3  A    between atoms: C_6  and  C_7
REMARK    4  A    between atoms: C_16  and  C_17
REMARK    5  A    between atoms: C_17  and  C_18
REMARK    6  A    between atoms: C_17  and  C_25
REMARK                            x       y       z     vdW  Elec       q    Type
REMARK                         _______ _______ _______ _____ _____    ______ ____
ROOT
ATOM      1  O   UNL     1       2.508   4.064  20.974  0.00  0.00    +0.000 OA
ATOM      2  C   UNL     1       2.338   5.184  20.504  0.00  0.00    +0.000 A 
ATOM      3  C   UNL     1       2.894   5.545  19.182  0.00  0.00    +0.000 A 
ATOM      4  C   UNL     1       2.738   6.759  18.618  0.00  0.00    +0.000 A 
ATOM      5  C   UNL     1       1.966   7.783  19.380  0.00  0.00    +0.000 A 
ATOM      6  C   UNL     1       1.714   9.084  18.907  0.00  0.00    +0.000 A 
ATOM      7  C   UNL     1       0.947  10.013  19.647  0.00  0.00    +0.000 A 
ATOM      8  C   UNL     1       0.452   9.624  20.900  0.00  0.00    +0.000 A 
ATOM      9  C   UNL     1       0.696   8.344  21.393  0.00  0.00    +0.000 A 
ATOM     10  C   UNL     1       1.439   7.437  20.637  0.00  0.00    +0.000 A 
ATOM     11  N   UNL     1       1.643   6.153  21.156  0.00  0.00    +0.000 N 
ATOM     12  H   UNL     1       1.262   5.896  22.056  0.00  0.00    +0.000 HD
ENDROOT
BRANCH   4  13
ATOM     13  C   UNL     1       3.321   7.100  17.255  0.00  0.00    +0.000 C 
BRANCH  13  14
ATOM     14  C   UNL     1       4.826   7.422  17.229  0.00  0.00    +0.000 C 
BRANCH  14  15
ATOM     15  C   UNL     1       5.653   6.253  16.752  0.00  0.00    +0.000 A 
ATOM     16  C   UNL     1       6.655   5.720  17.576  0.00  0.00    +0.000 A 
ATOM     17  C   UNL     1       7.411   4.625  17.158  0.00  0.00    +0.000 A 
ATOM     18  C   UNL     1       7.181   4.057  15.907  0.00  0.00    +0.000 A 
ATOM     19  C   UNL     1       6.199   4.591  15.075  0.00  0.00    +0.000 A 
ATOM     20 CL   UNL     1       5.920   3.892  13.528  0.00  0.00    +0.000 Cl
ATOM     21  C   UNL     1       5.437   5.686  15.487  0.00  0.00    +0.000 A 
ENDBRANCH  14  15
ENDBRANCH  13  14
ENDBRANCH   4  13
BRANCH   7  22
ATOM     22  C   UNL     1       0.609  11.374  19.025  0.00  0.00    +0.000 C 
BRANCH  22  23
ATOM     23  C   UNL     1      -0.898  11.673  19.056  0.00  0.00    +0.000 A 
ATOM     24  C   UNL     1      -1.783  11.042  18.161  0.00  0.00    +0.000 A 
ATOM     25  C   UNL     1      -3.161  11.233  18.253  0.00  0.00    +0.000 A 
ATOM     26  C   UNL     1      -3.675  12.065  19.241  0.00  0.00    +0.000 A 
ATOM     27 CL   UNL     1      -5.377  12.265  19.385  0.00  0.00    +0.000 Cl
ATOM     28  C   UNL     1      -2.819  12.717  20.127  0.00  0.00    +0.000 A 
ATOM     29  C   UNL     1      -1.437  12.524  20.036  0.00  0.00    +0.000 A 
ENDBRANCH  22  23
BRANCH  22  30
ATOM     30  C   UNL     1       1.414  12.544  19.590  0.00  0.00    +0.000 A 
ATOM     31  N   UNL     1       1.777  12.677  20.853  0.00  0.00    +0.000 NA
ATOM     32  C   UNL     1       2.369  13.905  21.053  0.00  0.00    +0.000 A 
ATOM     33  C   UNL     1       2.515  14.682  19.925  0.00  0.00    +0.000 A 
ATOM     34  S   UNL     1       1.876  13.856  18.565  0.00  0.00    +0.000 S 
ENDBRANCH  22  30
ENDBRANCH   7  22
TORSDOF 6
ENDMDL
MODEL 5
REMARK VINA RESULT:      -8.4      1.961      2.359
REMARK  Name = 
REMARK  6 active torsions:
REMARK  status: ('A' for Active; 'I' for Inactive)
REMARK    1  A    between atoms: C_4  and  C_5
REMARK    2  A    between atoms: C_5  and  C_6
REMARK    3  A    between atoms: C_6  and  C_7
REMARK    4  A    between atoms: C_16  and  C_17
REMARK    5  A    between atoms: C_17  and  C_18
REMARK    6  A    between atoms: C_17  and  C_25
REMARK                            x       y       z     vdW  Elec       q    Type
REMARK                         _______ _______ _______ _____ _____    ______ ____
ROOT
ATOM      1  O   UNL     1       2.606   3.426  21.629  0.00  0.00    +0.000 OA
ATOM      2  C   UNL     1       2.482   4.474  21.004  0.00  0.00    +0.000 A 
ATOM      3  C   UNL     1       3.095   4.636  19.668  0.00  0.00    +0.000 A 
ATOM      4  C   UNL     1       2.993   5.764  18.936  0.00  0.00    +0.000 A 
ATOM      5  C   UNL     1       2.220   6.899  19.519  0.00  0.00    +0.000 A 
ATOM      6  C   UNL     1       2.020   8.127  18.862  0.00  0.00    +0.000 A 
ATOM      7  C   UNL     1       1.251   9.165  19.435  0.00  0.00    +0.000 A 
ATOM      8  C   UNL     1       0.701   8.964  20.709  0.00  0.00    +0.000 A 
ATOM      9  C   UNL     1       0.892   7.760  21.383  0.00  0.00    +0.000 A 
ATOM     10  C   UNL     1       1.638   6.741  20.790  0.00  0.00    +0.000 A 
ATOM     11  N   UNL     1       1.790   5.537  21.487  0.00  0.00    +0.000 N 
ATOM     12  H   UNL     1       1.369   5.416  22.398  0.00  0.00    +0.000 HD
ENDROOT
BRANCH   4  13
ATOM     13  C   UNL     1       3.634   5.900  17.563  0.00  0.00    +0.000 C 
BRANCH  13  14
ATOM     14  C   UNL     1       3.893   4.583  16.810  0.00  0.00    +0.000 C 
BRANCH  14  15
ATOM     15  C   UNL     1       5.130   4.651  15.948  0.00  0.00    +0.000 A 
ATOM     16  C   UNL     1       6.296   5.255  16.441  0.00  0.00    +0.000 A 
ATOM     17  C   UNL     1       7.455   5.303  15.664  0.00  0.00    +0.000 A 
ATOM     18  C   UNL     1       7.456   4.756  14.382  0.00  0.00    +0.000 A 
ATOM     19  C   UNL     1       6.297   4.169  13.880  0.00  0.00    +0.000 A 
ATOM     20 CL   UNL     1       6.300   3.499  12.294  0.00  0.00    +0.000 Cl
ATOM     21  C   UNL     1       5.135   4.116  14.651  0.00  0.00    +0.000 A 
ENDBRANCH  14  15
ENDBRANCH  13  14
ENDBRANCH   4  13
BRANCH   7  22
ATOM     22  C   UNL     1       0.972  10.434  18.619  0.00  0.00    +0.000 C 
BRANCH  22  23
ATOM     23  C   UNL     1      -0.523  10.616  18.314  0.00  0.00    +0.000 A 
ATOM     24  C   UNL     1      -1.252  11.689  18.862  0.00  0.00    +0.000 A 
ATOM     25  C   UNL     1      -2.581  11.915  18.506  0.00  0.00    +0.000 A 
ATOM     26  C   UNL     1      -3.203  11.066  17.598  0.00  0.00    +0.000 A 
ATOM     27 CL   UNL     1      -4.828  11.371  17.123  0.00  0.00    +0.000 Cl
ATOM     28  C   UNL     1      -2.510   9.985  17.056  0.00  0.00    +0.000 A 
ATOM     29  C   UNL     1      -1.176   9.759  17.411  0.00  0.00    +0.000 A 
ENDBRANCH  22  23
BRANCH  22  30
ATOM     30  C   UNL     1       1.573  11.710  19.209  0.00  0.00    +0.000 A 
ATOM     31  N   UNL     1       1.447  12.098  20.466  0.00  0.00    +0.000 NA
ATOM     32  C   UNL     1       1.989  13.354  20.634  0.00  0.00    +0.000 A 
ATOM     33  C   UNL     1       2.585  13.895  19.517  0.00  0.00    +0.000 A 
ATOM     34  S   UNL     1       2.453  12.803  18.202  0.00  0.00    +0.000 S 
ENDBRANCH  22  30
ENDBRANCH   7  22
TORSDOF 6
ENDMDL
MODEL 6
REMARK VINA RESULT:      -8.2      0.779      1.169
REMARK  Name = 
REMARK  6 active torsions:
REMARK  status: ('A' for Active; 'I' for Inactive)
REMARK    1  A    between atoms: C_4  and  C_5
REMARK    2  A    between atoms: C_5  and  C_6
REMARK    3  A    between atoms: C_6  and  C_7
REMARK    4  A    between atoms: C_16  and  C_17
REMARK    5  A    between atoms: C_17  and  C_18
REMARK    6  A    between atoms: C_17  and  C_25
REMARK                            x       y       z     vdW  Elec       q    Type
REMARK                         _______ _______ _______ _____ _____    ______ ____
ROOT
ATOM      1  O   UNL     1       2.655   4.278  21.182  0.00  0.00    +0.000 OA
ATOM      2  C   UNL     1       2.452   5.367  20.654  0.00  0.00    +0.000 A 
ATOM      3  C   UNL     1       2.996   5.672  19.313  0.00  0.00    +0.000 A 
ATOM      4  C   UNL     1       2.807   6.850  18.686  0.00  0.00    +0.000 A 
ATOM      5  C   UNL     1       2.007   7.891  19.395  0.00  0.00    +0.000 A 
ATOM      6  C   UNL     1       1.718   9.157  18.854  0.00  0.00    +0.000 A 
ATOM      7  C   UNL     1       0.928  10.102  19.545  0.00  0.00    +0.000 A 
ATOM      8  C   UNL     1       0.445   9.768  20.819  0.00  0.00    +0.000 A 
ATOM      9  C   UNL     1       0.725   8.523  21.378  0.00  0.00    +0.000 A 
ATOM     10  C   UNL     1       1.491   7.597  20.670  0.00  0.00    +0.000 A 
ATOM     11  N   UNL     1       1.732   6.349  21.255  0.00  0.00    +0.000 N 
ATOM     12  H   UNL     1       1.359   6.130  22.168  0.00  0.00    +0.000 HD
ENDROOT
BRANCH   4  13
ATOM     13  C   UNL     1       3.378   7.134  17.305  0.00  0.00    +0.000 C 
BRANCH  13  14
ATOM     14  C   UNL     1       4.481   6.174  16.825  0.00  0.00    +0.000 C 
BRANCH  14  15
ATOM     15  C   UNL     1       5.801   6.430  17.511  0.00  0.00    +0.000 A 
ATOM     16  C   UNL     1       6.384   5.431  18.304  0.00  0.00    +0.000 A 
ATOM     17  C   UNL     1       7.616   5.645  18.925  0.00  0.00    +0.000 A 
ATOM     18  C   UNL     1       8.273   6.864  18.767  0.00  0.00    +0.000 A 
ATOM     19  C   UNL     1       7.692   7.867  17.994  0.00  0.00    +0.000 A 
ATOM     20 CL   UNL     1       8.502   9.374  17.804  0.00  0.00    +0.000 Cl
ATOM     21  C   UNL     1       6.461   7.660  17.369  0.00  0.00    +0.000 A 
ENDBRANCH  14  15
ENDBRANCH  13  14
ENDBRANCH   4  13
BRANCH   7  22
ATOM     22  C   UNL     1       0.551  11.419  18.853  0.00  0.00    +0.000 C 
BRANCH  22  23
ATOM     23  C   UNL     1      -0.970  11.597  18.721  0.00  0.00    +0.000 A 
ATOM     24  C   UNL     1      -1.699  10.910  17.732  0.00  0.00    +0.000 A 
ATOM     25  C   UNL     1      -3.090  10.990  17.675  0.00  0.00    +0.000 A 
ATOM     26  C   UNL     1      -3.773  11.763  18.606  0.00  0.00    +0.000 A 
ATOM     27 CL   UNL     1      -5.491  11.826  18.565  0.00  0.00    +0.000 Cl
ATOM     28  C   UNL     1      -3.073  12.469  19.584  0.00  0.00    +0.000 A 
ATOM     29  C   UNL     1      -1.678  12.388  19.643  0.00  0.00    +0.000 A 
ENDBRANCH  22  23
BRANCH  22  30
ATOM     30  C   UNL     1       1.200  12.662  19.462  0.00  0.00    +0.000 A 
ATOM     31  N   UNL     1       1.755  12.719  20.660  0.00  0.00    +0.000 NA
ATOM     32  C   UNL     1       2.121  14.014  20.955  0.00  0.00    +0.000 A 
ATOM     33  C   UNL     1       1.901  14.933  19.954  0.00  0.00    +0.000 A 
ATOM     34  S   UNL     1       1.199  14.156  18.596  0.00  0.00    +0.000 S 
ENDBRANCH  22  30
ENDBRANCH   7  22
TORSDOF 6
ENDMDL
MODEL 7
REMARK VINA RESULT:      -8.2      1.832      2.330
REMARK  Name = 
REMARK  6 active torsions:
REMARK  status: ('A' for Active; 'I' for Inactive)
REMARK    1  A    between atoms: C_4  and  C_5
REMARK    2  A    between atoms: C_5  and  C_6
REMARK    3  A    between atoms: C_6  and  C_7
REMARK    4  A    between atoms: C_16  and  C_17
REMARK    5  A    between atoms: C_17  and  C_18
REMARK    6  A    between atoms: C_17  and  C_25
REMARK                            x       y       z     vdW  Elec       q    Type
REMARK                         _______ _______ _______ _____ _____    ______ ____
ROOT
ATOM      1  O   UNL     1       2.619   4.549  21.271  0.00  0.00    +0.000 OA
ATOM      2  C   UNL     1       2.350   5.594  20.687  0.00  0.00    +0.000 A 
ATOM      3  C   UNL     1       2.909   5.878  19.348  0.00  0.00    +0.000 A 
ATOM      4  C   UNL     1       2.649   7.009  18.661  0.00  0.00    +0.000 A 
ATOM      5  C   UNL     1       1.754   8.016  19.299  0.00  0.00    +0.000 A 
ATOM      6  C   UNL     1       1.386   9.231  18.692  0.00  0.00    +0.000 A 
ATOM      7  C   UNL     1       0.506  10.144  19.317  0.00  0.00    +0.000 A 
ATOM      8  C   UNL     1       0.014   9.831  20.592  0.00  0.00    +0.000 A 
ATOM      9  C   UNL     1       0.370   8.638  21.217  0.00  0.00    +0.000 A 
ATOM     10  C   UNL     1       1.224   7.742  20.573  0.00  0.00    +0.000 A 
ATOM     11  N   UNL     1       1.541   6.544  21.223  0.00  0.00    +0.000 N 
ATOM     12  H   UNL     1       1.160   6.339  22.135  0.00  0.00    +0.000 HD
ENDROOT
BRANCH   4  13
ATOM     13  C   UNL     1       3.237   7.272  17.283  0.00  0.00    +0.000 C 
BRANCH  13  14
ATOM     14  C   UNL     1       4.740   7.601  17.246  0.00  0.00    +0.000 C 
BRANCH  14  15
ATOM     15  C   UNL     1       5.576   6.412  16.838  0.00  0.00    +0.000 A 
ATOM     16  C   UNL     1       6.551   5.908  17.711  0.00  0.00    +0.000 A 
ATOM     17  C   UNL     1       7.315   4.795  17.357  0.00  0.00    +0.000 A 
ATOM     18  C   UNL     1       7.119   4.180  16.122  0.00  0.00    +0.000 A 
ATOM     19  C   UNL     1       6.163   4.686  15.243  0.00  0.00    +0.000 A 
ATOM     20 CL   UNL     1       5.926   3.928  13.715  0.00  0.00    +0.000 Cl
ATOM     21  C   UNL     1       5.394   5.798  15.590  0.00  0.00    +0.000 A 
ENDBRANCH  14  15
ENDBRANCH  13  14
ENDBRANCH   4  13
BRANCH   7  22
ATOM     22  C   UNL     1       0.052  11.395  18.554  0.00  0.00    +0.000 C 
BRANCH  22  23
ATOM     23  C   UNL     1      -1.468  11.423  18.328  0.00  0.00    +0.000 A 
ATOM     24  C   UNL     1      -2.064  10.670  17.299  0.00  0.00    +0.000 A 
ATOM     25  C   UNL     1      -3.450  10.613  17.156  0.00  0.00    +0.000 A 
ATOM     26  C   UNL     1      -4.261  11.314  18.040  0.00  0.00    +0.000 A 
ATOM     27 CL   UNL     1      -5.972  11.208  17.894  0.00  0.00    +0.000 Cl
ATOM     28  C   UNL     1      -3.696  12.084  19.056  0.00  0.00    +0.000 A 
ATOM     29  C   UNL     1      -2.306  12.139  19.201  0.00  0.00    +0.000 A 
ENDBRANCH  22  23
BRANCH  22  30
ATOM     30  C   UNL     1       0.544  12.713  19.151  0.00  0.00    +0.000 A 
ATOM     31  N   UNL     1       0.319  13.910  18.638  0.00  0.00    +0.000 NA
ATOM     32  C   UNL     1       1.014  14.869  19.343  0.00  0.00    +0.000 A 
ATOM     33  C   UNL     1       1.718  14.408  20.432  0.00  0.00    +0.000 A 
ATOM     34  S   UNL     1       1.519  12.711  20.577  0.00  0.00    +0.000 S 
ENDBRANCH  22  30
ENDBRANCH   7  22
TORSDOF 6
ENDMDL
MODEL 8
REMARK VINA RESULT:      -8.2      1.053      1.571
REMARK  Name = 
REMARK  6 active torsions:
REMARK  status: ('A' for Active; 'I' for Inactive)
REMARK    1  A    between atoms: C_4  and  C_5
REMARK    2  A    between atoms: C_5  and  C_6
REMARK    3  A    between atoms: C_6  and  C_7
REMARK    4  A    between atoms: C_16  and  C_17
REMARK    5  A    between atoms: C_17  and  C_18
REMARK    6  A    between atoms: C_17  and  C_25
REMARK                            x       y       z     vdW  Elec       q    Type
REMARK                         _______ _______ _______ _____ _____    ______ ____
ROOT
ATOM      1  O   UNL     1       2.370   3.885  21.407  0.00  0.00    +0.000 OA
ATOM      2  C   UNL     1       2.247   4.951  20.813  0.00  0.00    +0.000 A 
ATOM      3  C   UNL     1       2.841   5.144  19.472  0.00  0.00    +0.000 A 
ATOM      4  C   UNL     1       2.738   6.293  18.774  0.00  0.00    +0.000 A 
ATOM      5  C   UNL     1       1.986   7.418  19.399  0.00  0.00    +0.000 A 
ATOM      6  C   UNL     1       1.787   8.665  18.779  0.00  0.00    +0.000 A 
ATOM      7  C   UNL     1       1.037   9.694  19.392  0.00  0.00    +0.000 A 
ATOM      8  C   UNL     1       0.504   9.464  20.669  0.00  0.00    +0.000 A 
ATOM      9  C   UNL     1       0.695   8.240  21.306  0.00  0.00    +0.000 A 
ATOM     10  C   UNL     1       1.421   7.231  20.674  0.00  0.00    +0.000 A 
ATOM     11  N   UNL     1       1.572   6.007  21.336  0.00  0.00    +0.000 N 
ATOM     12  H   UNL     1       1.165   5.864  22.249  0.00  0.00    +0.000 HD
ENDROOT
BRANCH   4  13
ATOM     13  C   UNL     1       3.359   6.461  17.395  0.00  0.00    +0.000 C 
BRANCH  13  14
ATOM     14  C   UNL     1       4.529   5.516  17.066  0.00  0.00    +0.000 C 
BRANCH  14  15
ATOM     15  C   UNL     1       5.844   6.024  17.606  0.00  0.00    +0.000 A 
ATOM     16  C   UNL     1       6.450   7.150  17.029  0.00  0.00    +0.000 A 
ATOM     17  C   UNL     1       7.653   7.646  17.533  0.00  0.00    +0.000 A 
ATOM     18  C   UNL     1       8.269   7.014  18.612  0.00  0.00    +0.000 A 
ATOM     19  C   UNL     1       7.682   5.885  19.178  0.00  0.00    +0.000 A 
ATOM     20 CL   UNL     1       8.447   5.103  20.507  0.00  0.00    +0.000 Cl
ATOM     21  C   UNL     1       6.478   5.384  18.681  0.00  0.00    +0.000 A 
ENDBRANCH  14  15
ENDBRANCH  13  14
ENDBRANCH   4  13
BRANCH   7  22
ATOM     22  C   UNL     1       0.758  10.988  18.616  0.00  0.00    +0.000 C 
BRANCH  22  23
ATOM     23  C   UNL     1      -0.742  11.203  18.358  0.00  0.00    +0.000 A 
ATOM     24  C   UNL     1      -1.387  10.593  17.265  0.00  0.00    +0.000 A 
ATOM     25  C   UNL     1      -2.765  10.703  17.087  0.00  0.00    +0.000 A 
ATOM     26  C   UNL     1      -3.520  11.431  17.999  0.00  0.00    +0.000 A 
ATOM     27 CL   UNL     1      -5.226  11.529  17.806  0.00  0.00    +0.000 Cl
ATOM     28  C   UNL     1      -2.904  12.061  19.079  0.00  0.00    +0.000 A 
ATOM     29  C   UNL     1      -1.521  11.949  19.260  0.00  0.00    +0.000 A 
ENDBRANCH  22  23
BRANCH  22  30
ATOM     30  C   UNL     1       1.397  12.238  19.219  0.00  0.00    +0.000 A 
ATOM     31  N   UNL     1       1.250  12.639  20.470  0.00  0.00    +0.000 NA
ATOM     32  C   UNL     1       1.844  13.869  20.650  0.00  0.00    +0.000 A 
ATOM     33  C   UNL     1       2.499  14.376  19.550  0.00  0.00    +0.000 A 
ATOM     34  S   UNL     1       2.358  13.284  18.236  0.00  0.00    +0.000 S 
ENDBRANCH  22  30
ENDBRANCH   7  22
TORSDOF 6
ENDMDL
MODEL 9
REMARK VINA RESULT:      -8.2      3.234      8.483
REMARK  Name = 
REMARK  6 active torsions:
REMARK  status: ('A' for Active; 'I' for Inactive)
REMARK    1  A    between atoms: C_4  and  C_5
REMARK    2  A    between atoms: C_5  and  C_6
REMARK    3  A    between atoms: C_6  and  C_7
REMARK    4  A    between atoms: C_16  and  C_17
REMARK    5  A    between atoms: C_17  and  C_18
REMARK    6  A    between atoms: C_17  and  C_25
REMARK                            x       y       z     vdW  Elec       q    Type
REMARK                         _______ _______ _______ _____ _____    ______ ____
ROOT
ATOM      1  O   UNL     1       1.133   2.725  21.793  0.00  0.00    +0.000 OA
ATOM      2  C   UNL     1       1.719   3.423  20.973  0.00  0.00    +0.000 A 
ATOM      3  C   UNL     1       1.545   4.892  20.966  0.00  0.00    +0.000 A 
ATOM      4  C   UNL     1       2.163   5.708  20.089  0.00  0.00    +0.000 A 
ATOM      5  C   UNL     1       3.064   5.082  19.078  0.00  0.00    +0.000 A 
ATOM      6  C   UNL     1       3.784   5.813  18.115  0.00  0.00    +0.000 A 
ATOM      7  C   UNL     1       4.654   5.184  17.196  0.00  0.00    +0.000 A 
ATOM      8  C   UNL     1       4.775   3.787  17.238  0.00  0.00    +0.000 A 
ATOM      9  C   UNL     1       4.067   3.042  18.178  0.00  0.00    +0.000 A 
ATOM     10  C   UNL     1       3.228   3.686  19.088  0.00  0.00    +0.000 A 
ATOM     11  N   UNL     1       2.551   2.905  20.032  0.00  0.00    +0.000 N 
ATOM     12  H   UNL     1       2.668   1.902  20.048  0.00  0.00    +0.000 HD
ENDROOT
BRANCH   4  13
ATOM     13  C   UNL     1       1.965   7.216  20.108  0.00  0.00    +0.000 C 
BRANCH  13  14
ATOM     14  C   UNL     1       1.241   7.782  21.342  0.00  0.00    +0.000 C 
BRANCH  14  15
ATOM     15  C   UNL     1       0.605   9.124  21.068  0.00  0.00    +0.000 A 
ATOM     16  C   UNL     1       0.695   9.693  19.789  0.00  0.00    +0.000 A 
ATOM     17  C   UNL     1       0.092  10.922  19.514  0.00  0.00    +0.000 A 
ATOM     18  C   UNL     1      -0.599  11.598  20.517  0.00  0.00    +0.000 A 
ATOM     19  C   UNL     1      -0.678  11.046  21.794  0.00  0.00    +0.000 A 
ATOM     20 CL   UNL     1      -1.528  11.885  23.034  0.00  0.00    +0.000 Cl
ATOM     21  C   UNL     1      -0.079   9.817  22.077  0.00  0.00    +0.000 A 
ENDBRANCH  14  15
ENDBRANCH  13  14
ENDBRANCH   4  13
BRANCH   7  22
ATOM     22  C   UNL     1       5.499   6.046  16.248  0.00  0.00    +0.000 C 
BRANCH  22  23
ATOM     23  C   UNL     1       6.537   6.896  16.998  0.00  0.00    +0.000 A 
ATOM     24  C   UNL     1       6.602   8.290  16.817  0.00  0.00    +0.000 A 
ATOM     25  C   UNL     1       7.473   9.077  17.570  0.00  0.00    +0.000 A 
ATOM     26  C   UNL     1       8.296   8.477  18.516  0.00  0.00    +0.000 A 
ATOM     27 CL   UNL     1       9.337   9.450  19.479  0.00  0.00    +0.000 Cl
ATOM     28  C   UNL     1       8.265   7.095  18.701  0.00  0.00    +0.000 A 
ATOM     29  C   UNL     1       7.390   6.307  17.947  0.00  0.00    +0.000 A 
ENDBRANCH  22  23
BRANCH  22  30
ATOM     30  C   UNL     1       6.147   5.273  15.100  0.00  0.00    +0.000 A 
ATOM     31  N   UNL     1       7.388   5.439  14.677  0.00  0.00    +0.000 NA
ATOM     32  C   UNL     1       7.610   4.688  13.543  0.00  0.00    +0.000 A 
ATOM     33  C   UNL     1       6.556   3.899  13.140  0.00  0.00    +0.000 A 
ATOM     34  S   UNL     1       5.231   4.112  14.207  0.00  0.00    +0.000 S 
ENDBRANCH  22  30
ENDBRANCH   7  22
TORSDOF 6
ENDMDL
