MODEL 1
REMARK VINA RESULT:      -6.2      0.000      0.000
REMARK  Name = 
REMARK  10 active torsions:
REMARK  status: ('A' for Active; 'I' for Inactive)
REMARK    1  A    between atoms: C_1  and  C_2
REMARK    2  A    between atoms: C_2  and  O_4
REMARK    3  A    between atoms: O_4  and  C_5
REMARK    4  A    between atoms: C_7  and  C_8
REMARK    5  A    between atoms: C_8  and  C_9
REMARK    6  A    between atoms: C_9  and  C_10
REMARK    7  A    between atoms: C_10  and  C_11
REMARK    8  A    between atoms: C_10  and  C_12
REMARK    9  A    between atoms: C_13  and  C_14
REMARK   10  A    between atoms: C_28  and  C_29
REMARK                            x       y       z     vdW  Elec       q    Type
REMARK                         _______ _______ _______ _____ _____    ______ ____
ROOT
ATOM      1  C   UNL     1      -0.561  11.766  20.577  0.00  0.00    +0.000 C 
ATOM      2  O   UNL     1       0.769  11.486  20.050  0.00  0.00    +0.000 OA
ATOM      3  C   UNL     1       0.863  10.909  18.725  0.00  0.00    +0.000 C 
ATOM      4  C   UNL     1      -0.509  10.451  18.249  0.00  0.00    +0.000 C 
ATOM      5  C   UNL     1      -0.999   9.250  19.119  0.00  0.00    +0.000 C 
ATOM      6  C   UNL     1      -1.248  11.849  18.180  0.00  0.00    +0.000 C 
ATOM      7  C   UNL     1      -2.636  11.750  17.569  0.00  0.00    +0.000 C 
ATOM      8  C   UNL     1      -3.543  11.613  18.786  0.00  0.00    +0.000 C 
ATOM      9  C   UNL     1      -2.954  12.716  19.648  0.00  0.00    +0.000 C 
ATOM     10  C   UNL     1      -3.458  13.157  21.015  0.00  0.00    +0.000 C 
ATOM     11  C   UNL     1      -4.934  12.877  21.248  0.00  0.00    +0.000 C 
ATOM     12  C   UNL     1      -5.300  13.275  22.670  0.00  0.00    +0.000 C 
ATOM     13  C   UNL     1      -4.992  14.710  22.991  0.00  0.00    +0.000 C 
ATOM     14  C   UNL     1      -5.914  15.394  23.711  0.00  0.00    +0.000 C 
ATOM     15  C   UNL     1      -6.600  16.381  22.797  0.00  0.00    +0.000 C 
ATOM     16  O   UNL     1      -7.807  16.590  22.838  0.00  0.00    +0.000 OA
ATOM     17  C   UNL     1      -5.680  17.180  21.940  0.00  0.00    +0.000 C 
ATOM     18  C   UNL     1      -4.396  16.788  21.778  0.00  0.00    +0.000 C 
ATOM     19  C   UNL     1      -3.820  15.449  22.306  0.00  0.00    +0.000 C 
ATOM     20  C   UNL     1      -2.755  15.706  23.388  0.00  0.00    +0.000 C 
ATOM     21  C   UNL     1      -3.175  14.687  21.064  0.00  0.00    +0.000 C 
ATOM     22  C   UNL     1      -1.635  14.917  20.795  0.00  0.00    +0.000 C 
ATOM     23  C   UNL     1      -0.981  14.114  19.610  0.00  0.00    +0.000 C 
ATOM     24  C   UNL     1      -1.397  12.613  19.560  0.00  0.00    +0.000 C 
ENDROOT
BRANCH   1  25
ATOM     25  O   UNL     1      -0.399  12.251  21.917  0.00  0.00    +0.000 OA
BRANCH  25  27
ATOM     26  C   UNL     1      -2.117  11.506  23.402  0.00  0.00    +0.000 C 
ATOM     27  C   UNL     1      -0.754  11.306  22.834  0.00  0.00    +0.000 C 
ATOM     28  O   UNL     1      -0.050  10.362  23.219  0.00  0.00    +0.000 OA
ENDBRANCH  25  27
ENDBRANCH   1  25
BRANCH   3  29
ATOM     29  C   UNL     1       2.012   9.897  18.675  0.00  0.00    +0.000 C 
BRANCH  29  30
ATOM     30  C   UNL     1       1.951   8.814  17.584  0.00  0.00    +0.000 C 
BRANCH  30  31
ATOM     31  C   UNL     1       2.352   7.427  18.150  0.00  0.00    +0.000 C 
ATOM     32  C   UNL     1       3.768   7.023  17.724  0.00  0.00    +0.000 C 
ATOM     33  C   UNL     1       2.245   7.355  19.677  0.00  0.00    +0.000 C 
ENDBRANCH  30  31
ENDBRANCH  29  30
ENDBRANCH   3  29
TORSDOF 5
ENDMDL
MODEL 2
REMARK VINA RESULT:      -6.1      2.702      4.606
REMARK  Name = 
REMARK  10 active torsions:
REMARK  status: ('A' for Active; 'I' for Inactive)
REMARK    1  A    between atoms: C_1  and  C_2
REMARK    2  A    between atoms: C_2  and  O_4
REMARK    3  A    between atoms: O_4  and  C_5
REMARK    4  A    between atoms: C_7  and  C_8
REMARK    5  A    between atoms: C_8  and  C_9
REMARK    6  A    between atoms: C_9  and  C_10
REMARK    7  A    between atoms: C_10  and  C_11
REMARK    8  A    between atoms: C_10  and  C_12
REMARK    9  A    between atoms: C_13  and  C_14
REMARK   10  A    between atoms: C_28  and  C_29
REMARK                            x       y       z     vdW  Elec       q    Type
REMARK                         _______ _______ _______ _____ _____    ______ ____
ROOT
ATOM      1  C   UNL     1      -0.248  13.957  19.745  0.00  0.00    +0.000 C 
ATOM      2  O   UNL     1       0.705  14.041  18.646  0.00  0.00    +0.000 OA
ATOM      3  C   UNL     1       1.774  13.064  18.603  0.00  0.00    +0.000 C 
ATOM      4  C   UNL     1       1.836  12.291  19.914  0.00  0.00    +0.000 C 
ATOM      5  C   UNL     1       2.277  13.243  21.071  0.00  0.00    +0.000 C 
ATOM      6  C   UNL     1       0.433  11.560  19.859  0.00  0.00    +0.000 C 
ATOM      7  C   UNL     1       0.250  10.556  20.985  0.00  0.00    +0.000 C 
ATOM      8  C   UNL     1      -0.490  11.358  22.049  0.00  0.00    +0.000 C 
ATOM      9  C   UNL     1      -1.541  12.009  21.168  0.00  0.00    +0.000 C 
ATOM     10  C   UNL     1      -2.671  12.918  21.635  0.00  0.00    +0.000 C 
ATOM     11  C   UNL     1      -3.092  12.685  23.077  0.00  0.00    +0.000 C 
ATOM     12  C   UNL     1      -4.157  13.703  23.457  0.00  0.00    +0.000 C 
ATOM     13  C   UNL     1      -5.361  13.678  22.558  0.00  0.00    +0.000 C 
ATOM     14  C   UNL     1      -6.576  13.792  23.149  0.00  0.00    +0.000 C 
ATOM     15  C   UNL     1      -7.264  12.450  23.094  0.00  0.00    +0.000 C 
ATOM     16  O   UNL     1      -7.908  11.998  24.034  0.00  0.00    +0.000 OA
ATOM     17  C   UNL     1      -7.216  11.779  21.765  0.00  0.00    +0.000 C 
ATOM     18  C   UNL     1      -6.342  12.203  20.825  0.00  0.00    +0.000 C 
ATOM     19  C   UNL     1      -5.242  13.267  21.073  0.00  0.00    +0.000 C 
ATOM     20  C   UNL     1      -5.509  14.530  20.233  0.00  0.00    +0.000 C 
ATOM     21  C   UNL     1      -3.847  12.614  20.663  0.00  0.00    +0.000 C 
ATOM     22  C   UNL     1      -3.345  12.851  19.184  0.00  0.00    +0.000 C 
ATOM     23  C   UNL     1      -1.938  12.263  18.796  0.00  0.00    +0.000 C 
ATOM     24  C   UNL     1      -0.834  12.510  19.868  0.00  0.00    +0.000 C 
ENDROOT
BRANCH   1  25
ATOM     25  O   UNL     1      -1.152  15.064  19.615  0.00  0.00    +0.000 OA
BRANCH  25  27
ATOM     26  C   UNL     1      -2.454  16.545  20.965  0.00  0.00    +0.000 C 
ATOM     27  C   UNL     1      -1.166  15.829  20.744  0.00  0.00    +0.000 C 
ATOM     28  O   UNL     1      -0.225  15.977  21.537  0.00  0.00    +0.000 OA
ENDBRANCH  25  27
ENDBRANCH   1  25
BRANCH   3  29
ATOM     29  C   UNL     1       3.062  13.721  18.098  0.00  0.00    +0.000 C 
BRANCH  29  30
ATOM     30  C   UNL     1       3.041  15.246  17.890  0.00  0.00    +0.000 C 
BRANCH  30  31
ATOM     31  C   UNL     1       3.600  15.989  19.130  0.00  0.00    +0.000 C 
ATOM     32  C   UNL     1       4.945  16.662  18.837  0.00  0.00    +0.000 C 
ATOM     33  C   UNL     1       2.625  17.032  19.687  0.00  0.00    +0.000 C 
ENDBRANCH  30  31
ENDBRANCH  29  30
ENDBRANCH   3  29
TORSDOF 5
ENDMDL
MODEL 3
REMARK VINA RESULT:      -6.0      1.398      1.542
REMARK  Name = 
REMARK  10 active torsions:
REMARK  status: ('A' for Active; 'I' for Inactive)
REMARK    1  A    between atoms: C_1  and  C_2
REMARK    2  A    between atoms: C_2  and  O_4
REMARK    3  A    between atoms: O_4  and  C_5
REMARK    4  A    between atoms: C_7  and  C_8
REMARK    5  A    between atoms: C_8  and  C_9
REMARK    6  A    between atoms: C_9  and  C_10
REMARK    7  A    between atoms: C_10  and  C_11
REMARK    8  A    between atoms: C_10  and  C_12
REMARK    9  A    between atoms: C_13  and  C_14
REMARK   10  A    between atoms: C_28  and  C_29
REMARK                            x       y       z     vdW  Elec       q    Type
REMARK                         _______ _______ _______ _____ _____    ______ ____
ROOT
ATOM      1  C   UNL     1      -0.017  11.249  20.407  0.00  0.00    +0.000 C 
ATOM      2  O   UNL     1       1.102  10.815  19.580  0.00  0.00    +0.000 OA
ATOM      3  C   UNL     1       0.822  10.435  18.210  0.00  0.00    +0.000 C 
ATOM      4  C   UNL     1      -0.680  10.306  17.994  0.00  0.00    +0.000 C 
ATOM      5  C   UNL     1      -1.232   9.097  18.814  0.00  0.00    +0.000 C 
ATOM      6  C   UNL     1      -1.113  11.809  18.238  0.00  0.00    +0.000 C 
ATOM      7  C   UNL     1      -2.583  12.053  17.933  0.00  0.00    +0.000 C 
ATOM      8  C   UNL     1      -3.250  11.902  19.294  0.00  0.00    +0.000 C 
ATOM      9  C   UNL     1      -2.293  12.741  20.123  0.00  0.00    +0.000 C 
ATOM     10  C   UNL     1      -2.427  13.057  21.607  0.00  0.00    +0.000 C 
ATOM     11  C   UNL     1      -3.857  13.016  22.119  0.00  0.00    +0.000 C 
ATOM     12  C   UNL     1      -3.857  13.258  23.622  0.00  0.00    +0.000 C 
ATOM     13  C   UNL     1      -3.204  14.550  24.023  0.00  0.00    +0.000 C 
ATOM     14  C   UNL     1      -3.812  15.274  24.994  0.00  0.00    +0.000 C 
ATOM     15  C   UNL     1      -4.440  16.493  24.362  0.00  0.00    +0.000 C 
ATOM     16  O   UNL     1      -5.548  16.907  24.683  0.00  0.00    +0.000 OA
ATOM     17  C   UNL     1      -3.555  17.231  23.418  0.00  0.00    +0.000 C 
ATOM     18  C   UNL     1      -2.434  16.644  22.942  0.00  0.00    +0.000 C 
ATOM     19  C   UNL     1      -2.057  15.159  23.185  0.00  0.00    +0.000 C 
ATOM     20  C   UNL     1      -0.776  15.058  24.035  0.00  0.00    +0.000 C 
ATOM     21  C   UNL     1      -1.830  14.487  21.759  0.00  0.00    +0.000 C 
ATOM     22  C   UNL     1      -0.356  14.474  21.191  0.00  0.00    +0.000 C 
ATOM     23  C   UNL     1      -0.119  13.751  19.814  0.00  0.00    +0.000 C 
ATOM     24  C   UNL     1      -0.838  12.374  19.692  0.00  0.00    +0.000 C 
ENDROOT
BRANCH   1  25
ATOM     25  O   UNL     1       0.494  11.493  21.725  0.00  0.00    +0.000 OA
BRANCH  25  27
ATOM     26  C   UNL     1      -0.909  10.187  23.154  0.00  0.00    +0.000 C 
ATOM     27  C   UNL     1       0.419  10.374  22.502  0.00  0.00    +0.000 C 
ATOM     28  O   UNL     1       1.334   9.564  22.706  0.00  0.00    +0.000 OA
ENDBRANCH  25  27
ENDBRANCH   1  25
BRANCH   3  29
ATOM     29  C   UNL     1       1.707   9.252  17.805  0.00  0.00    +0.000 C 
BRANCH  29  30
ATOM     30  C   UNL     1       2.118   8.266  18.913  0.00  0.00    +0.000 C 
BRANCH  30  31
ATOM     31  C   UNL     1       2.488   6.882  18.323  0.00  0.00    +0.000 C 
ATOM     32  C   UNL     1       3.855   6.902  17.630  0.00  0.00    +0.000 C 
ATOM     33  C   UNL     1       2.471   5.765  19.372  0.00  0.00    +0.000 C 
ENDBRANCH  30  31
ENDBRANCH  29  30
ENDBRANCH   3  29
TORSDOF 5
ENDMDL
MODEL 4
REMARK VINA RESULT:      -6.0      1.828      3.354
REMARK  Name = 
REMARK  10 active torsions:
REMARK  status: ('A' for Active; 'I' for Inactive)
REMARK    1  A    between atoms: C_1  and  C_2
REMARK    2  A    between atoms: C_2  and  O_4
REMARK    3  A    between atoms: O_4  and  C_5
REMARK    4  A    between atoms: C_7  and  C_8
REMARK    5  A    between atoms: C_8  and  C_9
REMARK    6  A    between atoms: C_9  and  C_10
REMARK    7  A    between atoms: C_10  and  C_11
REMARK    8  A    between atoms: C_10  and  C_12
REMARK    9  A    between atoms: C_13  and  C_14
REMARK   10  A    between atoms: C_28  and  C_29
REMARK                            x       y       z     vdW  Elec       q    Type
REMARK                         _______ _______ _______ _____ _____    ______ ____
ROOT
ATOM      1  C   UNL     1      -0.826  11.370  19.694  0.00  0.00    +0.000 C 
ATOM      2  O   UNL     1      -0.245  10.089  19.314  0.00  0.00    +0.000 OA
ATOM      3  C   UNL     1       1.179  10.044  19.051  0.00  0.00    +0.000 C 
ATOM      4  C   UNL     1       1.744  11.455  18.962  0.00  0.00    +0.000 C 
ATOM      5  C   UNL     1       1.177  12.176  17.698  0.00  0.00    +0.000 C 
ATOM      6  C   UNL     1       1.482  11.940  20.447  0.00  0.00    +0.000 C 
ATOM      7  C   UNL     1       2.096  13.301  20.736  0.00  0.00    +0.000 C 
ATOM      8  C   UNL     1       0.942  14.263  20.483  0.00  0.00    +0.000 C 
ATOM      9  C   UNL     1      -0.152  13.527  21.238  0.00  0.00    +0.000 C 
ATOM     10  C   UNL     1      -1.586  14.000  21.433  0.00  0.00    +0.000 C 
ATOM     11  C   UNL     1      -1.751  15.510  21.371  0.00  0.00    +0.000 C 
ATOM     12  C   UNL     1      -3.227  15.857  21.489  0.00  0.00    +0.000 C 
ATOM     13  C   UNL     1      -3.874  15.320  22.735  0.00  0.00    +0.000 C 
ATOM     14  C   UNL     1      -4.736  16.138  23.385  0.00  0.00    +0.000 C 
ATOM     15  C   UNL     1      -4.080  16.610  24.660  0.00  0.00    +0.000 C 
ATOM     16  O   UNL     1      -4.171  17.764  25.063  0.00  0.00    +0.000 OA
ATOM     17  C   UNL     1      -3.430  15.534  25.461  0.00  0.00    +0.000 C 
ATOM     18  C   UNL     1      -3.177  14.331  24.898  0.00  0.00    +0.000 C 
ATOM     19  C   UNL     1      -3.377  14.013  23.393  0.00  0.00    +0.000 C 
ATOM     20  C   UNL     1      -4.486  12.962  23.204  0.00  0.00    +0.000 C 
ATOM     21  C   UNL     1      -1.989  13.461  22.837  0.00  0.00    +0.000 C 
ATOM     22  C   UNL     1      -1.777  11.896  22.848  0.00  0.00    +0.000 C 
ATOM     23  C   UNL     1      -0.436  11.344  22.238  0.00  0.00    +0.000 C 
ATOM     24  C   UNL     1      -0.038  12.009  20.886  0.00  0.00    +0.000 C 
ENDROOT
BRANCH   1  25
ATOM     25  O   UNL     1      -2.243  11.178  19.822  0.00  0.00    +0.000 OA
BRANCH  25  27
ATOM     26  C   UNL     1      -4.264  12.240  19.116  0.00  0.00    +0.000 C 
ATOM     27  C   UNL     1      -2.914  11.716  18.764  0.00  0.00    +0.000 C 
ATOM     28  O   UNL     1      -2.508  11.774  17.594  0.00  0.00    +0.000 OA
ENDBRANCH  25  27
ENDBRANCH   1  25
BRANCH   3  29
ATOM     29  C   UNL     1       1.466   9.084  17.892  0.00  0.00    +0.000 C 
BRANCH  29  30
ATOM     30  C   UNL     1       2.784   8.292  17.943  0.00  0.00    +0.000 C 
BRANCH  30  31
ATOM     31  C   UNL     1       2.528   6.797  18.265  0.00  0.00    +0.000 C 
ATOM     32  C   UNL     1       3.646   5.896  17.728  0.00  0.00    +0.000 C 
ATOM     33  C   UNL     1       2.345   6.535  19.764  0.00  0.00    +0.000 C 
ENDBRANCH  30  31
ENDBRANCH  29  30
ENDBRANCH   3  29
TORSDOF 5
ENDMDL
MODEL 5
REMARK VINA RESULT:      -5.9      3.364      4.740
REMARK  Name = 
REMARK  10 active torsions:
REMARK  status: ('A' for Active; 'I' for Inactive)
REMARK    1  A    between atoms: C_1  and  C_2
REMARK    2  A    between atoms: C_2  and  O_4
REMARK    3  A    between atoms: O_4  and  C_5
REMARK    4  A    between atoms: C_7  and  C_8
REMARK    5  A    between atoms: C_8  and  C_9
REMARK    6  A    between atoms: C_9  and  C_10
REMARK    7  A    between atoms: C_10  and  C_11
REMARK    8  A    between atoms: C_10  and  C_12
REMARK    9  A    between atoms: C_13  and  C_14
REMARK   10  A    between atoms: C_28  and  C_29
REMARK                            x       y       z     vdW  Elec       q    Type
REMARK                         _______ _______ _______ _____ _____    ______ ____
ROOT
ATOM      1  C   UNL     1      -0.331  15.722  21.325  0.00  0.00    +0.000 C 
ATOM      2  O   UNL     1       0.481  16.714  20.634  0.00  0.00    +0.000 OA
ATOM      3  C   UNL     1       1.219  16.287  19.462  0.00  0.00    +0.000 C 
ATOM      4  C   UNL     1       1.201  14.768  19.352  0.00  0.00    +0.000 C 
ATOM      5  C   UNL     1       2.016  14.141  20.527  0.00  0.00    +0.000 C 
ATOM      6  C   UNL     1      -0.350  14.536  19.131  0.00  0.00    +0.000 C 
ATOM      7  C   UNL     1      -0.687  13.086  18.819  0.00  0.00    +0.000 C 
ATOM      8  C   UNL     1      -1.049  12.512  20.183  0.00  0.00    +0.000 C 
ATOM      9  C   UNL     1      -1.962  13.623  20.674  0.00  0.00    +0.000 C 
ATOM     10  C   UNL     1      -2.730  13.642  21.989  0.00  0.00    +0.000 C 
ATOM     11  C   UNL     1      -3.042  12.261  22.541  0.00  0.00    +0.000 C 
ATOM     12  C   UNL     1      -3.727  12.405  23.892  0.00  0.00    +0.000 C 
ATOM     13  C   UNL     1      -4.978  13.235  23.846  0.00  0.00    +0.000 C 
ATOM     14  C   UNL     1      -6.039  12.794  24.565  0.00  0.00    +0.000 C 
ATOM     15  C   UNL     1      -7.081  12.268  23.608  0.00  0.00    +0.000 C 
ATOM     16  O   UNL     1      -7.721  11.245  23.825  0.00  0.00    +0.000 OA
ATOM     17  C   UNL     1      -7.370  13.159  22.450  0.00  0.00    +0.000 C 
ATOM     18  C   UNL     1      -6.519  14.162  22.140  0.00  0.00    +0.000 C 
ATOM     19  C   UNL     1      -5.141  14.379  22.820  0.00  0.00    +0.000 C 
ATOM     20  C   UNL     1      -5.129  15.701  23.611  0.00  0.00    +0.000 C 
ATOM     21  C   UNL     1      -4.043  14.414  21.666  0.00  0.00    +0.000 C 
ATOM     22  C   UNL     1      -3.656  15.828  21.078  0.00  0.00    +0.000 C 
ATOM     23  C   UNL     1      -2.524  15.871  19.986  0.00  0.00    +0.000 C 
ATOM     24  C   UNL     1      -1.287  14.987  20.325  0.00  0.00    +0.000 C 
ENDROOT
BRANCH   1  25
ATOM     25  O   UNL     1      -0.893  16.358  22.482  0.00  0.00    +0.000 OA
BRANCH  25  27
ATOM     26  C   UNL     1      -1.150  15.421  24.666  0.00  0.00    +0.000 C 
ATOM     27  C   UNL     1      -0.245  15.978  23.621  0.00  0.00    +0.000 C 
ATOM     28  O   UNL     1       0.971  16.081  23.838  0.00  0.00    +0.000 OA
ENDBRANCH  25  27
ENDBRANCH   1  25
BRANCH   3  29
ATOM     29  C   UNL     1       2.578  16.992  19.414  0.00  0.00    +0.000 C 
BRANCH  29  30
ATOM     30  C   UNL     1       3.526  16.617  18.261  0.00  0.00    +0.000 C 
BRANCH  30  31
ATOM     31  C   UNL     1       4.805  15.921  18.792  0.00  0.00    +0.000 C 
ATOM     32  C   UNL     1       5.310  14.840  17.829  0.00  0.00    +0.000 C 
ATOM     33  C   UNL     1       5.941  16.907  19.083  0.00  0.00    +0.000 C 
ENDBRANCH  30  31
ENDBRANCH  29  30
ENDBRANCH   3  29
TORSDOF 5
ENDMDL
MODEL 6
REMARK VINA RESULT:      -5.9      1.800      3.294
REMARK  Name = 
REMARK  10 active torsions:
REMARK  status: ('A' for Active; 'I' for Inactive)
REMARK    1  A    between atoms: C_1  and  C_2
REMARK    2  A    between atoms: C_2  and  O_4
REMARK    3  A    between atoms: O_4  and  C_5
REMARK    4  A    between atoms: C_7  and  C_8
REMARK    5  A    between atoms: C_8  and  C_9
REMARK    6  A    between atoms: C_9  and  C_10
REMARK    7  A    between atoms: C_10  and  C_11
REMARK    8  A    between atoms: C_10  and  C_12
REMARK    9  A    between atoms: C_13  and  C_14
REMARK   10  A    between atoms: C_28  and  C_29
REMARK                            x       y       z     vdW  Elec       q    Type
REMARK                         _______ _______ _______ _____ _____    ______ ____
ROOT
ATOM      1  C   UNL     1       0.816  11.342  20.104  0.00  0.00    +0.000 C 
ATOM      2  O   UNL     1       1.259  10.448  19.042  0.00  0.00    +0.000 OA
ATOM      3  C   UNL     1       1.243   9.024  19.307  0.00  0.00    +0.000 C 
ATOM      4  C   UNL     1       1.013   8.765  20.790  0.00  0.00    +0.000 C 
ATOM      5  C   UNL     1       2.244   9.261  21.613  0.00  0.00    +0.000 C 
ATOM      6  C   UNL     1      -0.447   9.360  20.941  0.00  0.00    +0.000 C 
ATOM      7  C   UNL     1      -1.045   9.106  22.315  0.00  0.00    +0.000 C 
ATOM      8  C   UNL     1      -0.716  10.382  23.080  0.00  0.00    +0.000 C 
ATOM      9  C   UNL     1      -1.127  11.401  22.031  0.00  0.00    +0.000 C 
ATOM     10  C   UNL     1      -1.106  12.915  22.190  0.00  0.00    +0.000 C 
ATOM     11  C   UNL     1      -1.233  13.386  23.630  0.00  0.00    +0.000 C 
ATOM     12  C   UNL     1      -1.110  14.901  23.673  0.00  0.00    +0.000 C 
ATOM     13  C   UNL     1      -2.114  15.611  22.809  0.00  0.00    +0.000 C 
ATOM     14  C   UNL     1      -2.697  16.722  23.324  0.00  0.00    +0.000 C 
ATOM     15  C   UNL     1      -4.130  16.396  23.667  0.00  0.00    +0.000 C 
ATOM     16  O   UNL     1      -4.671  16.795  24.692  0.00  0.00    +0.000 OA
ATOM     17  C   UNL     1      -4.876  15.670  22.602  0.00  0.00    +0.000 C 
ATOM     18  C   UNL     1      -4.204  15.080  21.588  0.00  0.00    +0.000 C 
ATOM     19  C   UNL     1      -2.659  14.961  21.518  0.00  0.00    +0.000 C 
ATOM     20  C   UNL     1      -2.106  15.775  20.334  0.00  0.00    +0.000 C 
ATOM     21  C   UNL     1      -2.310  13.416  21.340  0.00  0.00    +0.000 C 
ATOM     22  C   UNL     1      -2.134  12.880  19.864  0.00  0.00    +0.000 C 
ATOM     23  C   UNL     1      -1.724  11.371  19.688  0.00  0.00    +0.000 C 
ATOM     24  C   UNL     1      -0.587  10.911  20.649  0.00  0.00    +0.000 C 
ENDROOT
BRANCH   1  25
ATOM     25  O   UNL     1       0.997  12.686  19.637  0.00  0.00    +0.000 OA
BRANCH  25  27
ATOM     26  C   UNL     1       1.474  14.899  20.405  0.00  0.00    +0.000 C 
ATOM     27  C   UNL     1       1.707  13.432  20.531  0.00  0.00    +0.000 C 
ATOM     28  O   UNL     1       2.504  12.997  21.374  0.00  0.00    +0.000 OA
ENDBRANCH  25  27
ENDBRANCH   1  25
BRANCH   3  29
ATOM     29  C   UNL     1       2.450   8.355  18.643  0.00  0.00    +0.000 C 
BRANCH  29  30
ATOM     30  C   UNL     1       2.383   6.833  18.427  0.00  0.00    +0.000 C 
BRANCH  30  31
ATOM     31  C   UNL     1       2.995   6.068  19.628  0.00  0.00    +0.000 C 
ATOM     32  C   UNL     1       1.945   5.236  20.373  0.00  0.00    +0.000 C 
ATOM     33  C   UNL     1       4.162   5.161  19.222  0.00  0.00    +0.000 C 
ENDBRANCH  30  31
ENDBRANCH  29  30
ENDBRANCH   3  29
TORSDOF 5
ENDMDL
MODEL 7
REMARK VINA RESULT:      -5.8      3.485      5.021
REMARK  Name = 
REMARK  10 active torsions:
REMARK  status: ('A' for Active; 'I' for Inactive)
REMARK    1  A    between atoms: C_1  and  C_2
REMARK    2  A    between atoms: C_2  and  O_4
REMARK    3  A    between atoms: O_4  and  C_5
REMARK    4  A    between atoms: C_7  and  C_8
REMARK    5  A    between atoms: C_8  and  C_9
REMARK    6  A    between atoms: C_9  and  C_10
REMARK    7  A    between atoms: C_10  and  C_11
REMARK    8  A    between atoms: C_10  and  C_12
REMARK    9  A    between atoms: C_13  and  C_14
REMARK   10  A    between atoms: C_28  and  C_29
REMARK                            x       y       z     vdW  Elec       q    Type
REMARK                         _______ _______ _______ _____ _____    ______ ____
ROOT
ATOM      1  C   UNL     1      -0.588  15.945  21.931  0.00  0.00    +0.000 C 
ATOM      2  O   UNL     1       0.241  16.965  21.301  0.00  0.00    +0.000 OA
ATOM      3  C   UNL     1       1.167  16.541  20.271  0.00  0.00    +0.000 C 
ATOM      4  C   UNL     1       1.274  15.022  20.250  0.00  0.00    +0.000 C 
ATOM      5  C   UNL     1       1.957  14.520  21.562  0.00  0.00    +0.000 C 
ATOM      6  C   UNL     1      -0.208  14.656  19.830  0.00  0.00    +0.000 C 
ATOM      7  C   UNL     1      -0.391  13.171  19.561  0.00  0.00    +0.000 C 
ATOM      8  C   UNL     1      -0.902  12.637  20.894  0.00  0.00    +0.000 C 
ATOM      9  C   UNL     1      -1.954  13.693  21.186  0.00  0.00    +0.000 C 
ATOM     10  C   UNL     1      -2.901  13.716  22.379  0.00  0.00    +0.000 C 
ATOM     11  C   UNL     1      -3.187  12.342  22.964  0.00  0.00    +0.000 C 
ATOM     12  C   UNL     1      -4.066  12.496  24.196  0.00  0.00    +0.000 C 
ATOM     13  C   UNL     1      -5.355  13.221  23.928  0.00  0.00    +0.000 C 
ATOM     14  C   UNL     1      -6.473  12.732  24.517  0.00  0.00    +0.000 C 
ATOM     15  C   UNL     1      -7.327  12.078  23.459  0.00  0.00    +0.000 C 
ATOM     16  O   UNL     1      -7.916  11.019  23.645  0.00  0.00    +0.000 OA
ATOM     17  C   UNL     1      -7.511  12.886  22.220  0.00  0.00    +0.000 C 
ATOM     18  C   UNL     1      -6.699  13.938  21.973  0.00  0.00    +0.000 C 
ATOM     19  C   UNL     1      -5.452  14.297  22.823  0.00  0.00    +0.000 C 
ATOM     20  C   UNL     1      -5.649  15.652  23.528  0.00  0.00    +0.000 C 
ATOM     21  C   UNL     1      -4.206  14.363  21.832  0.00  0.00    +0.000 C 
ATOM     22  C   UNL     1      -3.843  15.773  21.220  0.00  0.00    +0.000 C 
ATOM     23  C   UNL     1      -2.573  15.854  20.295  0.00  0.00    +0.000 C 
ATOM     24  C   UNL     1      -1.336  15.089  20.854  0.00  0.00    +0.000 C 
ENDROOT
BRANCH   1  25
ATOM     25  O   UNL     1      -1.353  16.590  22.960  0.00  0.00    +0.000 OA
BRANCH  25  27
ATOM     26  C   UNL     1      -2.112  15.905  25.121  0.00  0.00    +0.000 C 
ATOM     27  C   UNL     1      -0.970  16.171  24.200  0.00  0.00    +0.000 C 
ATOM     28  O   UNL     1       0.196  16.027  24.594  0.00  0.00    +0.000 OA
ENDBRANCH  25  27
ENDBRANCH   1  25
BRANCH   3  29
ATOM     29  C   UNL     1       2.464  17.349  20.369  0.00  0.00    +0.000 C 
BRANCH  29  30
ATOM     30  C   UNL     1       3.582  17.014  19.366  0.00  0.00    +0.000 C 
BRANCH  30  31
ATOM     31  C   UNL     1       3.011  16.314  18.106  0.00  0.00    +0.000 C 
ATOM     32  C   UNL     1       2.654  17.319  17.005  0.00  0.00    +0.000 C 
ATOM     33  C   UNL     1       3.961  15.256  17.533  0.00  0.00    +0.000 C 
ENDBRANCH  30  31
ENDBRANCH  29  30
ENDBRANCH   3  29
TORSDOF 5
ENDMDL
MODEL 8
REMARK VINA RESULT:      -5.8      4.356      7.620
REMARK  Name = 
REMARK  10 active torsions:
REMARK  status: ('A' for Active; 'I' for Inactive)
REMARK    1  A    between atoms: C_1  and  C_2
REMARK    2  A    between atoms: C_2  and  O_4
REMARK    3  A    between atoms: O_4  and  C_5
REMARK    4  A    between atoms: C_7  and  C_8
REMARK    5  A    between atoms: C_8  and  C_9
REMARK    6  A    between atoms: C_9  and  C_10
REMARK    7  A    between atoms: C_10  and  C_11
REMARK    8  A    between atoms: C_10  and  C_12
REMARK    9  A    between atoms: C_13  and  C_14
REMARK   10  A    between atoms: C_28  and  C_29
REMARK                            x       y       z     vdW  Elec       q    Type
REMARK                         _______ _______ _______ _____ _____    ______ ____
ROOT
ATOM      1  C   UNL     1       0.661  12.391  19.283  0.00  0.00    +0.000 C 
ATOM      2  O   UNL     1      -0.466  11.930  18.483  0.00  0.00    +0.000 OA
ATOM      3  C   UNL     1      -1.801  12.221  18.966  0.00  0.00    +0.000 C 
ATOM      4  C   UNL     1      -1.744  12.732  20.399  0.00  0.00    +0.000 C 
ATOM      5  C   UNL     1      -1.267  11.590  21.352  0.00  0.00    +0.000 C 
ATOM      6  C   UNL     1      -0.945  14.080  20.170  0.00  0.00    +0.000 C 
ATOM      7  C   UNL     1      -0.857  14.931  21.427  0.00  0.00    +0.000 C 
ATOM      8  C   UNL     1       0.486  14.530  22.024  0.00  0.00    +0.000 C 
ATOM      9  C   UNL     1       1.335  14.591  20.766  0.00  0.00    +0.000 C 
ATOM     10  C   UNL     1       2.836  14.351  20.680  0.00  0.00    +0.000 C 
ATOM     11  C   UNL     1       3.581  14.636  21.974  0.00  0.00    +0.000 C 
ATOM     12  C   UNL     1       5.049  14.278  21.796  0.00  0.00    +0.000 C 
ATOM     13  C   UNL     1       5.709  14.996  20.652  0.00  0.00    +0.000 C 
ATOM     14  C   UNL     1       6.962  15.468  20.860  0.00  0.00    +0.000 C 
ATOM     15  C   UNL     1       6.897  16.971  20.970  0.00  0.00    +0.000 C 
ATOM     16  O   UNL     1       7.549  17.603  21.794  0.00  0.00    +0.000 OA
ATOM     17  C   UNL     1       6.087  17.639  19.913  0.00  0.00    +0.000 C 
ATOM     18  C   UNL     1       5.235  16.913  19.155  0.00  0.00    +0.000 C 
ATOM     19  C   UNL     1       4.904  15.418  19.403  0.00  0.00    +0.000 C 
ATOM     20  C   UNL     1       5.402  14.552  18.231  0.00  0.00    +0.000 C 
ATOM     21  C   UNL     1       3.321  15.300  19.546  0.00  0.00    +0.000 C 
ATOM     22  C   UNL     1       2.499  14.972  18.237  0.00  0.00    +0.000 C 
ATOM     23  C   UNL     1       0.944  14.788  18.388  0.00  0.00    +0.000 C 
ATOM     24  C   UNL     1       0.528  13.916  19.611  0.00  0.00    +0.000 C 
ENDROOT
BRANCH   1  25
ATOM     25  O   UNL     1       1.859  11.920  18.648  0.00  0.00    +0.000 OA
BRANCH  25  27
ATOM     26  C   UNL     1       1.269   9.797  19.575  0.00  0.00    +0.000 C 
ATOM     27  C   UNL     1       1.806  10.576  18.423  0.00  0.00    +0.000 C 
ATOM     28  O   UNL     1       2.174   9.993  17.393  0.00  0.00    +0.000 OA
ENDBRANCH  25  27
ENDBRANCH   1  25
BRANCH   3  29
ATOM     29  C   UNL     1      -2.734  11.045  18.663  0.00  0.00    +0.000 C 
BRANCH  29  30
ATOM     30  C   UNL     1      -2.453  10.233  17.386  0.00  0.00    +0.000 C 
BRANCH  30  31
ATOM     31  C   UNL     1      -3.038  10.937  16.135  0.00  0.00    +0.000 C 
ATOM     32  C   UNL     1      -3.002  10.030  14.899  0.00  0.00    +0.000 C 
ATOM     33  C   UNL     1      -4.470  11.438  16.350  0.00  0.00    +0.000 C 
ENDBRANCH  30  31
ENDBRANCH  29  30
ENDBRANCH   3  29
TORSDOF 5
ENDMDL
MODEL 9
REMARK VINA RESULT:      -5.8      1.446      1.777
REMARK  Name = 
REMARK  10 active torsions:
REMARK  status: ('A' for Active; 'I' for Inactive)
REMARK    1  A    between atoms: C_1  and  C_2
REMARK    2  A    between atoms: C_2  and  O_4
REMARK    3  A    between atoms: O_4  and  C_5
REMARK    4  A    between atoms: C_7  and  C_8
REMARK    5  A    between atoms: C_8  and  C_9
REMARK    6  A    between atoms: C_9  and  C_10
REMARK    7  A    between atoms: C_10  and  C_11
REMARK    8  A    between atoms: C_10  and  C_12
REMARK    9  A    between atoms: C_13  and  C_14
REMARK   10  A    between atoms: C_28  and  C_29
REMARK                            x       y       z     vdW  Elec       q    Type
REMARK                         _______ _______ _______ _____ _____    ______ ____
ROOT
ATOM      1  C   UNL     1      -0.174  11.026  21.101  0.00  0.00    +0.000 C 
ATOM      2  O   UNL     1       1.035  10.302  20.729  0.00  0.00    +0.000 OA
ATOM      3  C   UNL     1       1.263  10.046  19.321  0.00  0.00    +0.000 C 
ATOM      4  C   UNL     1       0.010  10.365  18.517  0.00  0.00    +0.000 C 
ATOM      5  C   UNL     1      -1.124   9.353  18.877  0.00  0.00    +0.000 C 
ATOM      6  C   UNL     1      -0.083  11.924  18.776  0.00  0.00    +0.000 C 
ATOM      7  C   UNL     1      -1.175  12.591  17.954  0.00  0.00    +0.000 C 
ATOM      8  C   UNL     1      -2.363  12.614  18.908  0.00  0.00    +0.000 C 
ATOM      9  C   UNL     1      -1.658  13.122  20.154  0.00  0.00    +0.000 C 
ATOM     10  C   UNL     1      -2.311  13.434  21.494  0.00  0.00    +0.000 C 
ATOM     11  C   UNL     1      -3.782  13.801  21.392  0.00  0.00    +0.000 C 
ATOM     12  C   UNL     1      -4.346  14.003  22.791  0.00  0.00    +0.000 C 
ATOM     13  C   UNL     1      -3.611  15.041  23.591  0.00  0.00    +0.000 C 
ATOM     14  C   UNL     1      -4.359  15.892  24.334  0.00  0.00    +0.000 C 
ATOM     15  C   UNL     1      -4.331  17.252  23.682  0.00  0.00    +0.000 C 
ATOM     16  O   UNL     1      -5.324  17.965  23.596  0.00  0.00    +0.000 OA
ATOM     17  C   UNL     1      -2.976  17.719  23.274  0.00  0.00    +0.000 C 
ATOM     18  C   UNL     1      -1.951  16.841  23.201  0.00  0.00    +0.000 C 
ATOM     19  C   UNL     1      -2.105  15.306  23.365  0.00  0.00    +0.000 C 
ATOM     20  C   UNL     1      -1.368  14.819  24.627  0.00  0.00    +0.000 C 
ATOM     21  C   UNL     1      -1.486  14.625  22.064  0.00  0.00    +0.000 C 
ATOM     22  C   UNL     1       0.032  14.194  22.127  0.00  0.00    +0.000 C 
ATOM     23  C   UNL     1       0.627  13.461  20.868  0.00  0.00    +0.000 C 
ATOM     24  C   UNL     1      -0.303  12.355  20.284  0.00  0.00    +0.000 C 
ENDROOT
BRANCH   1  25
ATOM     25  O   UNL     1      -0.215  11.085  22.534  0.00  0.00    +0.000 OA
BRANCH  25  27
ATOM     26  C   UNL     1      -0.731   8.759  22.339  0.00  0.00    +0.000 C 
ATOM     27  C   UNL     1      -0.043   9.850  23.087  0.00  0.00    +0.000 C 
ATOM     28  O   UNL     1       0.590   9.595  24.121  0.00  0.00    +0.000 OA
ENDBRANCH  25  27
ENDBRANCH   1  25
BRANCH   3  29
ATOM     29  C   UNL     1       1.899   8.665  19.138  0.00  0.00    +0.000 C 
BRANCH  29  30
ATOM     30  C   UNL     1       2.514   8.349  17.763  0.00  0.00    +0.000 C 
BRANCH  30  31
ATOM     31  C   UNL     1       3.084   6.908  17.722  0.00  0.00    +0.000 C 
ATOM     32  C   UNL     1       4.545   6.883  17.261  0.00  0.00    +0.000 C 
ATOM     33  C   UNL     1       2.968   6.185  19.068  0.00  0.00    +0.000 C 
ENDBRANCH  30  31
ENDBRANCH  29  30
ENDBRANCH   3  29
TORSDOF 5
ENDMDL
