MODEL 1
REMARK VINA RESULT:      -6.5      0.000      0.000
REMARK  Name = 
REMARK  7 active torsions:
REMARK  status: ('A' for Active; 'I' for Inactive)
REMARK    1  A    between atoms: C_1  and  O_2
REMARK    2  A    between atoms: O_2  and  C_3
REMARK    3  A    between atoms: C_7  and  C_8
REMARK    4  A    between atoms: C_8  and  N_9
REMARK    5  A    between atoms: C_10  and  C_12
REMARK    6  A    between atoms: C_12  and  N_13
REMARK    7  A    between atoms: C_16  and  C_17
REMARK                            x       y       z     vdW  Elec       q    Type
REMARK                         _______ _______ _______ _____ _____    ______ ____
ROOT
ATOM      1  N   UNL     1       5.771   4.534  18.665  0.00  0.00    +0.000 N 
ATOM      2  C   UNL     1       6.818   5.337  19.066  0.00  0.00    +0.000 C 
ATOM      3  O   UNL     1       7.297   5.298  20.197  0.00  0.00    +0.000 OA
ATOM      4  H   UNL     1       5.373   4.634  17.742  0.00  0.00    +0.000 HD
ENDROOT
BRANCH   1   5
ATOM      5  C   UNL     1       5.193   3.536  19.539  0.00  0.00    +0.000 C 
BRANCH   5  10
ATOM      6  C   UNL     1       1.807   5.136  20.291  0.00  0.00    +0.000 A 
ATOM      7  C   UNL     1       0.964   4.028  20.201  0.00  0.00    +0.000 A 
ATOM      8  C   UNL     1       1.476   2.776  19.863  0.00  0.00    +0.000 A 
ATOM      9  C   UNL     1       2.840   2.622  19.626  0.00  0.00    +0.000 A 
ATOM     10  C   UNL     1       3.707   3.717  19.733  0.00  0.00    +0.000 A 
ATOM     11  C   UNL     1       3.176   4.979  20.048  0.00  0.00    +0.000 A 
BRANCH   6  13
ATOM     12  C   UNL     1       1.954   7.495  20.516  0.00  0.00    +0.000 C 
ATOM     13  O   UNL     1       1.185   6.306  20.638  0.00  0.00    +0.000 OA
ENDBRANCH   6  13
ENDBRANCH   5  10
ENDBRANCH   1   5
BRANCH   2  14
ATOM     14  C   UNL     1       7.321   6.302  18.018  0.00  0.00    +0.000 C 
BRANCH  14  15
ATOM     15  N   UNL     1       6.706   6.059  16.731  0.00  0.00    +0.000 N 
ATOM     16  C   UNL     1       5.569   6.611  16.225  0.00  0.00    +0.000 A 
ATOM     17  N   UNL     1       5.285   6.056  15.068  0.00  0.00    +0.000 NA
ATOM     18  C   UNL     1       6.298   5.145  14.908  0.00  0.00    +0.000 A 
ATOM     19  N   UNL     1       7.186   5.098  15.913  0.00  0.00    +0.000 NA
BRANCH  18  20
ATOM     20  C   UNL     1       6.387   4.277  13.767  0.00  0.00    +0.000 C 
ATOM     21  N   UNL     1       6.458   3.565  12.852  0.00  0.00    +0.000 NA
ENDBRANCH  18  20
ENDBRANCH  14  15
ENDBRANCH   2  14
TORSDOF 6
ENDMDL
MODEL 2
REMARK VINA RESULT:      -6.5      3.191      6.883
REMARK  Name = 
REMARK  7 active torsions:
REMARK  status: ('A' for Active; 'I' for Inactive)
REMARK    1  A    between atoms: C_1  and  O_2
REMARK    2  A    between atoms: O_2  and  C_3
REMARK    3  A    between atoms: C_7  and  C_8
REMARK    4  A    between atoms: C_8  and  N_9
REMARK    5  A    between atoms: C_10  and  C_12
REMARK    6  A    between atoms: C_12  and  N_13
REMARK    7  A    between atoms: C_16  and  C_17
REMARK                            x       y       z     vdW  Elec       q    Type
REMARK                         _______ _______ _______ _____ _____    ______ ____
ROOT
ATOM      1  N   UNL     1       5.379   5.119  16.637  0.00  0.00    +0.000 N 
ATOM      2  C   UNL     1       5.323   6.411  17.118  0.00  0.00    +0.000 C 
ATOM      3  O   UNL     1       6.316   7.123  17.244  0.00  0.00    +0.000 OA
ATOM      4  H   UNL     1       4.546   4.550  16.598  0.00  0.00    +0.000 HD
ENDROOT
BRANCH   1   5
ATOM      5  C   UNL     1       6.619   4.525  16.186  0.00  0.00    +0.000 C 
BRANCH   5  10
ATOM      6  C   UNL     1       6.057   3.488  12.552  0.00  0.00    +0.000 A 
ATOM      7  C   UNL     1       7.005   4.277  11.901  0.00  0.00    +0.000 A 
ATOM      8  C   UNL     1       7.797   5.170  12.623  0.00  0.00    +0.000 A 
ATOM      9  C   UNL     1       7.656   5.266  14.006  0.00  0.00    +0.000 A 
ATOM     10  C   UNL     1       6.726   4.466  14.682  0.00  0.00    +0.000 A 
ATOM     11  C   UNL     1       5.914   3.590  13.941  0.00  0.00    +0.000 A 
BRANCH   6  13
ATOM     12  C   UNL     1       4.119   3.146  11.225  0.00  0.00    +0.000 C 
ATOM     13  O   UNL     1       5.348   2.648  11.736  0.00  0.00    +0.000 OA
ENDBRANCH   6  13
ENDBRANCH   5  10
ENDBRANCH   1   5
BRANCH   2  14
ATOM     14  C   UNL     1       3.944   6.884  17.516  0.00  0.00    +0.000 C 
BRANCH  14  15
ATOM     15  N   UNL     1       3.255   5.900  18.322  0.00  0.00    +0.000 N 
ATOM     16  C   UNL     1       3.429   5.622  19.643  0.00  0.00    +0.000 A 
ATOM     17  N   UNL     1       2.688   4.591  19.980  0.00  0.00    +0.000 NA
ATOM     18  C   UNL     1       2.067   4.262  18.802  0.00  0.00    +0.000 A 
ATOM     19  N   UNL     1       2.397   5.027  17.751  0.00  0.00    +0.000 NA
BRANCH  18  20
ATOM     20  C   UNL     1       1.156   3.156  18.688  0.00  0.00    +0.000 C 
ATOM     21  N   UNL     1       0.423   2.262  18.584  0.00  0.00    +0.000 NA
ENDBRANCH  18  20
ENDBRANCH  14  15
ENDBRANCH   2  14
TORSDOF 6
ENDMDL
MODEL 3
REMARK VINA RESULT:      -6.4      3.444      6.456
REMARK  Name = 
REMARK  7 active torsions:
REMARK  status: ('A' for Active; 'I' for Inactive)
REMARK    1  A    between atoms: C_1  and  O_2
REMARK    2  A    between atoms: O_2  and  C_3
REMARK    3  A    between atoms: C_7  and  C_8
REMARK    4  A    between atoms: C_8  and  N_9
REMARK    5  A    between atoms: C_10  and  C_12
REMARK    6  A    between atoms: C_12  and  N_13
REMARK    7  A    between atoms: C_16  and  C_17
REMARK                            x       y       z     vdW  Elec       q    Type
REMARK                         _______ _______ _______ _____ _____    ______ ____
ROOT
ATOM      1  N   UNL     1       2.459   4.724  18.556  0.00  0.00    +0.000 N 
ATOM      2  C   UNL     1       1.381   4.058  18.014  0.00  0.00    +0.000 C 
ATOM      3  O   UNL     1       0.859   4.380  16.950  0.00  0.00    +0.000 OA
ATOM      4  H   UNL     1       2.826   4.458  19.459  0.00  0.00    +0.000 HD
ENDROOT
BRANCH   1   5
ATOM      5  C   UNL     1       3.099   5.828  17.872  0.00  0.00    +0.000 C 
BRANCH   5  10
ATOM      6  C   UNL     1       6.771   6.860  17.668  0.00  0.00    +0.000 A 
ATOM      7  C   UNL     1       7.342   5.994  18.601  0.00  0.00    +0.000 A 
ATOM      8  C   UNL     1       6.545   5.105  19.322  0.00  0.00    +0.000 A 
ATOM      9  C   UNL     1       5.169   5.068  19.103  0.00  0.00    +0.000 A 
ATOM     10  C   UNL     1       4.579   5.914  18.155  0.00  0.00    +0.000 A 
ATOM     11  C   UNL     1       5.388   6.824  17.454  0.00  0.00    +0.000 A 
BRANCH   6  13
ATOM     12  C   UNL     1       8.168   8.777  17.763  0.00  0.00    +0.000 C 
ATOM     13  O   UNL     1       7.659   7.676  17.022  0.00  0.00    +0.000 OA
ENDBRANCH   6  13
ENDBRANCH   5  10
ENDBRANCH   1   5
BRANCH   2  14
ATOM     14  C   UNL     1       0.856   2.910  18.845  0.00  0.00    +0.000 C 
BRANCH  14  15
ATOM     15  N   UNL     1       1.714   2.636  19.977  0.00  0.00    +0.000 N 
ATOM     16  C   UNL     1       1.535   3.002  21.277  0.00  0.00    +0.000 A 
ATOM     17  N   UNL     1       2.586   2.654  21.983  0.00  0.00    +0.000 NA
ATOM     18  C   UNL     1       3.403   2.069  21.050  0.00  0.00    +0.000 A 
ATOM     19  N   UNL     1       2.918   2.051  19.799  0.00  0.00    +0.000 NA
BRANCH  18  20
ATOM     20  C   UNL     1       4.701   1.545  21.374  0.00  0.00    +0.000 C 
ATOM     21  N   UNL     1       5.748   1.112  21.629  0.00  0.00    +0.000 NA
ENDBRANCH  18  20
ENDBRANCH  14  15
ENDBRANCH   2  14
TORSDOF 6
ENDMDL
MODEL 4
REMARK VINA RESULT:      -6.4      1.874      3.119
REMARK  Name = 
REMARK  7 active torsions:
REMARK  status: ('A' for Active; 'I' for Inactive)
REMARK    1  A    between atoms: C_1  and  O_2
REMARK    2  A    between atoms: O_2  and  C_3
REMARK    3  A    between atoms: C_7  and  C_8
REMARK    4  A    between atoms: C_8  and  N_9
REMARK    5  A    between atoms: C_10  and  C_12
REMARK    6  A    between atoms: C_12  and  N_13
REMARK    7  A    between atoms: C_16  and  C_17
REMARK                            x       y       z     vdW  Elec       q    Type
REMARK                         _______ _______ _______ _____ _____    ______ ____
ROOT
ATOM      1  N   UNL     1       3.566   5.450  17.449  0.00  0.00    +0.000 N 
ATOM      2  C   UNL     1       3.891   6.781  17.606  0.00  0.00    +0.000 C 
ATOM      3  O   UNL     1       3.114   7.610  18.073  0.00  0.00    +0.000 OA
ATOM      4  H   UNL     1       4.216   4.811  17.013  0.00  0.00    +0.000 HD
ENDROOT
BRANCH   1   5
ATOM      5  C   UNL     1       2.292   4.917  17.881  0.00  0.00    +0.000 C 
BRANCH   5  10
ATOM      6  C   UNL     1       3.672   2.726  20.690  0.00  0.00    +0.000 A 
ATOM      7  C   UNL     1       2.543   2.584  21.495  0.00  0.00    +0.000 A 
ATOM      8  C   UNL     1       1.349   3.222  21.159  0.00  0.00    +0.000 A 
ATOM      9  C   UNL     1       1.275   3.996  20.002  0.00  0.00    +0.000 A 
ATOM     10  C   UNL     1       2.391   4.133  19.167  0.00  0.00    +0.000 A 
ATOM     11  C   UNL     1       3.596   3.508  19.531  0.00  0.00    +0.000 A 
BRANCH   6  13
ATOM     12  C   UNL     1       5.063   0.814  20.474  0.00  0.00    +0.000 C 
ATOM     13  O   UNL     1       4.778   2.046  21.123  0.00  0.00    +0.000 OA
ENDBRANCH   6  13
ENDBRANCH   5  10
ENDBRANCH   1   5
BRANCH   2  14
ATOM     14  C   UNL     1       5.273   7.162  17.130  0.00  0.00    +0.000 C 
BRANCH  14  15
ATOM     15  N   UNL     1       5.913   6.072  16.426  0.00  0.00    +0.000 N 
ATOM     16  C   UNL     1       7.033   5.383  16.780  0.00  0.00    +0.000 A 
ATOM     17  N   UNL     1       7.353   4.538  15.826  0.00  0.00    +0.000 NA
ATOM     18  C   UNL     1       6.379   4.754  14.885  0.00  0.00    +0.000 A 
ATOM     19  N   UNL     1       5.482   5.701  15.200  0.00  0.00    +0.000 NA
BRANCH  18  20
ATOM     20  C   UNL     1       6.338   4.049  13.634  0.00  0.00    +0.000 C 
ATOM     21  N   UNL     1       6.293   3.479  12.623  0.00  0.00    +0.000 NA
ENDBRANCH  18  20
ENDBRANCH  14  15
ENDBRANCH   2  14
TORSDOF 6
ENDMDL
MODEL 5
REMARK VINA RESULT:      -6.4      1.734      2.287
REMARK  Name = 
REMARK  7 active torsions:
REMARK  status: ('A' for Active; 'I' for Inactive)
REMARK    1  A    between atoms: C_1  and  O_2
REMARK    2  A    between atoms: O_2  and  C_3
REMARK    3  A    between atoms: C_7  and  C_8
REMARK    4  A    between atoms: C_8  and  N_9
REMARK    5  A    between atoms: C_10  and  C_12
REMARK    6  A    between atoms: C_12  and  N_13
REMARK    7  A    between atoms: C_16  and  C_17
REMARK                            x       y       z     vdW  Elec       q    Type
REMARK                         _______ _______ _______ _____ _____    ______ ____
ROOT
ATOM      1  N   UNL     1       5.051   5.505  17.187  0.00  0.00    +0.000 N 
ATOM      2  C   UNL     1       6.143   5.191  17.969  0.00  0.00    +0.000 C 
ATOM      3  O   UNL     1       6.224   5.492  19.158  0.00  0.00    +0.000 OA
ATOM      4  H   UNL     1       5.047   5.284  16.201  0.00  0.00    +0.000 HD
ENDROOT
BRANCH   1   5
ATOM      5  C   UNL     1       3.885   6.167  17.731  0.00  0.00    +0.000 C 
BRANCH   5  10
ATOM      6  C   UNL     1       2.043   4.087  20.351  0.00  0.00    +0.000 A 
ATOM      7  C   UNL     1       1.181   3.345  19.544  0.00  0.00    +0.000 A 
ATOM      8  C   UNL     1       1.163   3.540  18.163  0.00  0.00    +0.000 A 
ATOM      9  C   UNL     1       2.022   4.469  17.579  0.00  0.00    +0.000 A 
ATOM     10  C   UNL     1       2.912   5.208  18.370  0.00  0.00    +0.000 A 
ATOM     11  C   UNL     1       2.900   5.023  19.763  0.00  0.00    +0.000 A 
BRANCH   6  13
ATOM     12  C   UNL     1       1.485   2.509  22.035  0.00  0.00    +0.000 C 
ATOM     13  O   UNL     1       1.970   3.799  21.688  0.00  0.00    +0.000 OA
ENDBRANCH   6  13
ENDBRANCH   5  10
ENDBRANCH   1   5
BRANCH   2  14
ATOM     14  C   UNL     1       7.259   4.472  17.249  0.00  0.00    +0.000 C 
BRANCH  14  15
ATOM     15  N   UNL     1       7.100   4.543  15.813  0.00  0.00    +0.000 N 
ATOM     16  C   UNL     1       7.626   5.458  14.952  0.00  0.00    +0.000 A 
ATOM     17  N   UNL     1       7.164   5.243  13.741  0.00  0.00    +0.000 NA
ATOM     18  C   UNL     1       6.336   4.164  13.916  0.00  0.00    +0.000 A 
ATOM     19  N   UNL     1       6.250   3.709  15.175  0.00  0.00    +0.000 NA
BRANCH  18  20
ATOM     20  C   UNL     1       5.584   3.580  12.840  0.00  0.00    +0.000 C 
ATOM     21  N   UNL     1       4.966   3.109  11.976  0.00  0.00    +0.000 NA
ENDBRANCH  18  20
ENDBRANCH  14  15
ENDBRANCH   2  14
TORSDOF 6
ENDMDL
MODEL 6
REMARK VINA RESULT:      -6.4      3.365      6.651
REMARK  Name = 
REMARK  7 active torsions:
REMARK  status: ('A' for Active; 'I' for Inactive)
REMARK    1  A    between atoms: C_1  and  O_2
REMARK    2  A    between atoms: O_2  and  C_3
REMARK    3  A    between atoms: C_7  and  C_8
REMARK    4  A    between atoms: C_8  and  N_9
REMARK    5  A    between atoms: C_10  and  C_12
REMARK    6  A    between atoms: C_12  and  N_13
REMARK    7  A    between atoms: C_16  and  C_17
REMARK                            x       y       z     vdW  Elec       q    Type
REMARK                         _______ _______ _______ _____ _____    ______ ____
ROOT
ATOM      1  N   UNL     1       2.524   4.899  18.826  0.00  0.00    +0.000 N 
ATOM      2  C   UNL     1       1.502   4.227  18.188  0.00  0.00    +0.000 C 
ATOM      3  O   UNL     1       1.066   4.558  17.089  0.00  0.00    +0.000 OA
ATOM      4  H   UNL     1       2.817   4.625  19.753  0.00  0.00    +0.000 HD
ENDROOT
BRANCH   1   5
ATOM      5  C   UNL     1       3.204   6.018  18.210  0.00  0.00    +0.000 C 
BRANCH   5  10
ATOM      6  C   UNL     1       6.229   5.395  15.963  0.00  0.00    +0.000 A 
ATOM      7  C   UNL     1       7.161   4.934  16.894  0.00  0.00    +0.000 A 
ATOM      8  C   UNL     1       6.831   4.860  18.247  0.00  0.00    +0.000 A 
ATOM      9  C   UNL     1       5.558   5.232  18.676  0.00  0.00    +0.000 A 
ATOM     10  C   UNL     1       4.601   5.676  17.754  0.00  0.00    +0.000 A 
ATOM     11  C   UNL     1       4.954   5.773  16.397  0.00  0.00    +0.000 A 
BRANCH   6  13
ATOM     12  C   UNL     1       6.510   4.214  13.923  0.00  0.00    +0.000 C 
ATOM     13  O   UNL     1       6.671   5.414  14.668  0.00  0.00    +0.000 OA
ENDBRANCH   6  13
ENDBRANCH   5  10
ENDBRANCH   1   5
BRANCH   2  14
ATOM     14  C   UNL     1       0.924   3.063  18.960  0.00  0.00    +0.000 C 
BRANCH  14  15
ATOM     15  N   UNL     1       1.765   2.694  20.077  0.00  0.00    +0.000 N 
ATOM     16  C   UNL     1       1.566   2.947  21.400  0.00  0.00    +0.000 A 
ATOM     17  N   UNL     1       2.608   2.541  22.090  0.00  0.00    +0.000 NA
ATOM     18  C   UNL     1       3.441   2.040  21.122  0.00  0.00    +0.000 A 
ATOM     19  N   UNL     1       2.974   2.129  19.868  0.00  0.00    +0.000 NA
BRANCH  18  20
ATOM     20  C   UNL     1       4.735   1.493  21.420  0.00  0.00    +0.000 C 
ATOM     21  N   UNL     1       5.778   1.039  21.657  0.00  0.00    +0.000 NA
ENDBRANCH  18  20
ENDBRANCH  14  15
ENDBRANCH   2  14
TORSDOF 6
ENDMDL
MODEL 7
REMARK VINA RESULT:      -6.3      2.427      4.229
REMARK  Name = 
REMARK  7 active torsions:
REMARK  status: ('A' for Active; 'I' for Inactive)
REMARK    1  A    between atoms: C_1  and  O_2
REMARK    2  A    between atoms: O_2  and  C_3
REMARK    3  A    between atoms: C_7  and  C_8
REMARK    4  A    between atoms: C_8  and  N_9
REMARK    5  A    between atoms: C_10  and  C_12
REMARK    6  A    between atoms: C_12  and  N_13
REMARK    7  A    between atoms: C_16  and  C_17
REMARK                            x       y       z     vdW  Elec       q    Type
REMARK                         _______ _______ _______ _____ _____    ______ ____
ROOT
ATOM      1  N   UNL     1       4.037   5.361  19.566  0.00  0.00    +0.000 N 
ATOM      2  C   UNL     1       4.311   4.277  18.758  0.00  0.00    +0.000 C 
ATOM      3  O   UNL     1       3.442   3.523  18.329  0.00  0.00    +0.000 OA
ATOM      4  H   UNL     1       4.787   5.925  19.939  0.00  0.00    +0.000 HD
ENDROOT
BRANCH   1   5
ATOM      5  C   UNL     1       2.682   5.726  19.922  0.00  0.00    +0.000 C 
BRANCH   5  10
ATOM      6  C   UNL     1       1.186   9.240  19.836  0.00  0.00    +0.000 A 
ATOM      7  C   UNL     1       1.513   9.636  18.539  0.00  0.00    +0.000 A 
ATOM      8  C   UNL     1       2.245   8.791  17.705  0.00  0.00    +0.000 A 
ATOM      9  C   UNL     1       2.643   7.536  18.160  0.00  0.00    +0.000 A 
ATOM     10  C   UNL     1       2.306   7.110  19.452  0.00  0.00    +0.000 A 
ATOM     11  C   UNL     1       1.592   7.980  20.292  0.00  0.00    +0.000 A 
BRANCH   6  13
ATOM     12  C   UNL     1       0.963  11.482  20.583  0.00  0.00    +0.000 C 
ATOM     13  O   UNL     1       0.460  10.153  20.551  0.00  0.00    +0.000 OA
ENDBRANCH   6  13
ENDBRANCH   5  10
ENDBRANCH   1   5
BRANCH   2  14
ATOM     14  C   UNL     1       5.776   4.058  18.460  0.00  0.00    +0.000 C 
BRANCH  14  15
ATOM     15  N   UNL     1       6.358   5.195  17.780  0.00  0.00    +0.000 N 
ATOM     16  C   UNL     1       6.705   5.304  16.468  0.00  0.00    +0.000 A 
ATOM     17  N   UNL     1       7.298   6.458  16.262  0.00  0.00    +0.000 NA
ATOM     18  C   UNL     1       7.296   7.031  17.508  0.00  0.00    +0.000 A 
ATOM     19  N   UNL     1       6.745   6.285  18.477  0.00  0.00    +0.000 NA
BRANCH  18  20
ATOM     20  C   UNL     1       7.872   8.321  17.770  0.00  0.00    +0.000 C 
ATOM     21  N   UNL     1       8.328   9.367  17.986  0.00  0.00    +0.000 NA
ENDBRANCH  18  20
ENDBRANCH  14  15
ENDBRANCH   2  14
TORSDOF 6
ENDMDL
MODEL 8
REMARK VINA RESULT:      -6.3      2.564      4.677
REMARK  Name = 
REMARK  7 active torsions:
REMARK  status: ('A' for Active; 'I' for Inactive)
REMARK    1  A    between atoms: C_1  and  O_2
REMARK    2  A    between atoms: O_2  and  C_3
REMARK    3  A    between atoms: C_7  and  C_8
REMARK    4  A    between atoms: C_8  and  N_9
REMARK    5  A    between atoms: C_10  and  C_12
REMARK    6  A    between atoms: C_12  and  N_13
REMARK    7  A    between atoms: C_16  and  C_17
REMARK                            x       y       z     vdW  Elec       q    Type
REMARK                         _______ _______ _______ _____ _____    ______ ____
ROOT
ATOM      1  N   UNL     1       2.698   5.433  20.513  0.00  0.00    +0.000 N 
ATOM      2  C   UNL     1       2.302   4.115  20.603  0.00  0.00    +0.000 C 
ATOM      3  O   UNL     1       1.204   3.773  21.033  0.00  0.00    +0.000 OA
ATOM      4  H   UNL     1       3.630   5.669  20.201  0.00  0.00    +0.000 HD
ENDROOT
BRANCH   1   5
ATOM      5  C   UNL     1       1.815   6.523  20.868  0.00  0.00    +0.000 C 
BRANCH   5  10
ATOM      6  C   UNL     1       1.144   9.877  19.166  0.00  0.00    +0.000 A 
ATOM      7  C   UNL     1       1.763   9.677  17.932  0.00  0.00    +0.000 A 
ATOM      8  C   UNL     1       2.429   8.482  17.661  0.00  0.00    +0.000 A 
ATOM      9  C   UNL     1       2.465   7.471  18.619  0.00  0.00    +0.000 A 
ATOM     10  C   UNL     1       1.830   7.642  19.856  0.00  0.00    +0.000 A 
ATOM     11  C   UNL     1       1.186   8.861  20.128  0.00  0.00    +0.000 A 
BRANCH   6  13
ATOM     12  C   UNL     1       1.275  12.125  19.915  0.00  0.00    +0.000 C 
ATOM     13  O   UNL     1       0.519  11.086  19.308  0.00  0.00    +0.000 OA
ENDBRANCH   6  13
ENDBRANCH   5  10
ENDBRANCH   1   5
BRANCH   2  14
ATOM     14  C   UNL     1       3.337   3.106  20.162  0.00  0.00    +0.000 C 
BRANCH  14  15
ATOM     15  N   UNL     1       3.988   3.511  18.936  0.00  0.00    +0.000 N 
ATOM     16  C   UNL     1       3.484   3.497  17.671  0.00  0.00    +0.000 A 
ATOM     17  N   UNL     1       4.422   3.843  16.817  0.00  0.00    +0.000 NA
ATOM     18  C   UNL     1       5.508   4.060  17.626  0.00  0.00    +0.000 A 
ATOM     19  N   UNL     1       5.296   3.851  18.934  0.00  0.00    +0.000 NA
BRANCH  18  20
ATOM     20  C   UNL     1       6.793   4.447  17.112  0.00  0.00    +0.000 C 
ATOM     21  N   UNL     1       7.833   4.748  16.693  0.00  0.00    +0.000 NA
ENDBRANCH  18  20
ENDBRANCH  14  15
ENDBRANCH   2  14
TORSDOF 6
ENDMDL
MODEL 9
REMARK VINA RESULT:      -6.3      3.027      5.416
REMARK  Name = 
REMARK  7 active torsions:
REMARK  status: ('A' for Active; 'I' for Inactive)
REMARK    1  A    between atoms: C_1  and  O_2
REMARK    2  A    between atoms: O_2  and  C_3
REMARK    3  A    between atoms: C_7  and  C_8
REMARK    4  A    between atoms: C_8  and  N_9
REMARK    5  A    between atoms: C_10  and  C_12
REMARK    6  A    between atoms: C_12  and  N_13
REMARK    7  A    between atoms: C_16  and  C_17
REMARK                            x       y       z     vdW  Elec       q    Type
REMARK                         _______ _______ _______ _____ _____    ______ ____
ROOT
ATOM      1  N   UNL     1       3.835   6.207  17.924  0.00  0.00    +0.000 N 
ATOM      2  C   UNL     1       4.774   5.563  17.148  0.00  0.00    +0.000 C 
ATOM      3  O   UNL     1       5.112   5.961  16.036  0.00  0.00    +0.000 OA
ATOM      4  H   UNL     1       3.548   5.818  18.812  0.00  0.00    +0.000 HD
ENDROOT
BRANCH   1   5
ATOM      5  C   UNL     1       3.215   7.446  17.505  0.00  0.00    +0.000 C 
BRANCH   5  10
ATOM      6  C   UNL     1       0.859   9.833  19.334  0.00  0.00    +0.000 A 
ATOM      7  C   UNL     1       0.737   9.193  20.567  0.00  0.00    +0.000 A 
ATOM      8  C   UNL     1       1.380   7.978  20.799  0.00  0.00    +0.000 A 
ATOM      9  C   UNL     1       2.162   7.401  19.801  0.00  0.00    +0.000 A 
ATOM     10  C   UNL     1       2.316   8.038  18.563  0.00  0.00    +0.000 A 
ATOM     11  C   UNL     1       1.641   9.249  18.331  0.00  0.00    +0.000 A 
BRANCH   6  13
ATOM     12  C   UNL     1       0.471  11.999  20.225  0.00  0.00    +0.000 C 
ATOM     13  O   UNL     1       0.187  11.021  19.233  0.00  0.00    +0.000 OA
ENDBRANCH   6  13
ENDBRANCH   5  10
ENDBRANCH   1   5
BRANCH   2  14
ATOM     14  C   UNL     1       5.344   4.300  17.751  0.00  0.00    +0.000 C 
BRANCH  14  15
ATOM     15  N   UNL     1       4.318   3.507  18.393  0.00  0.00    +0.000 N 
ATOM     16  C   UNL     1       3.497   2.578  17.831  0.00  0.00    +0.000 A 
ATOM     17  N   UNL     1       2.632   2.154  18.724  0.00  0.00    +0.000 NA
ATOM     18  C   UNL     1       2.968   2.873  19.843  0.00  0.00    +0.000 A 
ATOM     19  N   UNL     1       3.987   3.731  19.683  0.00  0.00    +0.000 NA
BRANCH  18  20
ATOM     20  C   UNL     1       2.261   2.748  21.087  0.00  0.00    +0.000 C 
ATOM     21  N   UNL     1       1.691   2.634  22.093  0.00  0.00    +0.000 NA
ENDBRANCH  18  20
ENDBRANCH  14  15
ENDBRANCH   2  14
TORSDOF 6
ENDMDL
