MODEL 1
REMARK VINA RESULT:      -7.2      0.000      0.000
REMARK  Name = 
REMARK  5 active torsions:
REMARK  status: ('A' for Active; 'I' for Inactive)
REMARK    1  A    between atoms: C_1  and  C_2
REMARK    2  A    between atoms: N_12  and  N_13
REMARK    3  A    between atoms: C_14  and  N_15
REMARK    4  A    between atoms: C_14  and  C_25
REMARK    5  A    between atoms: N_16  and  C_17
REMARK                            x       y       z     vdW  Elec       q    Type
REMARK                         _______ _______ _______ _____ _____    ______ ____
ROOT
ATOM      1  N   UNL     1      -5.376  11.849  18.649  0.00  0.00    +0.000 NA
ATOM      2  C   UNL     1      -4.070  11.838  18.641  0.00  0.00    +0.000 C 
ENDROOT
BRANCH   1  14
ATOM      3  C   UNL     1      -7.114   9.740  19.596  0.00  0.00    +0.000 C 
ATOM      4  C   UNL     1      -6.808  10.998  20.382  0.00  0.00    +0.000 A 
ATOM      5  N   UNL     1      -7.301  11.098  21.580  0.00  0.00    +0.000 NA
ATOM      6  C   UNL     1      -7.277  12.369  22.168  0.00  0.00    +0.000 A 
ATOM      7  C   UNL     1      -7.605  12.493  23.515  0.00  0.00    +0.000 A 
ATOM      8  C   UNL     1      -7.917  13.747  24.043  0.00  0.00    +0.000 A 
ATOM      9  C   UNL     1      -7.916  14.875  23.218  0.00  0.00    +0.000 A 
ATOM     10  C   UNL     1      -7.486  14.772  21.896  0.00  0.00    +0.000 A 
ATOM     11  C   UNL     1      -7.117  13.521  21.397  0.00  0.00    +0.000 A 
ATOM     12  C   UNL     1      -6.483  13.355  20.069  0.00  0.00    +0.000 A 
ATOM     13  O   UNL     1      -6.315  14.330  19.349  0.00  0.00    +0.000 OA
ATOM     14  N   UNL     1      -6.121  12.031  19.774  0.00  0.00    +0.000 N 
ENDBRANCH   1  14
BRANCH   2  15
ATOM     15  C   UNL     1      -3.460  11.234  17.404  0.00  0.00    +0.000 A 
ATOM     16  C   UNL     1      -4.205  11.252  16.210  0.00  0.00    +0.000 A 
ATOM     17  C   UNL     1      -3.817  10.480  15.116  0.00  0.00    +0.000 A 
ATOM     18  C   UNL     1      -2.674   9.692  15.198  0.00  0.00    +0.000 A 
ATOM     19  C   UNL     1      -1.906   9.695  16.364  0.00  0.00    +0.000 A 
ATOM     20  C   UNL     1      -2.291  10.468  17.464  0.00  0.00    +0.000 A 
ENDBRANCH   2  15
BRANCH   2  21
ATOM     21  N   UNL     1      -3.180  12.105  19.684  0.00  0.00    +0.000 NA
ATOM     22  N   UNL     1      -2.851  13.294  19.868  0.00  0.00    +0.000 NA
BRANCH  22  23
ATOM     23  C   UNL     1      -2.468  13.623  21.213  0.00  0.00    +0.000 A 
ATOM     24  C   UNL     1      -3.458  14.288  21.963  0.00  0.00    +0.000 A 
ATOM     25  C   UNL     1      -3.287  14.585  23.328  0.00  0.00    +0.000 A 
ATOM     26 CL   UNL     1      -4.528  15.405  24.190  0.00  0.00    +0.000 Cl
ATOM     27  C   UNL     1      -2.129  14.211  23.992  0.00  0.00    +0.000 A 
ATOM     28  C   UNL     1      -1.131  13.551  23.284  0.00  0.00    +0.000 A 
ATOM     29  C   UNL     1      -1.284  13.269  21.909  0.00  0.00    +0.000 A 
ATOM     30 CL   UNL     1       0.072  12.460  21.196  0.00  0.00    +0.000 Cl
ENDBRANCH  22  23
ENDBRANCH   2  21
TORSDOF 4
ENDMDL
MODEL 2
REMARK VINA RESULT:      -7.2      3.757      6.711
REMARK  Name = 
REMARK  5 active torsions:
REMARK  status: ('A' for Active; 'I' for Inactive)
REMARK    1  A    between atoms: C_1  and  C_2
REMARK    2  A    between atoms: N_12  and  N_13
REMARK    3  A    between atoms: C_14  and  N_15
REMARK    4  A    between atoms: C_14  and  C_25
REMARK    5  A    between atoms: N_16  and  C_17
REMARK                            x       y       z     vdW  Elec       q    Type
REMARK                         _______ _______ _______ _____ _____    ______ ____
ROOT
ATOM      1  N   UNL     1       0.708  10.765  21.022  0.00  0.00    +0.000 NA
ATOM      2  C   UNL     1       0.525  10.198  19.861  0.00  0.00    +0.000 C 
ENDROOT
BRANCH   1  14
ATOM      3  C   UNL     1       2.189  13.174  20.411  0.00  0.00    +0.000 C 
ATOM      4  C   UNL     1       0.759  13.166  20.912  0.00  0.00    +0.000 A 
ATOM      5  N   UNL     1       0.144  14.306  21.003  0.00  0.00    +0.000 NA
ATOM      6  C   UNL     1      -1.043  14.325  21.746  0.00  0.00    +0.000 A 
ATOM      7  C   UNL     1      -1.841  15.465  21.710  0.00  0.00    +0.000 A 
ATOM      8  C   UNL     1      -2.831  15.653  22.676  0.00  0.00    +0.000 A 
ATOM      9  C   UNL     1      -3.010  14.708  23.689  0.00  0.00    +0.000 A 
ATOM     10  C   UNL     1      -2.286  13.516  23.669  0.00  0.00    +0.000 A 
ATOM     11  C   UNL     1      -1.342  13.314  22.660  0.00  0.00    +0.000 A 
ATOM     12  C   UNL     1      -0.663  12.013  22.462  0.00  0.00    +0.000 A 
ATOM     13  O   UNL     1      -0.887  11.087  23.231  0.00  0.00    +0.000 OA
ATOM     14  N   UNL     1       0.199  11.984  21.354  0.00  0.00    +0.000 N 
ENDBRANCH   1  14
BRANCH   2  15
ATOM     15  C   UNL     1       1.481   9.074  19.559  0.00  0.00    +0.000 A 
ATOM     16  C   UNL     1       2.083   9.026  18.287  0.00  0.00    +0.000 A 
ATOM     17  C   UNL     1       2.752   7.881  17.858  0.00  0.00    +0.000 A 
ATOM     18  C   UNL     1       2.838   6.777  18.698  0.00  0.00    +0.000 A 
ATOM     19  C   UNL     1       2.278   6.826  19.976  0.00  0.00    +0.000 A 
ATOM     20  C   UNL     1       1.605   7.972  20.411  0.00  0.00    +0.000 A 
ENDBRANCH   2  15
BRANCH   2  21
ATOM     21  N   UNL     1      -0.274  10.613  18.793  0.00  0.00    +0.000 NA
ATOM     22  N   UNL     1      -1.224   9.875  18.464  0.00  0.00    +0.000 NA
BRANCH  22  23
ATOM     23  C   UNL     1      -2.331  10.542  17.838  0.00  0.00    +0.000 A 
ATOM     24  C   UNL     1      -2.587  10.142  16.511  0.00  0.00    +0.000 A 
ATOM     25  C   UNL     1      -3.699  10.616  15.790  0.00  0.00    +0.000 A 
ATOM     26 CL   UNL     1      -3.957  10.098  14.171  0.00  0.00    +0.000 Cl
ATOM     27  C   UNL     1      -4.600  11.490  16.378  0.00  0.00    +0.000 A 
ATOM     28  C   UNL     1      -4.381  11.904  17.686  0.00  0.00    +0.000 A 
ATOM     29  C   UNL     1      -3.256  11.452  18.409  0.00  0.00    +0.000 A 
ATOM     30 CL   UNL     1      -3.141  12.093  20.016  0.00  0.00    +0.000 Cl
ENDBRANCH  22  23
ENDBRANCH   2  21
TORSDOF 4
ENDMDL
MODEL 3
REMARK VINA RESULT:      -7.1      4.069      7.113
REMARK  Name = 
REMARK  5 active torsions:
REMARK  status: ('A' for Active; 'I' for Inactive)
REMARK    1  A    between atoms: C_1  and  C_2
REMARK    2  A    between atoms: N_12  and  N_13
REMARK    3  A    between atoms: C_14  and  N_15
REMARK    4  A    between atoms: C_14  and  C_25
REMARK    5  A    between atoms: N_16  and  C_17
REMARK                            x       y       z     vdW  Elec       q    Type
REMARK                         _______ _______ _______ _____ _____    ______ ____
ROOT
ATOM      1  N   UNL     1       1.438  11.054  19.858  0.00  0.00    +0.000 NA
ATOM      2  C   UNL     1       0.916  10.084  19.156  0.00  0.00    +0.000 C 
ENDROOT
BRANCH   1  14
ATOM      3  C   UNL     1       2.773  13.062  18.260  0.00  0.00    +0.000 C 
ATOM      4  C   UNL     1       1.440  13.278  18.946  0.00  0.00    +0.000 A 
ATOM      5  N   UNL     1       0.832  14.408  18.744  0.00  0.00    +0.000 NA
ATOM      6  C   UNL     1      -0.223  14.721  19.610  0.00  0.00    +0.000 A 
ATOM      7  C   UNL     1      -1.032  15.815  19.318  0.00  0.00    +0.000 A 
ATOM      8  C   UNL     1      -1.860  16.352  20.305  0.00  0.00    +0.000 A 
ATOM      9  C   UNL     1      -1.865  15.805  21.590  0.00  0.00    +0.000 A 
ATOM     10  C   UNL     1      -1.138  14.645  21.858  0.00  0.00    +0.000 A 
ATOM     11  C   UNL     1      -0.362  14.082  20.844  0.00  0.00    +0.000 A 
ATOM     12  C   UNL     1       0.294  12.762  20.990  0.00  0.00    +0.000 A 
ATOM     13  O   UNL     1       0.206  12.153  22.048  0.00  0.00    +0.000 OA
ATOM     14  N   UNL     1       0.971  12.333  19.838  0.00  0.00    +0.000 N 
ENDBRANCH   1  14
BRANCH   2  15
ATOM     15  C   UNL     1       1.802   8.875  19.009  0.00  0.00    +0.000 A 
ATOM     16  C   UNL     1       2.433   8.650  17.771  0.00  0.00    +0.000 A 
ATOM     17  C   UNL     1       3.036   7.425  17.490  0.00  0.00    +0.000 A 
ATOM     18  C   UNL     1       3.026   6.416  18.447  0.00  0.00    +0.000 A 
ATOM     19  C   UNL     1       2.436   6.641  19.692  0.00  0.00    +0.000 A 
ATOM     20  C   UNL     1       1.831   7.868  19.979  0.00  0.00    +0.000 A 
ENDBRANCH   2  15
BRANCH   2  21
ATOM     21  N   UNL     1      -0.233  10.089  18.362  0.00  0.00    +0.000 NA
ATOM     22  N   UNL     1      -1.335  10.140  18.945  0.00  0.00    +0.000 NA
BRANCH  22  23
ATOM     23  C   UNL     1      -2.402  10.732  18.187  0.00  0.00    +0.000 A 
ATOM     24  C   UNL     1      -2.542  10.237  16.876  0.00  0.00    +0.000 A 
ATOM     25  C   UNL     1      -3.602  10.629  16.038  0.00  0.00    +0.000 A 
ATOM     26 CL   UNL     1      -3.717   9.995  14.444  0.00  0.00    +0.000 Cl
ATOM     27  C   UNL     1      -4.566  11.517  16.490  0.00  0.00    +0.000 A 
ATOM     28  C   UNL     1      -4.462  12.025  17.779  0.00  0.00    +0.000 A 
ATOM     29  C   UNL     1      -3.389  11.654  18.619  0.00  0.00    +0.000 A 
ATOM     30 CL   UNL     1      -3.418  12.406  20.180  0.00  0.00    +0.000 Cl
ENDBRANCH  22  23
ENDBRANCH   2  21
TORSDOF 4
ENDMDL
MODEL 4
REMARK VINA RESULT:      -6.9      3.502      6.034
REMARK  Name = 
REMARK  5 active torsions:
REMARK  status: ('A' for Active; 'I' for Inactive)
REMARK    1  A    between atoms: C_1  and  C_2
REMARK    2  A    between atoms: N_12  and  N_13
REMARK    3  A    between atoms: C_14  and  N_15
REMARK    4  A    between atoms: C_14  and  C_25
REMARK    5  A    between atoms: N_16  and  C_17
REMARK                            x       y       z     vdW  Elec       q    Type
REMARK                         _______ _______ _______ _____ _____    ______ ____
ROOT
ATOM      1  N   UNL     1       0.310  10.788  21.009  0.00  0.00    +0.000 NA
ATOM      2  C   UNL     1       0.142  10.281  19.818  0.00  0.00    +0.000 C 
ENDROOT
BRANCH   1  14
ATOM      3  C   UNL     1       1.587  13.380  20.878  0.00  0.00    +0.000 C 
ATOM      4  C   UNL     1       0.130  13.174  21.234  0.00  0.00    +0.000 A 
ATOM      5  N   UNL     1      -0.602  14.231  21.422  0.00  0.00    +0.000 NA
ATOM      6  C   UNL     1      -1.842  14.038  22.046  0.00  0.00    +0.000 A 
ATOM      7  C   UNL     1      -2.745  15.096  22.090  0.00  0.00    +0.000 A 
ATOM      8  C   UNL     1      -3.824  15.054  22.974  0.00  0.00    +0.000 A 
ATOM      9  C   UNL     1      -3.989  13.959  23.827  0.00  0.00    +0.000 A 
ATOM     10  C   UNL     1      -3.150  12.851  23.712  0.00  0.00    +0.000 A 
ATOM     11  C   UNL     1      -2.112  12.881  22.779  0.00  0.00    +0.000 A 
ATOM     12  C   UNL     1      -1.292  11.688  22.470  0.00  0.00    +0.000 A 
ATOM     13  O   UNL     1      -1.484  10.644  23.080  0.00  0.00    +0.000 OA
ATOM     14  N   UNL     1      -0.344  11.896  21.456  0.00  0.00    +0.000 N 
ENDBRANCH   1  14
BRANCH   2  15
ATOM     15  C   UNL     1       1.226   9.327  19.388  0.00  0.00    +0.000 A 
ATOM     16  C   UNL     1       1.746   9.444  18.085  0.00  0.00    +0.000 A 
ATOM     17  C   UNL     1       2.542   8.437  17.542  0.00  0.00    +0.000 A 
ATOM     18  C   UNL     1       2.837   7.308  18.299  0.00  0.00    +0.000 A 
ATOM     19  C   UNL     1       2.358   7.199  19.606  0.00  0.00    +0.000 A 
ATOM     20  C   UNL     1       1.559   8.206  20.155  0.00  0.00    +0.000 A 
ENDBRANCH   2  15
BRANCH   2  21
ATOM     21  N   UNL     1      -0.767  10.648  18.823  0.00  0.00    +0.000 NA
ATOM     22  N   UNL     1      -1.739   9.893  18.624  0.00  0.00    +0.000 NA
BRANCH  22  23
ATOM     23  C   UNL     1      -2.911  10.529  18.090  0.00  0.00    +0.000 A 
ATOM     24  C   UNL     1      -3.590  11.371  18.993  0.00  0.00    +0.000 A 
ATOM     25  C   UNL     1      -4.691  12.153  18.600  0.00  0.00    +0.000 A 
ATOM     26 CL   UNL     1      -5.484  13.158  19.748  0.00  0.00    +0.000 Cl
ATOM     27  C   UNL     1      -5.140  12.132  17.289  0.00  0.00    +0.000 A 
ATOM     28  C   UNL     1      -4.494  11.314  16.369  0.00  0.00    +0.000 A 
ATOM     29  C   UNL     1      -3.401  10.509  16.759  0.00  0.00    +0.000 A 
ATOM     30 CL   UNL     1      -2.740   9.543  15.481  0.00  0.00    +0.000 Cl
ENDBRANCH  22  23
ENDBRANCH   2  21
TORSDOF 4
ENDMDL
MODEL 5
REMARK VINA RESULT:      -6.9      4.153      5.559
REMARK  Name = 
REMARK  5 active torsions:
REMARK  status: ('A' for Active; 'I' for Inactive)
REMARK    1  A    between atoms: C_1  and  C_2
REMARK    2  A    between atoms: N_12  and  N_13
REMARK    3  A    between atoms: C_14  and  N_15
REMARK    4  A    between atoms: C_14  and  C_25
REMARK    5  A    between atoms: N_16  and  C_17
REMARK                            x       y       z     vdW  Elec       q    Type
REMARK                         _______ _______ _______ _____ _____    ______ ____
ROOT
ATOM      1  N   UNL     1      -0.513  10.419  20.385  0.00  0.00    +0.000 NA
ATOM      2  C   UNL     1       0.517  10.631  19.611  0.00  0.00    +0.000 C 
ENDROOT
BRANCH   1  14
ATOM      3  C   UNL     1      -0.568  10.046  23.253  0.00  0.00    +0.000 C 
ATOM      4  C   UNL     1      -0.935  11.343  22.563  0.00  0.00    +0.000 A 
ATOM      5  N   UNL     1      -1.223  12.366  23.311  0.00  0.00    +0.000 NA
ATOM      6  C   UNL     1      -1.852  13.449  22.685  0.00  0.00    +0.000 A 
ATOM      7  C   UNL     1      -2.000  14.640  23.390  0.00  0.00    +0.000 A 
ATOM      8  C   UNL     1      -2.899  15.609  22.939  0.00  0.00    +0.000 A 
ATOM      9  C   UNL     1      -3.662  15.377  21.792  0.00  0.00    +0.000 A 
ATOM     10  C   UNL     1      -3.441  14.234  21.025  0.00  0.00    +0.000 A 
ATOM     11  C   UNL     1      -2.494  13.302  21.454  0.00  0.00    +0.000 A 
ATOM     12  C   UNL     1      -2.072  12.158  20.614  0.00  0.00    +0.000 A 
ATOM     13  O   UNL     1      -2.598  11.978  19.523  0.00  0.00    +0.000 OA
ATOM     14  N   UNL     1      -1.060  11.372  21.188  0.00  0.00    +0.000 N 
ENDBRANCH   1  14
BRANCH   2  15
ATOM     15  C   UNL     1       1.201   9.380  19.126  0.00  0.00    +0.000 A 
ATOM     16  C   UNL     1       1.413   8.332  20.042  0.00  0.00    +0.000 A 
ATOM     17  C   UNL     1       2.269   7.277  19.732  0.00  0.00    +0.000 A 
ATOM     18  C   UNL     1       2.913   7.250  18.500  0.00  0.00    +0.000 A 
ATOM     19  C   UNL     1       2.680   8.264  17.569  0.00  0.00    +0.000 A 
ATOM     20  C   UNL     1       1.823   9.325  17.874  0.00  0.00    +0.000 A 
ENDBRANCH   2  15
BRANCH   2  21
ATOM     21  N   UNL     1       1.188  11.827  19.343  0.00  0.00    +0.000 NA
ATOM     22  N   UNL     1       0.734  12.551  18.435  0.00  0.00    +0.000 NA
BRANCH  22  23
ATOM     23  C   UNL     1       1.018  13.953  18.569  0.00  0.00    +0.000 A 
ATOM     24  C   UNL     1      -0.103  14.758  18.855  0.00  0.00    +0.000 A 
ATOM     25  C   UNL     1       0.015  16.133  19.123  0.00  0.00    +0.000 A 
ATOM     26 CL   UNL     1      -1.389  17.067  19.460  0.00  0.00    +0.000 Cl
ATOM     27  C   UNL     1       1.259  16.746  19.133  0.00  0.00    +0.000 A 
ATOM     28  C   UNL     1       2.387  15.983  18.857  0.00  0.00    +0.000 A 
ATOM     29  C   UNL     1       2.276  14.607  18.564  0.00  0.00    +0.000 A 
ATOM     30 CL   UNL     1       3.788  13.829  18.226  0.00  0.00    +0.000 Cl
ENDBRANCH  22  23
ENDBRANCH   2  21
TORSDOF 4
ENDMDL
MODEL 6
REMARK VINA RESULT:      -6.8      3.752      6.760
REMARK  Name = 
REMARK  5 active torsions:
REMARK  status: ('A' for Active; 'I' for Inactive)
REMARK    1  A    between atoms: C_1  and  C_2
REMARK    2  A    between atoms: N_12  and  N_13
REMARK    3  A    between atoms: C_14  and  N_15
REMARK    4  A    between atoms: C_14  and  C_25
REMARK    5  A    between atoms: N_16  and  C_17
REMARK                            x       y       z     vdW  Elec       q    Type
REMARK                         _______ _______ _______ _____ _____    ______ ____
ROOT
ATOM      1  N   UNL     1       0.657  11.425  21.129  0.00  0.00    +0.000 NA
ATOM      2  C   UNL     1      -0.068  10.721  20.302  0.00  0.00    +0.000 C 
ENDROOT
BRANCH   1  14
ATOM      3  C   UNL     1       2.487  13.645  20.832  0.00  0.00    +0.000 C 
ATOM      4  C   UNL     1       1.047  13.792  21.278  0.00  0.00    +0.000 A 
ATOM      5  N   UNL     1       0.593  14.994  21.469  0.00  0.00    +0.000 NA
ATOM      6  C   UNL     1      -0.616  15.108  22.168  0.00  0.00    +0.000 A 
ATOM      7  C   UNL     1      -1.245  16.348  22.226  0.00  0.00    +0.000 A 
ATOM      8  C   UNL     1      -2.247  16.577  23.171  0.00  0.00    +0.000 A 
ATOM      9  C   UNL     1      -2.606  15.570  24.071  0.00  0.00    +0.000 A 
ATOM     10  C   UNL     1      -2.054  14.295  23.948  0.00  0.00    +0.000 A 
ATOM     11  C   UNL     1      -1.098  14.062  22.957  0.00  0.00    +0.000 A 
ATOM     12  C   UNL     1      -0.598  12.704  22.645  0.00  0.00    +0.000 A 
ATOM     13  O   UNL     1      -0.986  11.747  23.302  0.00  0.00    +0.000 OA
ATOM     14  N   UNL     1       0.306  12.664  21.572  0.00  0.00    +0.000 N 
ENDBRANCH   1  14
BRANCH   2  15
ATOM     15  C   UNL     1       0.668   9.587  19.637  0.00  0.00    +0.000 A 
ATOM     16  C   UNL     1       1.156   8.540  20.441  0.00  0.00    +0.000 A 
ATOM     17  C   UNL     1       2.067   7.616  19.932  0.00  0.00    +0.000 A 
ATOM     18  C   UNL     1       2.491   7.720  18.611  0.00  0.00    +0.000 A 
ATOM     19  C   UNL     1       1.984   8.733  17.794  0.00  0.00    +0.000 A 
ATOM     20  C   UNL     1       1.071   9.662  18.300  0.00  0.00    +0.000 A 
ENDBRANCH   2  15
BRANCH   2  21
ATOM     21  N   UNL     1      -1.342  10.991  19.797  0.00  0.00    +0.000 NA
ATOM     22  N   UNL     1      -1.426  11.797  18.848  0.00  0.00    +0.000 NA
BRANCH  22  23
ATOM     23  C   UNL     1      -2.560  11.613  17.986  0.00  0.00    +0.000 A 
ATOM     24  C   UNL     1      -2.260  11.056  16.726  0.00  0.00    +0.000 A 
ATOM     25  C   UNL     1      -3.264  10.710  15.805  0.00  0.00    +0.000 A 
ATOM     26 CL   UNL     1      -2.838  10.040  14.280  0.00  0.00    +0.000 Cl
ATOM     27  C   UNL     1      -4.603  10.892  16.118  0.00  0.00    +0.000 A 
ATOM     28  C   UNL     1      -4.937  11.437  17.352  0.00  0.00    +0.000 A 
ATOM     29  C   UNL     1      -3.934  11.808  18.275  0.00  0.00    +0.000 A 
ATOM     30 CL   UNL     1      -4.543  12.488  19.748  0.00  0.00    +0.000 Cl
ENDBRANCH  22  23
ENDBRANCH   2  21
TORSDOF 4
ENDMDL
MODEL 7
REMARK VINA RESULT:      -6.8      3.492      6.431
REMARK  Name = 
REMARK  5 active torsions:
REMARK  status: ('A' for Active; 'I' for Inactive)
REMARK    1  A    between atoms: C_1  and  C_2
REMARK    2  A    between atoms: N_12  and  N_13
REMARK    3  A    between atoms: C_14  and  N_15
REMARK    4  A    between atoms: C_14  and  C_25
REMARK    5  A    between atoms: N_16  and  C_17
REMARK                            x       y       z     vdW  Elec       q    Type
REMARK                         _______ _______ _______ _____ _____    ______ ____
ROOT
ATOM      1  N   UNL     1       0.590  11.816  21.392  0.00  0.00    +0.000 NA
ATOM      2  C   UNL     1      -0.006  11.000  20.565  0.00  0.00    +0.000 C 
ENDROOT
BRANCH   1  14
ATOM      3  C   UNL     1       2.041  14.317  21.290  0.00  0.00    +0.000 C 
ATOM      4  C   UNL     1       0.577  14.205  21.659  0.00  0.00    +0.000 A 
ATOM      5  N   UNL     1      -0.078  15.306  21.873  0.00  0.00    +0.000 NA
ATOM      6  C   UNL     1      -1.322  15.188  22.507  0.00  0.00    +0.000 A 
ATOM      7  C   UNL     1      -2.149  16.306  22.580  0.00  0.00    +0.000 A 
ATOM      8  C   UNL     1      -3.219  16.322  23.475  0.00  0.00    +0.000 A 
ATOM      9  C   UNL     1      -3.452  15.227  24.311  0.00  0.00    +0.000 A 
ATOM     10  C   UNL     1      -2.692  14.066  24.167  0.00  0.00    +0.000 A 
ATOM     11  C   UNL     1      -1.663  14.041  23.224  0.00  0.00    +0.000 A 
ATOM     12  C   UNL     1      -0.932  12.799  22.885  0.00  0.00    +0.000 A 
ATOM     13  O   UNL     1      -1.189  11.760  23.479  0.00  0.00    +0.000 OA
ATOM     14  N   UNL     1       0.018  12.959  21.864  0.00  0.00    +0.000 N 
ENDBRANCH   1  14
BRANCH   2  15
ATOM     15  C   UNL     1       0.919  10.038  19.866  0.00  0.00    +0.000 A 
ATOM     16  C   UNL     1       1.243  10.278  18.517  0.00  0.00    +0.000 A 
ATOM     17  C   UNL     1       1.862   9.294  17.747  0.00  0.00    +0.000 A 
ATOM     18  C   UNL     1       2.175   8.066  18.319  0.00  0.00    +0.000 A 
ATOM     19  C   UNL     1       1.893   7.831  19.666  0.00  0.00    +0.000 A 
ATOM     20  C   UNL     1       1.272   8.813  20.442  0.00  0.00    +0.000 A 
ENDBRANCH   2  15
BRANCH   2  21
ATOM     21  N   UNL     1      -1.318  11.029  20.088  0.00  0.00    +0.000 NA
ATOM     22  N   UNL     1      -1.659  12.011  19.400  0.00  0.00    +0.000 NA
BRANCH  22  23
ATOM     23  C   UNL     1      -2.718  11.765  18.462  0.00  0.00    +0.000 A 
ATOM     24  C   UNL     1      -2.301  11.227  17.228  0.00  0.00    +0.000 A 
ATOM     25  C   UNL     1      -3.219  10.826  16.240  0.00  0.00    +0.000 A 
ATOM     26 CL   UNL     1      -2.650  10.181  14.751  0.00  0.00    +0.000 Cl
ATOM     27  C   UNL     1      -4.583  10.933  16.459  0.00  0.00    +0.000 A 
ATOM     28  C   UNL     1      -5.032  11.458  17.665  0.00  0.00    +0.000 A 
ATOM     29  C   UNL     1      -4.118  11.884  18.654  0.00  0.00    +0.000 A 
ATOM     30 CL   UNL     1      -4.865  12.528  20.079  0.00  0.00    +0.000 Cl
ENDBRANCH  22  23
ENDBRANCH   2  21
TORSDOF 4
ENDMDL
MODEL 8
REMARK VINA RESULT:      -6.7      5.084      8.932
REMARK  Name = 
REMARK  5 active torsions:
REMARK  status: ('A' for Active; 'I' for Inactive)
REMARK    1  A    between atoms: C_1  and  C_2
REMARK    2  A    between atoms: N_12  and  N_13
REMARK    3  A    between atoms: C_14  and  N_15
REMARK    4  A    between atoms: C_14  and  C_25
REMARK    5  A    between atoms: N_16  and  C_17
REMARK                            x       y       z     vdW  Elec       q    Type
REMARK                         _______ _______ _______ _____ _____    ______ ____
ROOT
ATOM      1  N   UNL     1       0.042  10.091  20.493  0.00  0.00    +0.000 NA
ATOM      2  C   UNL     1       0.253  11.365  20.682  0.00  0.00    +0.000 C 
ENDROOT
BRANCH   1  14
ATOM      3  C   UNL     1      -0.565  10.049  17.665  0.00  0.00    +0.000 C 
ATOM      4  C   UNL     1       0.670   9.417  18.272  0.00  0.00    +0.000 A 
ATOM      5  N   UNL     1       1.539   8.888  17.464  0.00  0.00    +0.000 NA
ATOM      6  C   UNL     1       2.502   8.047  18.035  0.00  0.00    +0.000 A 
ATOM      7  C   UNL     1       3.569   7.617  17.251  0.00  0.00    +0.000 A 
ATOM      8  C   UNL     1       4.347   6.535  17.668  0.00  0.00    +0.000 A 
ATOM      9  C   UNL     1       4.045   5.872  18.860  0.00  0.00    +0.000 A 
ATOM     10  C   UNL     1       3.045   6.364  19.699  0.00  0.00    +0.000 A 
ATOM     11  C   UNL     1       2.316   7.485  19.299  0.00  0.00    +0.000 A 
ATOM     12  C   UNL     1       1.367   8.174  20.203  0.00  0.00    +0.000 A 
ATOM     13  O   UNL     1       1.163   7.730  21.325  0.00  0.00    +0.000 OA
ATOM     14  N   UNL     1       0.782   9.323  19.646  0.00  0.00    +0.000 N 
ENDBRANCH   1  14
BRANCH   2  15
ATOM     15  C   UNL     1      -0.895  12.098  21.326  0.00  0.00    +0.000 A 
ATOM     16  C   UNL     1      -1.042  12.019  22.724  0.00  0.00    +0.000 A 
ATOM     17  C   UNL     1      -2.219  12.440  23.341  0.00  0.00    +0.000 A 
ATOM     18  C   UNL     1      -3.256  12.955  22.571  0.00  0.00    +0.000 A 
ATOM     19  C   UNL     1      -3.106  13.073  21.188  0.00  0.00    +0.000 A 
ATOM     20  C   UNL     1      -1.928  12.652  20.564  0.00  0.00    +0.000 A 
ENDBRANCH   2  15
BRANCH   2  21
ATOM     21  N   UNL     1       1.283  12.172  20.192  0.00  0.00    +0.000 NA
ATOM     22  N   UNL     1       1.130  12.678  19.062  0.00  0.00    +0.000 NA
BRANCH  22  23
ATOM     23  C   UNL     1       1.840  13.907  18.840  0.00  0.00    +0.000 A 
ATOM     24  C   UNL     1       3.196  13.752  18.493  0.00  0.00    +0.000 A 
ATOM     25  C   UNL     1       4.006  14.845  18.136  0.00  0.00    +0.000 A 
ATOM     26 CL   UNL     1       5.657  14.595  17.728  0.00  0.00    +0.000 Cl
ATOM     27  C   UNL     1       3.481  16.128  18.097  0.00  0.00    +0.000 A 
ATOM     28  C   UNL     1       2.146  16.319  18.432  0.00  0.00    +0.000 A 
ATOM     29  C   UNL     1       1.332  15.231  18.813  0.00  0.00    +0.000 A 
ATOM     30 CL   UNL     1      -0.297  15.668  19.213  0.00  0.00    +0.000 Cl
ENDBRANCH  22  23
ENDBRANCH   2  21
TORSDOF 4
ENDMDL
MODEL 9
REMARK VINA RESULT:      -6.7      4.420      8.140
REMARK  Name = 
REMARK  5 active torsions:
REMARK  status: ('A' for Active; 'I' for Inactive)
REMARK    1  A    between atoms: C_1  and  C_2
REMARK    2  A    between atoms: N_12  and  N_13
REMARK    3  A    between atoms: C_14  and  N_15
REMARK    4  A    between atoms: C_14  and  C_25
REMARK    5  A    between atoms: N_16  and  C_17
REMARK                            x       y       z     vdW  Elec       q    Type
REMARK                         _______ _______ _______ _____ _____    ______ ____
ROOT
ATOM      1  N   UNL     1      -1.174  12.443  22.952  0.00  0.00    +0.000 NA
ATOM      2  C   UNL     1      -0.876  13.714  22.980  0.00  0.00    +0.000 C 
ENDROOT
BRANCH   1  14
ATOM      3  C   UNL     1      -2.650  12.400  20.464  0.00  0.00    +0.000 C 
ATOM      4  C   UNL     1      -1.334  11.682  20.677  0.00  0.00    +0.000 A 
ATOM      5  N   UNL     1      -0.806  11.071  19.659  0.00  0.00    +0.000 NA
ATOM      6  C   UNL     1       0.227  10.166  19.932  0.00  0.00    +0.000 A 
ATOM      7  C   UNL     1       0.957   9.639  18.870  0.00  0.00    +0.000 A 
ATOM      8  C   UNL     1       1.749   8.506  19.065  0.00  0.00    +0.000 A 
ATOM      9  C   UNL     1       1.796   7.890  20.319  0.00  0.00    +0.000 A 
ATOM     10  C   UNL     1       1.152   8.475  21.408  0.00  0.00    +0.000 A 
ATOM     11  C   UNL     1       0.414   9.644  21.213  0.00  0.00    +0.000 A 
ATOM     12  C   UNL     1      -0.148  10.422  22.340  0.00  0.00    +0.000 A 
ATOM     13  O   UNL     1      -0.014  10.015  23.487  0.00  0.00    +0.000 OA
ATOM     14  N   UNL     1      -0.798  11.604  21.948  0.00  0.00    +0.000 N 
ENDBRANCH   1  14
BRANCH   2  15
ATOM     15  C   UNL     1      -1.706  14.527  23.938  0.00  0.00    +0.000 A 
ATOM     16  C   UNL     1      -3.106  14.512  23.794  0.00  0.00    +0.000 A 
ATOM     17  C   UNL     1      -3.902  15.442  24.463  0.00  0.00    +0.000 A 
ATOM     18  C   UNL     1      -3.308  16.388  25.292  0.00  0.00    +0.000 A 
ATOM     19  C   UNL     1      -1.924  16.388  25.472  0.00  0.00    +0.000 A 
ATOM     20  C   UNL     1      -1.122  15.458  24.803  0.00  0.00    +0.000 A 
ENDBRANCH   2  15
BRANCH   2  21
ATOM     21  N   UNL     1      -0.061  14.449  22.116  0.00  0.00    +0.000 NA
ATOM     22  N   UNL     1       1.173  14.299  22.222  0.00  0.00    +0.000 NA
BRANCH  22  23
ATOM     23  C   UNL     1       1.926  14.545  21.024  0.00  0.00    +0.000 A 
ATOM     24  C   UNL     1       2.032  13.442  20.155  0.00  0.00    +0.000 A 
ATOM     25  C   UNL     1       2.641  13.542  18.891  0.00  0.00    +0.000 A 
ATOM     26 CL   UNL     1       2.746  12.159  17.876  0.00  0.00    +0.000 Cl
ATOM     27  C   UNL     1       3.150  14.753  18.448  0.00  0.00    +0.000 A 
ATOM     28  C   UNL     1       3.063  15.864  19.278  0.00  0.00    +0.000 A 
ATOM     29  C   UNL     1       2.473  15.768  20.557  0.00  0.00    +0.000 A 
ATOM     30 CL   UNL     1       2.474  17.252  21.452  0.00  0.00    +0.000 Cl
ENDBRANCH  22  23
ENDBRANCH   2  21
TORSDOF 4
ENDMDL
