MODEL 1
REMARK VINA RESULT:      -6.1      0.000      0.000
REMARK  Name = 
REMARK  2 active torsions:
REMARK  status: ('A' for Active; 'I' for Inactive)
REMARK    1  A    between atoms: N_8  and  S_9
REMARK    2  A    between atoms: S_9  and  O_12
REMARK                            x       y       z     vdW  Elec       q    Type
REMARK                         _______ _______ _______ _____ _____    ______ ____
ROOT
ATOM      1  O   UNL     1       7.045   5.284  19.782  0.00  0.00    +0.000 OA
ATOM      2  C   UNL     1       6.026   5.163  19.144  0.00  0.00    +0.000 C 
ATOM      3  C   UNL     1       4.502   4.755  19.339  0.00  0.00    +0.000 C 
ATOM      4  N   UNL     1       3.591   5.752  19.969  0.00  0.00    +0.000 NA
ATOM      5  C   UNL     1       2.705   6.216  18.897  0.00  0.00    +0.000 C 
ATOM      6  C   UNL     1       3.560   6.228  17.647  0.00  0.00    +0.000 C 
ATOM      7  C   UNL     1       4.409   4.987  17.813  0.00  0.00    +0.000 C 
ATOM      8  N   UNL     1       5.844   5.316  17.769  0.00  0.00    +0.000 N 
ATOM      9  H   UNL     1       4.073   6.544  20.395  0.00  0.00    +0.000 HD
ENDROOT
BRANCH   8  10
ATOM     10  S   UNL     1       6.970   4.918  16.641  0.00  0.00    +0.000 S 
ATOM     11  O   UNL     1       6.381   3.953  15.744  0.00  0.00    +0.000 OA
ATOM     12  O   UNL     1       7.547   6.146  16.150  0.00  0.00    +0.000 OA
BRANCH  10  13
ATOM     13  O   UNL     1       8.097   4.140  17.480  0.00  0.00    +0.000 OA
ATOM     14  H   UNL     1       8.425   4.743  18.179  0.00  0.00    +0.000 HD
ENDBRANCH  10  13
ENDBRANCH   8  10
TORSDOF 2
ENDMDL
MODEL 2
REMARK VINA RESULT:      -6.1      2.832      3.999
REMARK  Name = 
REMARK  2 active torsions:
REMARK  status: ('A' for Active; 'I' for Inactive)
REMARK    1  A    between atoms: N_8  and  S_9
REMARK    2  A    between atoms: S_9  and  O_12
REMARK                            x       y       z     vdW  Elec       q    Type
REMARK                         _______ _______ _______ _____ _____    ______ ____
ROOT
ATOM      1  O   UNL     1       7.742   4.478  18.552  0.00  0.00    +0.000 OA
ATOM      2  C   UNL     1       6.982   4.753  17.654  0.00  0.00    +0.000 C 
ATOM      3  C   UNL     1       6.902   5.670  16.357  0.00  0.00    +0.000 C 
ATOM      4  N   UNL     1       7.641   5.223  15.143  0.00  0.00    +0.000 NA
ATOM      5  C   UNL     1       6.615   4.810  14.181  0.00  0.00    +0.000 C 
ATOM      6  C   UNL     1       5.508   4.197  15.013  0.00  0.00    +0.000 C 
ATOM      7  C   UNL     1       5.473   5.094  16.231  0.00  0.00    +0.000 C 
ATOM      8  N   UNL     1       5.670   4.316  17.467  0.00  0.00    +0.000 N 
ATOM      9  H   UNL     1       8.294   4.456  15.312  0.00  0.00    +0.000 HD
ENDROOT
BRANCH   8  10
ATOM     10  S   UNL     1       4.615   4.021  18.691  0.00  0.00    +0.000 S 
ATOM     11  O   UNL     1       4.539   5.206  19.511  0.00  0.00    +0.000 OA
ATOM     12  O   UNL     1       3.432   3.430  18.112  0.00  0.00    +0.000 OA
BRANCH  10  13
ATOM     13  O   UNL     1       5.351   2.897  19.571  0.00  0.00    +0.000 OA
ATOM     14  H   UNL     1       6.302   2.901  19.334  0.00  0.00    +0.000 HD
ENDBRANCH  10  13
ENDBRANCH   8  10
TORSDOF 2
ENDMDL
MODEL 3
REMARK VINA RESULT:      -5.9      3.618      4.407
REMARK  Name = 
REMARK  2 active torsions:
REMARK  status: ('A' for Active; 'I' for Inactive)
REMARK    1  A    between atoms: N_8  and  S_9
REMARK    2  A    between atoms: S_9  and  O_12
REMARK                            x       y       z     vdW  Elec       q    Type
REMARK                         _______ _______ _______ _____ _____    ______ ____
ROOT
ATOM      1  O   UNL     1       4.664   2.356  20.137  0.00  0.00    +0.000 OA
ATOM      2  C   UNL     1       4.668   3.224  19.296  0.00  0.00    +0.000 C 
ATOM      3  C   UNL     1       5.527   4.484  18.844  0.00  0.00    +0.000 C 
ATOM      4  N   UNL     1       6.797   4.232  18.107  0.00  0.00    +0.000 NA
ATOM      5  C   UNL     1       6.549   4.660  16.726  0.00  0.00    +0.000 C 
ATOM      6  C   UNL     1       5.100   4.317  16.454  0.00  0.00    +0.000 C 
ATOM      7  C   UNL     1       4.427   4.648  17.768  0.00  0.00    +0.000 C 
ATOM      8  N   UNL     1       3.715   3.477  18.309  0.00  0.00    +0.000 N 
ATOM      9  H   UNL     1       7.101   3.258  18.124  0.00  0.00    +0.000 HD
ENDROOT
BRANCH   8  10
ATOM     10  S   UNL     1       2.102   3.238  18.505  0.00  0.00    +0.000 S 
ATOM     11  O   UNL     1       1.714   3.820  19.767  0.00  0.00    +0.000 OA
ATOM     12  O   UNL     1       1.454   3.616  17.272  0.00  0.00    +0.000 OA
BRANCH  10  13
ATOM     13  O   UNL     1       1.965   1.646  18.669  0.00  0.00    +0.000 OA
ATOM     14  H   UNL     1       2.771   1.317  19.119  0.00  0.00    +0.000 HD
ENDBRANCH  10  13
ENDBRANCH   8  10
TORSDOF 2
ENDMDL
MODEL 4
REMARK VINA RESULT:      -5.9      0.763      1.555
REMARK  Name = 
REMARK  2 active torsions:
REMARK  status: ('A' for Active; 'I' for Inactive)
REMARK    1  A    between atoms: N_8  and  S_9
REMARK    2  A    between atoms: S_9  and  O_12
REMARK                            x       y       z     vdW  Elec       q    Type
REMARK                         _______ _______ _______ _____ _____    ______ ____
ROOT
ATOM      1  O   UNL     1       6.955   5.317  19.814  0.00  0.00    +0.000 OA
ATOM      2  C   UNL     1       5.957   5.357  19.133  0.00  0.00    +0.000 C 
ATOM      3  C   UNL     1       4.439   4.881  19.158  0.00  0.00    +0.000 C 
ATOM      4  N   UNL     1       3.485   5.649  20.006  0.00  0.00    +0.000 NA
ATOM      5  C   UNL     1       2.616   6.373  19.074  0.00  0.00    +0.000 C 
ATOM      6  C   UNL     1       3.503   6.745  17.904  0.00  0.00    +0.000 C 
ATOM      7  C   UNL     1       4.381   5.522  17.752  0.00  0.00    +0.000 C 
ATOM      8  N   UNL     1       5.808   5.878  17.848  0.00  0.00    +0.000 N 
ATOM      9  H   UNL     1       3.933   6.302  20.649  0.00  0.00    +0.000 HD
ENDROOT
BRANCH   8  10
ATOM     10  S   UNL     1       6.974   5.827  16.692  0.00  0.00    +0.000 S 
ATOM     11  O   UNL     1       7.746   7.043  16.783  0.00  0.00    +0.000 OA
ATOM     12  O   UNL     1       7.603   4.530  16.767  0.00  0.00    +0.000 OA
BRANCH  10  13
ATOM     13  O   UNL     1       6.154   5.903  15.313  0.00  0.00    +0.000 OA
ATOM     14  H   UNL     1       6.130   6.839  15.026  0.00  0.00    +0.000 HD
ENDBRANCH  10  13
ENDBRANCH   8  10
TORSDOF 2
ENDMDL
MODEL 5
REMARK VINA RESULT:      -5.9      3.107      3.996
REMARK  Name = 
REMARK  2 active torsions:
REMARK  status: ('A' for Active; 'I' for Inactive)
REMARK    1  A    between atoms: N_8  and  S_9
REMARK    2  A    between atoms: S_9  and  O_12
REMARK                            x       y       z     vdW  Elec       q    Type
REMARK                         _______ _______ _______ _____ _____    ______ ____
ROOT
ATOM      1  O   UNL     1       1.912   3.553  17.131  0.00  0.00    +0.000 OA
ATOM      2  C   UNL     1       2.137   3.745  18.302  0.00  0.00    +0.000 C 
ATOM      3  C   UNL     1       1.380   4.135  19.645  0.00  0.00    +0.000 C 
ATOM      4  N   UNL     1       0.573   3.079  20.320  0.00  0.00    +0.000 NA
ATOM      5  C   UNL     1       1.306   2.736  21.541  0.00  0.00    +0.000 C 
ATOM      6  C   UNL     1       2.771   2.855  21.177  0.00  0.00    +0.000 C 
ATOM      7  C   UNL     1       2.791   4.069  20.274  0.00  0.00    +0.000 C 
ATOM      8  N   UNL     1       3.369   3.741  18.958  0.00  0.00    +0.000 N 
ATOM      9  H   UNL     1       0.424   2.244  19.752  0.00  0.00    +0.000 HD
ENDROOT
BRANCH   8  10
ATOM     10  S   UNL     1       4.774   4.255  18.281  0.00  0.00    +0.000 S 
ATOM     11  O   UNL     1       4.556   5.579  17.751  0.00  0.00    +0.000 OA
ATOM     12  O   UNL     1       5.834   3.987  19.224  0.00  0.00    +0.000 OA
BRANCH  10  13
ATOM     13  O   UNL     1       4.973   3.280  17.020  0.00  0.00    +0.000 OA
ATOM     14  H   UNL     1       4.822   3.803  16.206  0.00  0.00    +0.000 HD
ENDBRANCH  10  13
ENDBRANCH   8  10
TORSDOF 2
ENDMDL
MODEL 6
REMARK VINA RESULT:      -5.8      0.739      1.126
REMARK  Name = 
REMARK  2 active torsions:
REMARK  status: ('A' for Active; 'I' for Inactive)
REMARK    1  A    between atoms: N_8  and  S_9
REMARK    2  A    between atoms: S_9  and  O_12
REMARK                            x       y       z     vdW  Elec       q    Type
REMARK                         _______ _______ _______ _____ _____    ______ ____
ROOT
ATOM      1  O   UNL     1       6.985   5.483  19.751  0.00  0.00    +0.000 OA
ATOM      2  C   UNL     1       5.964   5.366  19.115  0.00  0.00    +0.000 C 
ATOM      3  C   UNL     1       4.505   4.746  19.248  0.00  0.00    +0.000 C 
ATOM      4  N   UNL     1       3.509   5.485  20.075  0.00  0.00    +0.000 NA
ATOM      5  C   UNL     1       2.536   6.038  19.128  0.00  0.00    +0.000 C 
ATOM      6  C   UNL     1       3.336   6.395  17.893  0.00  0.00    +0.000 C 
ATOM      7  C   UNL     1       4.329   5.257  17.799  0.00  0.00    +0.000 C 
ATOM      8  N   UNL     1       5.714   5.760  17.801  0.00  0.00    +0.000 N 
ATOM      9  H   UNL     1       3.912   6.231  20.642  0.00  0.00    +0.000 HD
ENDROOT
BRANCH   8  10
ATOM     10  S   UNL     1       6.835   5.726  16.601  0.00  0.00    +0.000 S 
ATOM     11  O   UNL     1       7.622   4.528  16.759  0.00  0.00    +0.000 OA
ATOM     12  O   UNL     1       6.154   6.021  15.362  0.00  0.00    +0.000 OA
BRANCH  10  13
ATOM     13  O   UNL     1       7.802   6.963  16.942  0.00  0.00    +0.000 OA
ATOM     14  H   UNL     1       7.726   7.616  16.216  0.00  0.00    +0.000 HD
ENDBRANCH  10  13
ENDBRANCH   8  10
TORSDOF 2
ENDMDL
MODEL 7
REMARK VINA RESULT:      -5.8      2.933      3.254
REMARK  Name = 
REMARK  2 active torsions:
REMARK  status: ('A' for Active; 'I' for Inactive)
REMARK    1  A    between atoms: N_8  and  S_9
REMARK    2  A    between atoms: S_9  and  O_12
REMARK                            x       y       z     vdW  Elec       q    Type
REMARK                         _______ _______ _______ _____ _____    ______ ____
ROOT
ATOM      1  O   UNL     1       5.039   2.205  20.219  0.00  0.00    +0.000 OA
ATOM      2  C   UNL     1       4.233   2.531  19.380  0.00  0.00    +0.000 C 
ATOM      3  C   UNL     1       3.083   1.902  18.479  0.00  0.00    +0.000 C 
ATOM      4  N   UNL     1       1.778   1.596  19.130  0.00  0.00    +0.000 NA
ATOM      5  C   UNL     1       0.828   2.579  18.601  0.00  0.00    +0.000 C 
ATOM      6  C   UNL     1       1.628   3.851  18.416  0.00  0.00    +0.000 C 
ATOM      7  C   UNL     1       2.959   3.337  17.915  0.00  0.00    +0.000 C 
ATOM      8  N   UNL     1       4.062   3.781  18.786  0.00  0.00    +0.000 N 
ATOM      9  H   UNL     1       1.802   1.641  20.149  0.00  0.00    +0.000 HD
ENDROOT
BRANCH   8  10
ATOM     10  S   UNL     1       5.290   4.822  18.461  0.00  0.00    +0.000 S 
ATOM     11  O   UNL     1       4.939   5.572  17.280  0.00  0.00    +0.000 OA
ATOM     12  O   UNL     1       5.637   5.484  19.697  0.00  0.00    +0.000 OA
BRANCH  10  13
ATOM     13  O   UNL     1       6.511   3.862  18.053  0.00  0.00    +0.000 OA
ATOM     14  H   UNL     1       6.735   3.309  18.830  0.00  0.00    +0.000 HD
ENDBRANCH  10  13
ENDBRANCH   8  10
TORSDOF 2
ENDMDL
MODEL 8
REMARK VINA RESULT:      -5.7      3.172      3.916
REMARK  Name = 
REMARK  2 active torsions:
REMARK  status: ('A' for Active; 'I' for Inactive)
REMARK    1  A    between atoms: N_8  and  S_9
REMARK    2  A    between atoms: S_9  and  O_12
REMARK                            x       y       z     vdW  Elec       q    Type
REMARK                         _______ _______ _______ _____ _____    ______ ____
ROOT
ATOM      1  O   UNL     1       1.407   4.028  17.300  0.00  0.00    +0.000 OA
ATOM      2  C   UNL     1       1.852   4.027  18.424  0.00  0.00    +0.000 C 
ATOM      3  C   UNL     1       1.389   4.290  19.923  0.00  0.00    +0.000 C 
ATOM      4  N   UNL     1       0.589   3.231  20.599  0.00  0.00    +0.000 NA
ATOM      5  C   UNL     1       1.475   2.646  21.610  0.00  0.00    +0.000 C 
ATOM      6  C   UNL     1       2.859   2.676  20.996  0.00  0.00    +0.000 C 
ATOM      7  C   UNL     1       2.869   3.999  20.263  0.00  0.00    +0.000 C 
ATOM      8  N   UNL     1       3.168   3.811  18.832  0.00  0.00    +0.000 N 
ATOM      9  H   UNL     1       0.245   2.505  19.970  0.00  0.00    +0.000 HD
ENDROOT
BRANCH   8  10
ATOM     10  S   UNL     1       4.487   4.279  17.974  0.00  0.00    +0.000 S 
ATOM     11  O   UNL     1       4.467   3.584  16.710  0.00  0.00    +0.000 OA
ATOM     12  O   UNL     1       4.559   5.720  18.038  0.00  0.00    +0.000 OA
BRANCH  10  13
ATOM     13  O   UNL     1       5.723   3.683  18.809  0.00  0.00    +0.000 OA
ATOM     14  H   UNL     1       5.958   2.814  18.424  0.00  0.00    +0.000 HD
ENDBRANCH  10  13
ENDBRANCH   8  10
TORSDOF 2
ENDMDL
MODEL 9
REMARK VINA RESULT:      -5.7      0.996      1.049
REMARK  Name = 
REMARK  2 active torsions:
REMARK  status: ('A' for Active; 'I' for Inactive)
REMARK    1  A    between atoms: N_8  and  S_9
REMARK    2  A    between atoms: S_9  and  O_12
REMARK                            x       y       z     vdW  Elec       q    Type
REMARK                         _______ _______ _______ _____ _____    ______ ____
ROOT
ATOM      1  O   UNL     1       5.636   3.724  19.391  0.00  0.00    +0.000 OA
ATOM      2  C   UNL     1       5.038   4.424  18.609  0.00  0.00    +0.000 C 
ATOM      3  C   UNL     1       3.549   4.827  18.219  0.00  0.00    +0.000 C 
ATOM      4  N   UNL     1       2.835   5.787  19.107  0.00  0.00    +0.000 NA
ATOM      5  C   UNL     1       2.733   7.035  18.345  0.00  0.00    +0.000 C 
ATOM      6  C   UNL     1       4.010   7.116  17.535  0.00  0.00    +0.000 C 
ATOM      7  C   UNL     1       4.235   5.678  17.125  0.00  0.00    +0.000 C 
ATOM      8  N   UNL     1       5.555   5.199  17.571  0.00  0.00    +0.000 N 
ATOM      9  H   UNL     1       3.302   5.956  19.999  0.00  0.00    +0.000 HD
ENDROOT
BRANCH   8  10
ATOM     10  S   UNL     1       6.868   4.781  16.676  0.00  0.00    +0.000 S 
ATOM     11  O   UNL     1       6.470   3.743  15.757  0.00  0.00    +0.000 OA
ATOM     12  O   UNL     1       7.484   6.002  16.212  0.00  0.00    +0.000 OA
BRANCH  10  13
ATOM     13  O   UNL     1       7.859   4.100  17.741  0.00  0.00    +0.000 OA
ATOM     14  H   UNL     1       8.002   3.170  17.469  0.00  0.00    +0.000 HD
ENDBRANCH  10  13
ENDBRANCH   8  10
TORSDOF 2
ENDMDL
