MODEL 1
REMARK VINA RESULT:      -7.6      0.000      0.000
REMARK  Name = 
REMARK  6 active torsions:
REMARK  status: ('A' for Active; 'I' for Inactive)
REMARK    1  A    between atoms: C_1  and  O_2
REMARK    2  A    between atoms: O_2  and  C_3
REMARK    3  A    between atoms: C_4  and  C_5
REMARK    4  A    between atoms: C_9  and  C_10
REMARK    5  A    between atoms: C_12  and  C_13
REMARK    6  A    between atoms: N_15  and  C_16
REMARK                            x       y       z     vdW  Elec       q    Type
REMARK                         _______ _______ _______ _____ _____    ______ ____
ROOT
ATOM      1  C   UNL     1       4.447   4.030  17.341  0.00  0.00    +0.000 A 
ATOM      2  C   UNL     1       5.724   4.374  16.881  0.00  0.00    +0.000 A 
ATOM      3  C   UNL     1       6.478   4.648  18.055  0.00  0.00    +0.000 A 
ATOM      4  C   UNL     1       7.918   4.969  18.233  0.00  0.00    +0.000 C 
ATOM      5  N   UNL     1       5.714   4.621  19.147  0.00  0.00    +0.000 NA
ATOM      6  N   UNL     1       4.518   4.137  18.742  0.00  0.00    +0.000 N 
ENDROOT
BRANCH   2   7
ATOM      7  C   UNL     1       6.109   4.460  15.465  0.00  0.00    +0.000 A 
ATOM      8  C   UNL     1       7.272   5.144  15.079  0.00  0.00    +0.000 A 
ATOM      9  C   UNL     1       7.691   5.167  13.745  0.00  0.00    +0.000 A 
ATOM     10  C   UNL     1       6.965   4.480  12.779  0.00  0.00    +0.000 A 
ATOM     11  C   UNL     1       5.808   3.782  13.125  0.00  0.00    +0.000 A 
ATOM     12  C   UNL     1       5.055   2.991  12.095  0.00  0.00    +0.000 C 
ATOM     13  C   UNL     1       5.379   3.795  14.467  0.00  0.00    +0.000 A 
ENDBRANCH   2   7
BRANCH   6  14
ATOM     14  C   UNL     1       3.564   3.835  19.757  0.00  0.00    +0.000 A 
ATOM     15  C   UNL     1       2.466   4.694  19.929  0.00  0.00    +0.000 A 
ATOM     16  C   UNL     1       1.451   4.364  20.829  0.00  0.00    +0.000 A 
ATOM     17  C   UNL     1       1.536   3.187  21.571  0.00  0.00    +0.000 A 
ATOM     18  C   UNL     1       2.662   2.373  21.457  0.00  0.00    +0.000 A 
ATOM     19  C   UNL     1       3.690   2.711  20.573  0.00  0.00    +0.000 A 
ENDBRANCH   6  14
BRANCH   1  21
ATOM     20  C   UNL     1       2.576   2.553  16.981  0.00  0.00    +0.000 C 
ATOM     21  O   UNL     1       3.400   3.642  16.588  0.00  0.00    +0.000 OA
ENDBRANCH   1  21
TORSDOF 3
ENDMDL
MODEL 2
REMARK VINA RESULT:      -7.5      0.319      1.090
REMARK  Name = 
REMARK  6 active torsions:
REMARK  status: ('A' for Active; 'I' for Inactive)
REMARK    1  A    between atoms: C_1  and  O_2
REMARK    2  A    between atoms: O_2  and  C_3
REMARK    3  A    between atoms: C_4  and  C_5
REMARK    4  A    between atoms: C_9  and  C_10
REMARK    5  A    between atoms: C_12  and  C_13
REMARK    6  A    between atoms: N_15  and  C_16
REMARK                            x       y       z     vdW  Elec       q    Type
REMARK                         _______ _______ _______ _____ _____    ______ ____
ROOT
ATOM      1  C   UNL     1       4.543   4.108  17.181  0.00  0.00    +0.000 A 
ATOM      2  C   UNL     1       5.840   4.330  16.703  0.00  0.00    +0.000 A 
ATOM      3  C   UNL     1       6.640   4.488  17.869  0.00  0.00    +0.000 A 
ATOM      4  C   UNL     1       8.109   4.652  18.025  0.00  0.00    +0.000 C 
ATOM      5  N   UNL     1       5.897   4.508  18.975  0.00  0.00    +0.000 NA
ATOM      6  N   UNL     1       4.650   4.165  18.582  0.00  0.00    +0.000 N 
ENDROOT
BRANCH   2   7
ATOM      7  C   UNL     1       6.207   4.418  15.283  0.00  0.00    +0.000 A 
ATOM      8  C   UNL     1       7.302   5.192  14.872  0.00  0.00    +0.000 A 
ATOM      9  C   UNL     1       7.709   5.222  13.535  0.00  0.00    +0.000 A 
ATOM     10  C   UNL     1       7.039   4.453  12.590  0.00  0.00    +0.000 A 
ATOM     11  C   UNL     1       5.951   3.664  12.961  0.00  0.00    +0.000 A 
ATOM     12  C   UNL     1       5.264   2.787  11.955  0.00  0.00    +0.000 C 
ATOM     13  C   UNL     1       5.531   3.669  14.306  0.00  0.00    +0.000 A 
ENDBRANCH   2   7
BRANCH   6  14
ATOM     14  C   UNL     1       3.687   3.934  19.608  0.00  0.00    +0.000 A 
ATOM     15  C   UNL     1       3.687   2.693  20.267  0.00  0.00    +0.000 A 
ATOM     16  C   UNL     1       2.839   2.477  21.356  0.00  0.00    +0.000 A 
ATOM     17  C   UNL     1       1.981   3.490  21.779  0.00  0.00    +0.000 A 
ATOM     18  C   UNL     1       1.925   4.694  21.078  0.00  0.00    +0.000 A 
ATOM     19  C   UNL     1       2.755   4.906  19.975  0.00  0.00    +0.000 A 
ENDBRANCH   6  14
BRANCH   1  21
ATOM     20  C   UNL     1       2.503   2.869  16.835  0.00  0.00    +0.000 C 
ATOM     21  O   UNL     1       3.447   3.854  16.439  0.00  0.00    +0.000 OA
ENDBRANCH   1  21
TORSDOF 3
ENDMDL
MODEL 3
REMARK VINA RESULT:      -7.4      1.267      6.564
REMARK  Name = 
REMARK  6 active torsions:
REMARK  status: ('A' for Active; 'I' for Inactive)
REMARK    1  A    between atoms: C_1  and  O_2
REMARK    2  A    between atoms: O_2  and  C_3
REMARK    3  A    between atoms: C_4  and  C_5
REMARK    4  A    between atoms: C_9  and  C_10
REMARK    5  A    between atoms: C_12  and  C_13
REMARK    6  A    between atoms: N_15  and  C_16
REMARK                            x       y       z     vdW  Elec       q    Type
REMARK                         _______ _______ _______ _____ _____    ______ ____
ROOT
ATOM      1  C   UNL     1       4.834   4.574  16.783  0.00  0.00    +0.000 A 
ATOM      2  C   UNL     1       5.052   4.925  18.121  0.00  0.00    +0.000 A 
ATOM      3  C   UNL     1       6.447   5.186  18.211  0.00  0.00    +0.000 A 
ATOM      4  C   UNL     1       7.271   5.692  19.340  0.00  0.00    +0.000 C 
ATOM      5  N   UNL     1       7.076   4.890  17.074  0.00  0.00    +0.000 NA
ATOM      6  N   UNL     1       6.100   4.632  16.175  0.00  0.00    +0.000 N 
ENDROOT
BRANCH   2   7
ATOM      7  C   UNL     1       4.015   4.945  19.162  0.00  0.00    +0.000 A 
ATOM      8  C   UNL     1       3.211   6.079  19.352  0.00  0.00    +0.000 A 
ATOM      9  C   UNL     1       2.170   6.083  20.286  0.00  0.00    +0.000 A 
ATOM     10  C   UNL     1       1.901   4.939  21.027  0.00  0.00    +0.000 A 
ATOM     11  C   UNL     1       2.672   3.789  20.862  0.00  0.00    +0.000 A 
ATOM     12  C   UNL     1       2.347   2.534  21.617  0.00  0.00    +0.000 C 
ATOM     13  C   UNL     1       3.739   3.810  19.941  0.00  0.00    +0.000 A 
ENDBRANCH   2   7
BRANCH   6  14
ATOM     14  C   UNL     1       6.498   4.461  14.817  0.00  0.00    +0.000 A 
ATOM     15  C   UNL     1       5.810   3.528  14.023  0.00  0.00    +0.000 A 
ATOM     16  C   UNL     1       6.093   3.423  12.660  0.00  0.00    +0.000 A 
ATOM     17  C   UNL     1       7.072   4.233  12.089  0.00  0.00    +0.000 A 
ATOM     18  C   UNL     1       7.809   5.104  12.890  0.00  0.00    +0.000 A 
ATOM     19  C   UNL     1       7.544   5.197  14.259  0.00  0.00    +0.000 A 
ENDBRANCH   6  14
BRANCH   1  21
ATOM     20  C   UNL     1       2.839   3.222  16.693  0.00  0.00    +0.000 C 
ATOM     21  O   UNL     1       3.648   4.287  16.212  0.00  0.00    +0.000 OA
ENDBRANCH   1  21
TORSDOF 3
ENDMDL
MODEL 4
REMARK VINA RESULT:      -7.4      3.890      5.812
REMARK  Name = 
REMARK  6 active torsions:
REMARK  status: ('A' for Active; 'I' for Inactive)
REMARK    1  A    between atoms: C_1  and  O_2
REMARK    2  A    between atoms: O_2  and  C_3
REMARK    3  A    between atoms: C_4  and  C_5
REMARK    4  A    between atoms: C_9  and  C_10
REMARK    5  A    between atoms: C_12  and  C_13
REMARK    6  A    between atoms: N_15  and  C_16
REMARK                            x       y       z     vdW  Elec       q    Type
REMARK                         _______ _______ _______ _____ _____    ______ ____
ROOT
ATOM      1  C   UNL     1       2.384   7.348  19.541  0.00  0.00    +0.000 A 
ATOM      2  C   UNL     1       2.693   5.983  19.543  0.00  0.00    +0.000 A 
ATOM      3  C   UNL     1       1.888   5.423  20.574  0.00  0.00    +0.000 A 
ATOM      4  C   UNL     1       1.693   4.013  20.999  0.00  0.00    +0.000 C 
ATOM      5  N   UNL     1       1.238   6.367  21.255  0.00  0.00    +0.000 NA
ATOM      6  N   UNL     1       1.439   7.515  20.569  0.00  0.00    +0.000 N 
ENDROOT
BRANCH   2   7
ATOM      7  C   UNL     1       3.689   5.347  18.669  0.00  0.00    +0.000 A 
ATOM      8  C   UNL     1       3.291   4.640  17.524  0.00  0.00    +0.000 A 
ATOM      9  C   UNL     1       4.231   4.097  16.643  0.00  0.00    +0.000 A 
ATOM     10  C   UNL     1       5.588   4.278  16.880  0.00  0.00    +0.000 A 
ATOM     11  C   UNL     1       6.023   4.981  18.003  0.00  0.00    +0.000 A 
ATOM     12  C   UNL     1       7.486   5.229  18.231  0.00  0.00    +0.000 C 
ATOM     13  C   UNL     1       5.066   5.494  18.900  0.00  0.00    +0.000 A 
ENDBRANCH   2   7
BRANCH   6  14
ATOM     14  C   UNL     1       0.698   8.658  20.987  0.00  0.00    +0.000 A 
ATOM     15  C   UNL     1       0.467   8.850  22.359  0.00  0.00    +0.000 A 
ATOM     16  C   UNL     1      -0.149  10.019  22.811  0.00  0.00    +0.000 A 
ATOM     17  C   UNL     1      -0.550  10.990  21.896  0.00  0.00    +0.000 A 
ATOM     18  C   UNL     1      -0.392  10.767  20.529  0.00  0.00    +0.000 A 
ATOM     19  C   UNL     1       0.204   9.589  20.072  0.00  0.00    +0.000 A 
ENDBRANCH   6  14
BRANCH   1  21
ATOM     20  C   UNL     1       2.185   8.612  17.497  0.00  0.00    +0.000 C 
ATOM     21  O   UNL     1       2.870   8.279  18.697  0.00  0.00    +0.000 OA
ENDBRANCH   1  21
TORSDOF 3
ENDMDL
MODEL 5
REMARK VINA RESULT:      -7.4      3.878      5.736
REMARK  Name = 
REMARK  6 active torsions:
REMARK  status: ('A' for Active; 'I' for Inactive)
REMARK    1  A    between atoms: C_1  and  O_2
REMARK    2  A    between atoms: O_2  and  C_3
REMARK    3  A    between atoms: C_4  and  C_5
REMARK    4  A    between atoms: C_9  and  C_10
REMARK    5  A    between atoms: C_12  and  C_13
REMARK    6  A    between atoms: N_15  and  C_16
REMARK                            x       y       z     vdW  Elec       q    Type
REMARK                         _______ _______ _______ _____ _____    ______ ____
ROOT
ATOM      1  C   UNL     1       2.425   7.325  19.532  0.00  0.00    +0.000 A 
ATOM      2  C   UNL     1       2.677   5.948  19.522  0.00  0.00    +0.000 A 
ATOM      3  C   UNL     1       1.863   5.416  20.561  0.00  0.00    +0.000 A 
ATOM      4  C   UNL     1       1.616   4.012  20.981  0.00  0.00    +0.000 C 
ATOM      5  N   UNL     1       1.262   6.382  21.256  0.00  0.00    +0.000 NA
ATOM      6  N   UNL     1       1.501   7.524  20.574  0.00  0.00    +0.000 N 
ENDROOT
BRANCH   2   7
ATOM      7  C   UNL     1       3.634   5.277  18.631  0.00  0.00    +0.000 A 
ATOM      8  C   UNL     1       3.188   4.556  17.513  0.00  0.00    +0.000 A 
ATOM      9  C   UNL     1       4.090   3.979  16.614  0.00  0.00    +0.000 A 
ATOM     10  C   UNL     1       5.458   4.139  16.807  0.00  0.00    +0.000 A 
ATOM     11  C   UNL     1       5.940   4.856  17.901  0.00  0.00    +0.000 A 
ATOM     12  C   UNL     1       7.413   5.081  18.080  0.00  0.00    +0.000 C 
ATOM     13  C   UNL     1       5.020   5.403  18.818  0.00  0.00    +0.000 A 
ENDBRANCH   2   7
BRANCH   6  14
ATOM     14  C   UNL     1       0.813   8.694  21.008  0.00  0.00    +0.000 A 
ATOM     15  C   UNL     1       0.229   9.532  20.044  0.00  0.00    +0.000 A 
ATOM     16  C   UNL     1      -0.554  10.619  20.439  0.00  0.00    +0.000 A 
ATOM     17  C   UNL     1      -0.742  10.882  21.794  0.00  0.00    +0.000 A 
ATOM     18  C   UNL     1      -0.100  10.098  22.752  0.00  0.00    +0.000 A 
ATOM     19  C   UNL     1       0.701   9.023  22.360  0.00  0.00    +0.000 A 
ENDBRANCH   6  14
BRANCH   1  21
ATOM     20  C   UNL     1       2.258   8.595  17.489  0.00  0.00    +0.000 C 
ATOM     21  O   UNL     1       2.936   8.240  18.686  0.00  0.00    +0.000 OA
ENDBRANCH   1  21
TORSDOF 3
ENDMDL
MODEL 6
REMARK VINA RESULT:      -7.4      7.842     11.434
REMARK  Name = 
REMARK  6 active torsions:
REMARK  status: ('A' for Active; 'I' for Inactive)
REMARK    1  A    between atoms: C_1  and  O_2
REMARK    2  A    between atoms: O_2  and  C_3
REMARK    3  A    between atoms: C_4  and  C_5
REMARK    4  A    between atoms: C_9  and  C_10
REMARK    5  A    between atoms: C_12  and  C_13
REMARK    6  A    between atoms: N_15  and  C_16
REMARK                            x       y       z     vdW  Elec       q    Type
REMARK                         _______ _______ _______ _____ _____    ______ ____
ROOT
ATOM      1  C   UNL     1       0.082  10.695  21.319  0.00  0.00    +0.000 A 
ATOM      2  C   UNL     1      -0.987  11.592  21.215  0.00  0.00    +0.000 A 
ATOM      3  C   UNL     1      -1.361  11.562  19.843  0.00  0.00    +0.000 A 
ATOM      4  C   UNL     1      -2.485  12.220  19.127  0.00  0.00    +0.000 C 
ATOM      5  N   UNL     1      -0.517  10.826  19.120  0.00  0.00    +0.000 NA
ATOM      6  N   UNL     1       0.285  10.208  20.015  0.00  0.00    +0.000 N 
ENDROOT
BRANCH   2   7
ATOM      7  C   UNL     1      -1.519  12.395  22.324  0.00  0.00    +0.000 A 
ATOM      8  C   UNL     1      -0.890  13.588  22.713  0.00  0.00    +0.000 A 
ATOM      9  C   UNL     1      -1.429  14.400  23.715  0.00  0.00    +0.000 A 
ATOM     10  C   UNL     1      -2.625  14.043  24.326  0.00  0.00    +0.000 A 
ATOM     11  C   UNL     1      -3.285  12.870  23.963  0.00  0.00    +0.000 A 
ATOM     12  C   UNL     1      -4.606  12.512  24.579  0.00  0.00    +0.000 C 
ATOM     13  C   UNL     1      -2.713  12.043  22.975  0.00  0.00    +0.000 A 
ENDBRANCH   2   7
BRANCH   6  14
ATOM     14  C   UNL     1       1.171   9.211  19.511  0.00  0.00    +0.000 A 
ATOM     15  C   UNL     1       1.484   8.111  20.327  0.00  0.00    +0.000 A 
ATOM     16  C   UNL     1       2.250   7.059  19.822  0.00  0.00    +0.000 A 
ATOM     17  C   UNL     1       2.719   7.108  18.510  0.00  0.00    +0.000 A 
ATOM     18  C   UNL     1       2.474   8.234  17.725  0.00  0.00    +0.000 A 
ATOM     19  C   UNL     1       1.726   9.298  18.234  0.00  0.00    +0.000 A 
ENDBRANCH   6  14
BRANCH   1  21
ATOM     20  C   UNL     1       0.155   9.469  23.394  0.00  0.00    +0.000 C 
ATOM     21  O   UNL     1       0.736  10.353  22.446  0.00  0.00    +0.000 OA
ENDBRANCH   1  21
TORSDOF 3
ENDMDL
MODEL 7
REMARK VINA RESULT:      -7.4      1.254      6.562
REMARK  Name = 
REMARK  6 active torsions:
REMARK  status: ('A' for Active; 'I' for Inactive)
REMARK    1  A    between atoms: C_1  and  O_2
REMARK    2  A    between atoms: O_2  and  C_3
REMARK    3  A    between atoms: C_4  and  C_5
REMARK    4  A    between atoms: C_9  and  C_10
REMARK    5  A    between atoms: C_12  and  C_13
REMARK    6  A    between atoms: N_15  and  C_16
REMARK                            x       y       z     vdW  Elec       q    Type
REMARK                         _______ _______ _______ _____ _____    ______ ____
ROOT
ATOM      1  C   UNL     1       4.689   4.536  16.746  0.00  0.00    +0.000 A 
ATOM      2  C   UNL     1       4.958   4.883  18.075  0.00  0.00    +0.000 A 
ATOM      3  C   UNL     1       6.349   5.177  18.106  0.00  0.00    +0.000 A 
ATOM      4  C   UNL     1       7.210   5.695  19.201  0.00  0.00    +0.000 C 
ATOM      5  N   UNL     1       6.934   4.904  16.940  0.00  0.00    +0.000 NA
ATOM      6  N   UNL     1       5.926   4.628  16.083  0.00  0.00    +0.000 N 
ENDROOT
BRANCH   2   7
ATOM      7  C   UNL     1       3.968   4.871  19.161  0.00  0.00    +0.000 A 
ATOM      8  C   UNL     1       3.167   5.995  19.414  0.00  0.00    +0.000 A 
ATOM      9  C   UNL     1       2.169   5.969  20.393  0.00  0.00    +0.000 A 
ATOM     10  C   UNL     1       1.938   4.805  21.117  0.00  0.00    +0.000 A 
ATOM     11  C   UNL     1       2.708   3.665  20.890  0.00  0.00    +0.000 A 
ATOM     12  C   UNL     1       2.423   2.390  21.628  0.00  0.00    +0.000 C 
ATOM     13  C   UNL     1       3.733   3.715  19.924  0.00  0.00    +0.000 A 
ENDBRANCH   2   7
BRANCH   6  14
ATOM     14  C   UNL     1       6.268   4.476  14.707  0.00  0.00    +0.000 A 
ATOM     15  C   UNL     1       7.354   5.206  14.196  0.00  0.00    +0.000 A 
ATOM     16  C   UNL     1       7.790   4.991  12.887  0.00  0.00    +0.000 A 
ATOM     17  C   UNL     1       7.136   4.061  12.081  0.00  0.00    +0.000 A 
ATOM     18  C   UNL     1       6.011   3.392  12.562  0.00  0.00    +0.000 A 
ATOM     19  C   UNL     1       5.558   3.621  13.863  0.00  0.00    +0.000 A 
ENDBRANCH   6  14
BRANCH   1  21
ATOM     20  C   UNL     1       2.744   3.111  16.704  0.00  0.00    +0.000 C 
ATOM     21  O   UNL     1       3.486   4.225  16.225  0.00  0.00    +0.000 OA
ENDBRANCH   1  21
TORSDOF 3
ENDMDL
MODEL 8
REMARK VINA RESULT:      -7.2      7.818     11.370
REMARK  Name = 
REMARK  6 active torsions:
REMARK  status: ('A' for Active; 'I' for Inactive)
REMARK    1  A    between atoms: C_1  and  O_2
REMARK    2  A    between atoms: O_2  and  C_3
REMARK    3  A    between atoms: C_4  and  C_5
REMARK    4  A    between atoms: C_9  and  C_10
REMARK    5  A    between atoms: C_12  and  C_13
REMARK    6  A    between atoms: N_15  and  C_16
REMARK                            x       y       z     vdW  Elec       q    Type
REMARK                         _______ _______ _______ _____ _____    ______ ____
ROOT
ATOM      1  C   UNL     1       0.076  10.634  21.286  0.00  0.00    +0.000 A 
ATOM      2  C   UNL     1      -0.963  11.567  21.183  0.00  0.00    +0.000 A 
ATOM      3  C   UNL     1      -1.352  11.536  19.816  0.00  0.00    +0.000 A 
ATOM      4  C   UNL     1      -2.460  12.224  19.104  0.00  0.00    +0.000 C 
ATOM      5  N   UNL     1      -0.541  10.764  19.092  0.00  0.00    +0.000 NA
ATOM      6  N   UNL     1       0.249  10.128  19.986  0.00  0.00    +0.000 N 
ENDROOT
BRANCH   2   7
ATOM      7  C   UNL     1      -1.456  12.398  22.290  0.00  0.00    +0.000 A 
ATOM      8  C   UNL     1      -0.825  13.609  22.614  0.00  0.00    +0.000 A 
ATOM      9  C   UNL     1      -1.330  14.447  23.612  0.00  0.00    +0.000 A 
ATOM     10  C   UNL     1      -2.495  14.097  24.286  0.00  0.00    +0.000 A 
ATOM     11  C   UNL     1      -3.155  12.906  23.988  0.00  0.00    +0.000 A 
ATOM     12  C   UNL     1      -4.444  12.554  24.671  0.00  0.00    +0.000 C 
ATOM     13  C   UNL     1      -2.616  12.055  23.002  0.00  0.00    +0.000 A 
ENDBRANCH   2   7
BRANCH   6  14
ATOM     14  C   UNL     1       1.095   9.097  19.484  0.00  0.00    +0.000 A 
ATOM     15  C   UNL     1       1.585   9.203  18.172  0.00  0.00    +0.000 A 
ATOM     16  C   UNL     1       2.512   8.275  17.691  0.00  0.00    +0.000 A 
ATOM     17  C   UNL     1       2.939   7.232  18.511  0.00  0.00    +0.000 A 
ATOM     18  C   UNL     1       2.396   7.081  19.786  0.00  0.00    +0.000 A 
ATOM     19  C   UNL     1       1.452   7.995  20.262  0.00  0.00    +0.000 A 
ENDBRANCH   6  14
BRANCH   1  21
ATOM     20  C   UNL     1       0.121   9.445  23.384  0.00  0.00    +0.000 C 
ATOM     21  O   UNL     1       0.730  10.283  22.411  0.00  0.00    +0.000 OA
ENDBRANCH   1  21
TORSDOF 3
ENDMDL
MODEL 9
REMARK VINA RESULT:      -7.2      1.335      1.450
REMARK  Name = 
REMARK  6 active torsions:
REMARK  status: ('A' for Active; 'I' for Inactive)
REMARK    1  A    between atoms: C_1  and  O_2
REMARK    2  A    between atoms: O_2  and  C_3
REMARK    3  A    between atoms: C_4  and  C_5
REMARK    4  A    between atoms: C_9  and  C_10
REMARK    5  A    between atoms: C_12  and  C_13
REMARK    6  A    between atoms: N_15  and  C_16
REMARK                            x       y       z     vdW  Elec       q    Type
REMARK                         _______ _______ _______ _____ _____    ______ ____
ROOT
ATOM      1  C   UNL     1       4.037   3.935  17.206  0.00  0.00    +0.000 A 
ATOM      2  C   UNL     1       4.798   4.911  16.552  0.00  0.00    +0.000 A 
ATOM      3  C   UNL     1       4.657   6.083  17.346  0.00  0.00    +0.000 A 
ATOM      4  C   UNL     1       5.298   7.419  17.230  0.00  0.00    +0.000 C 
ATOM      5  N   UNL     1       3.774   5.906  18.329  0.00  0.00    +0.000 NA
ATOM      6  N   UNL     1       3.484   4.586  18.324  0.00  0.00    +0.000 N 
ENDROOT
BRANCH   2   7
ATOM      7  C   UNL     1       5.520   4.703  15.289  0.00  0.00    +0.000 A 
ATOM      8  C   UNL     1       6.886   5.009  15.185  0.00  0.00    +0.000 A 
ATOM      9  C   UNL     1       7.602   4.744  14.014  0.00  0.00    +0.000 A 
ATOM     10  C   UNL     1       6.966   4.141  12.935  0.00  0.00    +0.000 A 
ATOM     11  C   UNL     1       5.612   3.815  13.002  0.00  0.00    +0.000 A 
ATOM     12  C   UNL     1       4.936   3.111  11.862  0.00  0.00    +0.000 C 
ATOM     13  C   UNL     1       4.895   4.119  14.176  0.00  0.00    +0.000 A 
ENDBRANCH   2   7
BRANCH   6  14
ATOM     14  C   UNL     1       2.692   4.092  19.401  0.00  0.00    +0.000 A 
ATOM     15  C   UNL     1       1.346   3.770  19.160  0.00  0.00    +0.000 A 
ATOM     16  C   UNL     1       0.577   3.172  20.160  0.00  0.00    +0.000 A 
ATOM     17  C   UNL     1       1.142   2.908  21.406  0.00  0.00    +0.000 A 
ATOM     18  C   UNL     1       2.455   3.296  21.672  0.00  0.00    +0.000 A 
ATOM     19  C   UNL     1       3.221   3.916  20.681  0.00  0.00    +0.000 A 
ENDBRANCH   6  14
BRANCH   1  21
ATOM     20  C   UNL     1       3.908   1.607  17.819  0.00  0.00    +0.000 C 
ATOM     21  O   UNL     1       3.909   2.643  16.847  0.00  0.00    +0.000 OA
ENDBRANCH   1  21
TORSDOF 3
ENDMDL
