MODEL 1
REMARK VINA RESULT:      -8.1      0.000      0.000
REMARK  Name = 
REMARK  11 active torsions:
REMARK  status: ('A' for Active; 'I' for Inactive)
REMARK    1  A    between atoms: C_1  and  O_2
REMARK    2  A    between atoms: O_2  and  C_3
REMARK    3  A    between atoms: C_5  and  N_6
REMARK    4  A    between atoms: N_15  and  C_16
REMARK    5  A    between atoms: C_20  and  N_21
REMARK    6  A    between atoms: N_21  and  C_22
REMARK    7  A    between atoms: N_21  and  C_23
REMARK    8  A    between atoms: C_29  and  O_30
REMARK    9  A    between atoms: O_30  and  C_31
REMARK   10  A    between atoms: C_32  and  O_33
REMARK   11  A    between atoms: O_33  and  C_34
REMARK                            x       y       z     vdW  Elec       q    Type
REMARK                         _______ _______ _______ _____ _____    ______ ____
ROOT
ATOM      1  N   UNL     1       2.041   7.124  20.031  0.00  0.00    +0.000 N 
ATOM      2  C   UNL     1       1.855   8.311  19.365  0.00  0.00    +0.000 C 
ATOM      3  O   UNL     1       2.078   8.486  18.172  0.00  0.00    +0.000 OA
ATOM      4  N   UNL     1       1.348   9.354  20.102  0.00  0.00    +0.000 N 
ATOM      5  C   UNL     1       0.955  10.563  19.388  0.00  0.00    +0.000 C 
ATOM      6  C   UNL     1       0.130  11.278  20.379  0.00  0.00    +0.000 A 
ATOM      7  C   UNL     1      -0.727  12.320  20.236  0.00  0.00    +0.000 A 
ATOM      8  N   UNL     1      -1.423  12.789  21.282  0.00  0.00    +0.000 NA
ATOM      9  C   UNL     1      -1.228  12.221  22.496  0.00  0.00    +0.000 A 
ATOM     10  N   UNL     1      -1.899  12.755  23.595  0.00  0.00    +0.000 N 
ATOM     11  N   UNL     1      -0.379  11.195  22.725  0.00  0.00    +0.000 NA
ATOM     12  C   UNL     1       0.259  10.734  21.638  0.00  0.00    +0.000 A 
ATOM     13  C   UNL     1       1.166   9.522  21.557  0.00  0.00    +0.000 C 
ATOM     14  H   UNL     1       1.558   7.009  20.905  0.00  0.00    +0.000 HD
ATOM     15  H   UNL     1      -1.568  12.366  24.463  0.00  0.00    +0.000 HD
ENDROOT
BRANCH   1  18
ATOM     16  C   UNL     1       4.566   4.510  19.047  0.00  0.00    +0.000 A 
ATOM     17  C   UNL     1       4.009   5.725  19.491  0.00  0.00    +0.000 A 
ATOM     18  C   UNL     1       2.639   5.954  19.482  0.00  0.00    +0.000 A 
ATOM     19  C   UNL     1       1.817   4.963  18.949  0.00  0.00    +0.000 A 
ATOM     20  C   UNL     1       2.353   3.771  18.412  0.00  0.00    +0.000 A 
ATOM     21  C   UNL     1       3.747   3.535  18.448  0.00  0.00    +0.000 A 
BRANCH  16  23
ATOM     22  C   UNL     1       6.738   4.769  18.130  0.00  0.00    +0.000 C 
ATOM     23  O   UNL     1       5.914   4.281  19.193  0.00  0.00    +0.000 OA
ENDBRANCH  16  23
BRANCH  20  24
ATOM     24  O   UNL     1       1.364   2.952  17.918  0.00  0.00    +0.000 OA
ATOM     25  C   UNL     1       0.514   2.254  18.819  0.00  0.00    +0.000 C 
ENDBRANCH  20  24
BRANCH  21  26
ATOM     26  O   UNL     1       4.174   2.362  17.887  0.00  0.00    +0.000 OA
ATOM     27  C   UNL     1       3.992   1.115  18.534  0.00  0.00    +0.000 C 
ENDBRANCH  21  26
ENDBRANCH   1  18
BRANCH  10  28
ATOM     28  C   UNL     1      -3.144  13.408  23.635  0.00  0.00    +0.000 A 
ATOM     29  C   UNL     1      -3.219  14.698  24.161  0.00  0.00    +0.000 A 
ATOM     30  C   UNL     1      -4.429  15.386  24.152  0.00  0.00    +0.000 A 
ATOM     31  C   UNL     1      -5.579  14.782  23.632  0.00  0.00    +0.000 A 
ATOM     32  C   UNL     1      -5.568  13.479  23.110  0.00  0.00    +0.000 A 
ATOM     33  C   UNL     1      -4.319  12.827  23.117  0.00  0.00    +0.000 A 
BRANCH  32  34
ATOM     34  N   UNL     1      -6.715  12.903  22.581  0.00  0.00    +0.000 N 
ATOM     35  C   UNL     1      -7.189  13.241  21.241  0.00  0.00    +0.000 C 
ATOM     36  C   UNL     1      -7.677  12.185  23.411  0.00  0.00    +0.000 C 
ENDBRANCH  32  34
ENDBRANCH  10  28
TORSDOF 6
ENDMDL
MODEL 2
REMARK VINA RESULT:      -7.9      1.084      1.084
REMARK  Name = 
REMARK  11 active torsions:
REMARK  status: ('A' for Active; 'I' for Inactive)
REMARK    1  A    between atoms: C_1  and  O_2
REMARK    2  A    between atoms: O_2  and  C_3
REMARK    3  A    between atoms: C_5  and  N_6
REMARK    4  A    between atoms: N_15  and  C_16
REMARK    5  A    between atoms: C_20  and  N_21
REMARK    6  A    between atoms: N_21  and  C_22
REMARK    7  A    between atoms: N_21  and  C_23
REMARK    8  A    between atoms: C_29  and  O_30
REMARK    9  A    between atoms: O_30  and  C_31
REMARK   10  A    between atoms: C_32  and  O_33
REMARK   11  A    between atoms: O_33  and  C_34
REMARK                            x       y       z     vdW  Elec       q    Type
REMARK                         _______ _______ _______ _____ _____    ______ ____
ROOT
ATOM      1  N   UNL     1       1.750   7.269  20.605  0.00  0.00    +0.000 N 
ATOM      2  C   UNL     1       1.576   8.421  19.874  0.00  0.00    +0.000 C 
ATOM      3  O   UNL     1       1.838   8.538  18.683  0.00  0.00    +0.000 OA
ATOM      4  N   UNL     1       1.038   9.493  20.542  0.00  0.00    +0.000 N 
ATOM      5  C   UNL     1       0.660  10.662  19.756  0.00  0.00    +0.000 C 
ATOM      6  C   UNL     1      -0.203  11.418  20.682  0.00  0.00    +0.000 A 
ATOM      7  C   UNL     1      -1.063  12.443  20.460  0.00  0.00    +0.000 A 
ATOM      8  N   UNL     1      -1.796  12.958  21.458  0.00  0.00    +0.000 NA
ATOM      9  C   UNL     1      -1.637  12.453  22.705  0.00  0.00    +0.000 A 
ATOM     10  N   UNL     1      -2.349  13.034  23.754  0.00  0.00    +0.000 N 
ATOM     11  N   UNL     1      -0.789  11.447  23.012  0.00  0.00    +0.000 NA
ATOM     12  C   UNL     1      -0.112  10.938  21.970  0.00  0.00    +0.000 A 
ATOM     13  C   UNL     1       0.806   9.732  21.980  0.00  0.00    +0.000 C 
ATOM     14  H   UNL     1       1.239   7.193  21.467  0.00  0.00    +0.000 HD
ATOM     15  H   UNL     1      -2.044  12.691  24.650  0.00  0.00    +0.000 HD
ENDROOT
BRANCH   1  18
ATOM     16  C   UNL     1       4.170   4.893  18.972  0.00  0.00    +0.000 A 
ATOM     17  C   UNL     1       3.505   6.081  19.328  0.00  0.00    +0.000 A 
ATOM     18  C   UNL     1       2.374   6.079  20.135  0.00  0.00    +0.000 A 
ATOM     19  C   UNL     1       1.863   4.846  20.535  0.00  0.00    +0.000 A 
ATOM     20  C   UNL     1       2.455   3.632  20.120  0.00  0.00    +0.000 A 
ATOM     21  C   UNL     1       3.620   3.644  19.318  0.00  0.00    +0.000 A 
BRANCH  16  23
ATOM     22  C   UNL     1       5.239   5.293  16.893  0.00  0.00    +0.000 C 
ATOM     23  O   UNL     1       5.355   4.953  18.277  0.00  0.00    +0.000 OA
ENDBRANCH  16  23
BRANCH  20  24
ATOM     24  O   UNL     1       1.770   2.544  20.609  0.00  0.00    +0.000 OA
ATOM     25  C   UNL     1       1.345   2.533  21.966  0.00  0.00    +0.000 C 
ENDBRANCH  20  24
BRANCH  21  26
ATOM     26  O   UNL     1       4.110   2.421  18.949  0.00  0.00    +0.000 OA
ATOM     27  C   UNL     1       3.513   1.658  17.915  0.00  0.00    +0.000 C 
ENDBRANCH  21  26
ENDBRANCH   1  18
BRANCH  10  28
ATOM     28  C   UNL     1      -3.599  13.677  23.720  0.00  0.00    +0.000 A 
ATOM     29  C   UNL     1      -3.696  15.000  24.152  0.00  0.00    +0.000 A 
ATOM     30  C   UNL     1      -4.909  15.675  24.068  0.00  0.00    +0.000 A 
ATOM     31  C   UNL     1      -6.044  15.025  23.567  0.00  0.00    +0.000 A 
ATOM     32  C   UNL     1      -6.011  13.689  23.139  0.00  0.00    +0.000 A 
ATOM     33  C   UNL     1      -4.757  13.050  23.219  0.00  0.00    +0.000 A 
BRANCH  32  34
ATOM     34  N   UNL     1      -7.141  13.066  22.627  0.00  0.00    +0.000 N 
ATOM     35  C   UNL     1      -7.909  13.660  21.535  0.00  0.00    +0.000 C 
ATOM     36  C   UNL     1      -7.810  11.973  23.326  0.00  0.00    +0.000 C 
ENDBRANCH  32  34
ENDBRANCH  10  28
TORSDOF 6
ENDMDL
MODEL 3
REMARK VINA RESULT:      -7.8      1.070      1.869
REMARK  Name = 
REMARK  11 active torsions:
REMARK  status: ('A' for Active; 'I' for Inactive)
REMARK    1  A    between atoms: C_1  and  O_2
REMARK    2  A    between atoms: O_2  and  C_3
REMARK    3  A    between atoms: C_5  and  N_6
REMARK    4  A    between atoms: N_15  and  C_16
REMARK    5  A    between atoms: C_20  and  N_21
REMARK    6  A    between atoms: N_21  and  C_22
REMARK    7  A    between atoms: N_21  and  C_23
REMARK    8  A    between atoms: C_29  and  O_30
REMARK    9  A    between atoms: O_30  and  C_31
REMARK   10  A    between atoms: C_32  and  O_33
REMARK   11  A    between atoms: O_33  and  C_34
REMARK                            x       y       z     vdW  Elec       q    Type
REMARK                         _______ _______ _______ _____ _____    ______ ____
ROOT
ATOM      1  N   UNL     1       2.038   7.142  20.017  0.00  0.00    +0.000 N 
ATOM      2  C   UNL     1       1.839   8.321  19.340  0.00  0.00    +0.000 C 
ATOM      3  O   UNL     1       2.045   8.483  18.143  0.00  0.00    +0.000 OA
ATOM      4  N   UNL     1       1.341   9.371  20.074  0.00  0.00    +0.000 N 
ATOM      5  C   UNL     1       0.936  10.571  19.351  0.00  0.00    +0.000 C 
ATOM      6  C   UNL     1       0.123  11.296  20.345  0.00  0.00    +0.000 A 
ATOM      7  C   UNL     1      -0.738  12.334  20.203  0.00  0.00    +0.000 A 
ATOM      8  N   UNL     1      -1.419  12.815  21.253  0.00  0.00    +0.000 NA
ATOM      9  C   UNL     1      -1.205  12.261  22.472  0.00  0.00    +0.000 A 
ATOM     10  N   UNL     1      -1.862  12.806  23.574  0.00  0.00    +0.000 N 
ATOM     11  N   UNL     1      -0.352  11.239  22.700  0.00  0.00    +0.000 NA
ATOM     12  C   UNL     1       0.272  10.767  21.608  0.00  0.00    +0.000 A 
ATOM     13  C   UNL     1       1.180   9.555  21.529  0.00  0.00    +0.000 C 
ATOM     14  H   UNL     1       1.568   7.036  20.900  0.00  0.00    +0.000 HD
ATOM     15  H   UNL     1      -1.518  12.427  24.441  0.00  0.00    +0.000 HD
ENDROOT
BRANCH   1  18
ATOM     16  C   UNL     1       4.547   4.504  19.059  0.00  0.00    +0.000 A 
ATOM     17  C   UNL     1       3.998   5.724  19.498  0.00  0.00    +0.000 A 
ATOM     18  C   UNL     1       2.630   5.967  19.474  0.00  0.00    +0.000 A 
ATOM     19  C   UNL     1       1.805   4.985  18.930  0.00  0.00    +0.000 A 
ATOM     20  C   UNL     1       2.334   3.789  18.397  0.00  0.00    +0.000 A 
ATOM     21  C   UNL     1       3.726   3.539  18.448  0.00  0.00    +0.000 A 
BRANCH  16  23
ATOM     22  C   UNL     1       6.762   5.084  18.437  0.00  0.00    +0.000 C 
ATOM     23  O   UNL     1       5.891   4.262  19.219  0.00  0.00    +0.000 OA
ENDBRANCH  16  23
BRANCH  20  24
ATOM     24  O   UNL     1       1.343   2.980  17.889  0.00  0.00    +0.000 OA
ATOM     25  C   UNL     1       0.559   2.191  18.775  0.00  0.00    +0.000 C 
ENDBRANCH  20  24
BRANCH  21  26
ATOM     26  O   UNL     1       4.147   2.362  17.890  0.00  0.00    +0.000 OA
ATOM     27  C   UNL     1       4.021   1.126  18.570  0.00  0.00    +0.000 C 
ENDBRANCH  21  26
ENDBRANCH   1  18
BRANCH  10  28
ATOM     28  C   UNL     1      -3.108  13.457  23.624  0.00  0.00    +0.000 A 
ATOM     29  C   UNL     1      -4.275  12.694  23.619  0.00  0.00    +0.000 A 
ATOM     30  C   UNL     1      -5.516  13.315  23.732  0.00  0.00    +0.000 A 
ATOM     31  C   UNL     1      -5.600  14.708  23.834  0.00  0.00    +0.000 A 
ATOM     32  C   UNL     1      -4.460  15.528  23.823  0.00  0.00    +0.000 A 
ATOM     33  C   UNL     1      -3.224  14.858  23.731  0.00  0.00    +0.000 A 
BRANCH  32  34
ATOM     34  N   UNL     1      -4.562  16.907  23.944  0.00  0.00    +0.000 N 
ATOM     35  C   UNL     1      -4.099  17.801  22.885  0.00  0.00    +0.000 C 
ATOM     36  C   UNL     1      -4.832  17.557  25.223  0.00  0.00    +0.000 C 
ENDBRANCH  32  34
ENDBRANCH  10  28
TORSDOF 6
ENDMDL
MODEL 4
REMARK VINA RESULT:      -7.8      1.489      2.160
REMARK  Name = 
REMARK  11 active torsions:
REMARK  status: ('A' for Active; 'I' for Inactive)
REMARK    1  A    between atoms: C_1  and  O_2
REMARK    2  A    between atoms: O_2  and  C_3
REMARK    3  A    between atoms: C_5  and  N_6
REMARK    4  A    between atoms: N_15  and  C_16
REMARK    5  A    between atoms: C_20  and  N_21
REMARK    6  A    between atoms: N_21  and  C_22
REMARK    7  A    between atoms: N_21  and  C_23
REMARK    8  A    between atoms: C_29  and  O_30
REMARK    9  A    between atoms: O_30  and  C_31
REMARK   10  A    between atoms: C_32  and  O_33
REMARK   11  A    between atoms: O_33  and  C_34
REMARK                            x       y       z     vdW  Elec       q    Type
REMARK                         _______ _______ _______ _____ _____    ______ ____
ROOT
ATOM      1  N   UNL     1       1.805   7.182  20.677  0.00  0.00    +0.000 N 
ATOM      2  C   UNL     1       1.598   8.308  19.918  0.00  0.00    +0.000 C 
ATOM      3  O   UNL     1       1.834   8.395  18.718  0.00  0.00    +0.000 OA
ATOM      4  N   UNL     1       1.055   9.391  20.566  0.00  0.00    +0.000 N 
ATOM      5  C   UNL     1       0.643  10.530  19.754  0.00  0.00    +0.000 C 
ATOM      6  C   UNL     1      -0.214  11.299  20.676  0.00  0.00    +0.000 A 
ATOM      7  C   UNL     1      -1.094  12.304  20.442  0.00  0.00    +0.000 A 
ATOM      8  N   UNL     1      -1.816  12.836  21.439  0.00  0.00    +0.000 NA
ATOM      9  C   UNL     1      -1.624  12.369  22.697  0.00  0.00    +0.000 A 
ATOM     10  N   UNL     1      -2.323  12.970  23.743  0.00  0.00    +0.000 N 
ATOM     11  N   UNL     1      -0.753  11.386  23.016  0.00  0.00    +0.000 NA
ATOM     12  C   UNL     1      -0.089  10.859  21.975  0.00  0.00    +0.000 A 
ATOM     13  C   UNL     1       0.849   9.667  22.001  0.00  0.00    +0.000 C 
ATOM     14  H   UNL     1       1.313   7.122  21.552  0.00  0.00    +0.000 HD
ATOM     15  H   UNL     1      -1.995  12.658  24.642  0.00  0.00    +0.000 HD
ENDROOT
BRANCH   1  18
ATOM     16  C   UNL     1       4.247   4.795  19.092  0.00  0.00    +0.000 A 
ATOM     17  C   UNL     1       3.572   5.985  19.425  0.00  0.00    +0.000 A 
ATOM     18  C   UNL     1       2.439   5.988  20.229  0.00  0.00    +0.000 A 
ATOM     19  C   UNL     1       1.935   4.758  20.648  0.00  0.00    +0.000 A 
ATOM     20  C   UNL     1       2.537   3.542  20.254  0.00  0.00    +0.000 A 
ATOM     21  C   UNL     1       3.705   3.549  19.456  0.00  0.00    +0.000 A 
BRANCH  16  23
ATOM     22  C   UNL     1       6.535   5.425  19.113  0.00  0.00    +0.000 C 
ATOM     23  O   UNL     1       5.434   4.853  18.400  0.00  0.00    +0.000 OA
ENDBRANCH  16  23
BRANCH  20  24
ATOM     24  O   UNL     1       1.858   2.457  20.758  0.00  0.00    +0.000 OA
ATOM     25  C   UNL     1       1.271   2.534  22.051  0.00  0.00    +0.000 C 
ENDBRANCH  20  24
BRANCH  21  26
ATOM     26  O   UNL     1       4.204   2.323  19.109  0.00  0.00    +0.000 OA
ATOM     27  C   UNL     1       3.622   1.544  18.080  0.00  0.00    +0.000 C 
ENDBRANCH  21  26
ENDBRANCH   1  18
BRANCH  10  28
ATOM     28  C   UNL     1      -3.584  13.591  23.717  0.00  0.00    +0.000 A 
ATOM     29  C   UNL     1      -4.720  12.817  23.480  0.00  0.00    +0.000 A 
ATOM     30  C   UNL     1      -5.983  13.401  23.513  0.00  0.00    +0.000 A 
ATOM     31  C   UNL     1      -6.119  14.771  23.766  0.00  0.00    +0.000 A 
ATOM     32  C   UNL     1      -5.011  15.603  23.989  0.00  0.00    +0.000 A 
ATOM     33  C   UNL     1      -3.754  14.967  23.971  0.00  0.00    +0.000 A 
BRANCH  32  34
ATOM     34  N   UNL     1      -5.166  16.956  24.257  0.00  0.00    +0.000 N 
ATOM     35  C   UNL     1      -4.303  17.648  25.211  0.00  0.00    +0.000 C 
ATOM     36  C   UNL     1      -6.363  17.694  23.864  0.00  0.00    +0.000 C 
ENDBRANCH  32  34
ENDBRANCH  10  28
TORSDOF 6
ENDMDL
MODEL 5
REMARK VINA RESULT:      -7.8      1.566      2.733
REMARK  Name = 
REMARK  11 active torsions:
REMARK  status: ('A' for Active; 'I' for Inactive)
REMARK    1  A    between atoms: C_1  and  O_2
REMARK    2  A    between atoms: O_2  and  C_3
REMARK    3  A    between atoms: C_5  and  N_6
REMARK    4  A    between atoms: N_15  and  C_16
REMARK    5  A    between atoms: C_20  and  N_21
REMARK    6  A    between atoms: N_21  and  C_22
REMARK    7  A    between atoms: N_21  and  C_23
REMARK    8  A    between atoms: C_29  and  O_30
REMARK    9  A    between atoms: O_30  and  C_31
REMARK   10  A    between atoms: C_32  and  O_33
REMARK   11  A    between atoms: O_33  and  C_34
REMARK                            x       y       z     vdW  Elec       q    Type
REMARK                         _______ _______ _______ _____ _____    ______ ____
ROOT
ATOM      1  N   UNL     1       2.186   7.711  18.962  0.00  0.00    +0.000 N 
ATOM      2  C   UNL     1       1.906   8.936  18.406  0.00  0.00    +0.000 C 
ATOM      3  O   UNL     1       2.186   9.263  17.258  0.00  0.00    +0.000 OA
ATOM      4  N   UNL     1       1.231   9.830  19.202  0.00  0.00    +0.000 N 
ATOM      5  C   UNL     1       0.747  11.059  18.584  0.00  0.00    +0.000 C 
ATOM      6  C   UNL     1      -0.222  11.566  19.574  0.00  0.00    +0.000 A 
ATOM      7  C   UNL     1      -1.184  12.516  19.469  0.00  0.00    +0.000 A 
ATOM      8  N   UNL     1      -1.998  12.790  20.499  0.00  0.00    +0.000 NA
ATOM      9  C   UNL     1      -1.819  12.118  21.662  0.00  0.00    +0.000 A 
ATOM     10  N   UNL     1      -2.620  12.452  22.753  0.00  0.00    +0.000 N 
ATOM     11  N   UNL     1      -0.872  11.173  21.853  0.00  0.00    +0.000 NA
ATOM     12  C   UNL     1      -0.113  10.906  20.778  0.00  0.00    +0.000 A 
ATOM     13  C   UNL     1       0.934   9.817  20.648  0.00  0.00    +0.000 C 
ATOM     14  H   UNL     1       1.663   7.449  19.780  0.00  0.00    +0.000 HD
ATOM     15  H   UNL     1      -2.305  12.009  23.600  0.00  0.00    +0.000 HD
ENDROOT
BRANCH   1  18
ATOM     16  C   UNL     1       3.213   4.421  17.449  0.00  0.00    +0.000 A 
ATOM     17  C   UNL     1       2.480   5.389  18.161  0.00  0.00    +0.000 A 
ATOM     18  C   UNL     1       2.954   6.681  18.348  0.00  0.00    +0.000 A 
ATOM     19  C   UNL     1       4.226   6.984  17.865  0.00  0.00    +0.000 A 
ATOM     20  C   UNL     1       5.023   6.009  17.226  0.00  0.00    +0.000 A 
ATOM     21  C   UNL     1       4.523   4.702  17.018  0.00  0.00    +0.000 A 
BRANCH  16  23
ATOM     22  C   UNL     1       2.170   2.477  18.322  0.00  0.00    +0.000 C 
ATOM     23  O   UNL     1       2.650   3.196  17.181  0.00  0.00    +0.000 OA
ENDBRANCH  16  23
BRANCH  20  24
ATOM     24  O   UNL     1       6.247   6.520  16.859  0.00  0.00    +0.000 OA
ATOM     25  C   UNL     1       7.356   6.388  17.738  0.00  0.00    +0.000 C 
ENDBRANCH  20  24
BRANCH  21  26
ATOM     26  O   UNL     1       5.375   3.822  16.409  0.00  0.00    +0.000 OA
ATOM     27  C   UNL     1       5.726   3.946  15.042  0.00  0.00    +0.000 C 
ENDBRANCH  21  26
ENDBRANCH   1  18
BRANCH  10  28
ATOM     28  C   UNL     1      -3.933  12.955  22.760  0.00  0.00    +0.000 A 
ATOM     29  C   UNL     1      -4.301  13.884  23.733  0.00  0.00    +0.000 A 
ATOM     30  C   UNL     1      -5.575  14.442  23.720  0.00  0.00    +0.000 A 
ATOM     31  C   UNL     1      -6.501  14.062  22.742  0.00  0.00    +0.000 A 
ATOM     32  C   UNL     1      -6.195  13.115  21.751  0.00  0.00    +0.000 A 
ATOM     33  C   UNL     1      -4.886  12.593  21.787  0.00  0.00    +0.000 A 
BRANCH  32  34
ATOM     34  N   UNL     1      -7.119  12.764  20.777  0.00  0.00    +0.000 N 
ATOM     35  C   UNL     1      -7.915  13.773  20.083  0.00  0.00    +0.000 C 
ATOM     36  C   UNL     1      -7.581  11.391  20.604  0.00  0.00    +0.000 C 
ENDBRANCH  32  34
ENDBRANCH  10  28
TORSDOF 6
ENDMDL
MODEL 6
REMARK VINA RESULT:      -7.8      0.472      2.237
REMARK  Name = 
REMARK  11 active torsions:
REMARK  status: ('A' for Active; 'I' for Inactive)
REMARK    1  A    between atoms: C_1  and  O_2
REMARK    2  A    between atoms: O_2  and  C_3
REMARK    3  A    between atoms: C_5  and  N_6
REMARK    4  A    between atoms: N_15  and  C_16
REMARK    5  A    between atoms: C_20  and  N_21
REMARK    6  A    between atoms: N_21  and  C_22
REMARK    7  A    between atoms: N_21  and  C_23
REMARK    8  A    between atoms: C_29  and  O_30
REMARK    9  A    between atoms: O_30  and  C_31
REMARK   10  A    between atoms: C_32  and  O_33
REMARK   11  A    between atoms: O_33  and  C_34
REMARK                            x       y       z     vdW  Elec       q    Type
REMARK                         _______ _______ _______ _____ _____    ______ ____
ROOT
ATOM      1  N   UNL     1       1.923   7.102  20.183  0.00  0.00    +0.000 N 
ATOM      2  C   UNL     1       1.769   8.265  19.468  0.00  0.00    +0.000 C 
ATOM      3  O   UNL     1       1.967   8.376  18.264  0.00  0.00    +0.000 OA
ATOM      4  N   UNL     1       1.328   9.361  20.170  0.00  0.00    +0.000 N 
ATOM      5  C   UNL     1       0.968  10.553  19.410  0.00  0.00    +0.000 C 
ATOM      6  C   UNL     1       0.201  11.348  20.388  0.00  0.00    +0.000 A 
ATOM      7  C   UNL     1      -0.614  12.418  20.219  0.00  0.00    +0.000 A 
ATOM      8  N   UNL     1      -1.260  12.965  21.259  0.00  0.00    +0.000 NA
ATOM      9  C   UNL     1      -1.056  12.444  22.493  0.00  0.00    +0.000 A 
ATOM     10  N   UNL     1      -1.674  13.056  23.583  0.00  0.00    +0.000 N 
ATOM     11  N   UNL     1      -0.247  11.393  22.748  0.00  0.00    +0.000 NA
ATOM     12  C   UNL     1       0.341  10.856  21.666  0.00  0.00    +0.000 A 
ATOM     13  C   UNL     1       1.193   9.602  21.619  0.00  0.00    +0.000 C 
ATOM     14  H   UNL     1       1.459   7.047  21.074  0.00  0.00    +0.000 HD
ATOM     15  H   UNL     1      -1.336  12.692  24.459  0.00  0.00    +0.000 HD
ENDROOT
BRANCH   1  18
ATOM     16  C   UNL     1       2.226   3.735  18.527  0.00  0.00    +0.000 A 
ATOM     17  C   UNL     1       1.667   4.879  19.127  0.00  0.00    +0.000 A 
ATOM     18  C   UNL     1       2.455   5.884  19.675  0.00  0.00    +0.000 A 
ATOM     19  C   UNL     1       3.836   5.696  19.679  0.00  0.00    +0.000 A 
ATOM     20  C   UNL     1       4.422   4.518  19.167  0.00  0.00    +0.000 A 
ATOM     21  C   UNL     1       3.614   3.511  18.588  0.00  0.00    +0.000 A 
BRANCH  16  23
ATOM     22  C   UNL     1       0.518   2.101  18.733  0.00  0.00    +0.000 C 
ATOM     23  O   UNL     1       1.411   2.831  17.887  0.00  0.00    +0.000 OA
ENDBRANCH  16  23
BRANCH  20  24
ATOM     24  O   UNL     1       5.792   4.537  19.300  0.00  0.00    +0.000 OA
ATOM     25  C   UNL     1       6.585   5.181  18.311  0.00  0.00    +0.000 C 
ENDBRANCH  20  24
BRANCH  21  26
ATOM     26  O   UNL     1       4.269   2.398  18.137  0.00  0.00    +0.000 OA
ATOM     27  C   UNL     1       4.059   1.122  18.715  0.00  0.00    +0.000 C 
ENDBRANCH  21  26
ENDBRANCH   1  18
BRANCH  10  28
ATOM     28  C   UNL     1      -2.888  13.764  23.624  0.00  0.00    +0.000 A 
ATOM     29  C   UNL     1      -2.862  15.152  23.760  0.00  0.00    +0.000 A 
ATOM     30  C   UNL     1      -4.049  15.878  23.739  0.00  0.00    +0.000 A 
ATOM     31  C   UNL     1      -5.275  15.220  23.600  0.00  0.00    +0.000 A 
ATOM     32  C   UNL     1      -5.364  13.824  23.482  0.00  0.00    +0.000 A 
ATOM     33  C   UNL     1      -4.138  13.129  23.484  0.00  0.00    +0.000 A 
BRANCH  32  34
ATOM     34  N   UNL     1      -6.589  13.188  23.326  0.00  0.00    +0.000 N 
ATOM     35  C   UNL     1      -6.935  12.495  22.087  0.00  0.00    +0.000 C 
ATOM     36  C   UNL     1      -7.709  13.427  24.230  0.00  0.00    +0.000 C 
ENDBRANCH  32  34
ENDBRANCH  10  28
TORSDOF 6
ENDMDL
MODEL 7
REMARK VINA RESULT:      -7.6      1.753      2.072
REMARK  Name = 
REMARK  11 active torsions:
REMARK  status: ('A' for Active; 'I' for Inactive)
REMARK    1  A    between atoms: C_1  and  O_2
REMARK    2  A    between atoms: O_2  and  C_3
REMARK    3  A    between atoms: C_5  and  N_6
REMARK    4  A    between atoms: N_15  and  C_16
REMARK    5  A    between atoms: C_20  and  N_21
REMARK    6  A    between atoms: N_21  and  C_22
REMARK    7  A    between atoms: N_21  and  C_23
REMARK    8  A    between atoms: C_29  and  O_30
REMARK    9  A    between atoms: O_30  and  C_31
REMARK   10  A    between atoms: C_32  and  O_33
REMARK   11  A    between atoms: O_33  and  C_34
REMARK                            x       y       z     vdW  Elec       q    Type
REMARK                         _______ _______ _______ _____ _____    ______ ____
ROOT
ATOM      1  N   UNL     1       2.032   8.050  18.827  0.00  0.00    +0.000 N 
ATOM      2  C   UNL     1       1.781   9.324  18.378  0.00  0.00    +0.000 C 
ATOM      3  O   UNL     1       2.132   9.763  17.288  0.00  0.00    +0.000 OA
ATOM      4  N   UNL     1       1.054  10.136  19.215  0.00  0.00    +0.000 N 
ATOM      5  C   UNL     1       0.605  11.421  18.692  0.00  0.00    +0.000 C 
ATOM      6  C   UNL     1      -0.426  11.830  19.664  0.00  0.00    +0.000 A 
ATOM      7  C   UNL     1      -1.384  12.787  19.594  0.00  0.00    +0.000 A 
ATOM      8  N   UNL     1      -2.263  12.959  20.593  0.00  0.00    +0.000 NA
ATOM      9  C   UNL     1      -2.153  12.175  21.693  0.00  0.00    +0.000 A 
ATOM     10  N   UNL     1      -3.023  12.401  22.758  0.00  0.00    +0.000 N 
ATOM     11  N   UNL     1      -1.217  11.214  21.848  0.00  0.00    +0.000 NA
ATOM     12  C   UNL     1      -0.390  11.054  20.802  0.00  0.00    +0.000 A 
ATOM     13  C   UNL     1       0.667   9.981  20.631  0.00  0.00    +0.000 C 
ATOM     14  H   UNL     1       1.459   7.709  19.580  0.00  0.00    +0.000 HD
ATOM     15  H   UNL     1      -2.759  11.876  23.576  0.00  0.00    +0.000 HD
ENDROOT
BRANCH   1  18
ATOM     16  C   UNL     1       4.887   6.401  17.011  0.00  0.00    +0.000 A 
ATOM     17  C   UNL     1       4.053   7.393  17.559  0.00  0.00    +0.000 A 
ATOM     18  C   UNL     1       2.840   7.084  18.163  0.00  0.00    +0.000 A 
ATOM     19  C   UNL     1       2.429   5.752  18.152  0.00  0.00    +0.000 A 
ATOM     20  C   UNL     1       3.201   4.747  17.529  0.00  0.00    +0.000 A 
ATOM     21  C   UNL     1       4.446   5.067  16.938  0.00  0.00    +0.000 A 
BRANCH  16  23
ATOM     22  C   UNL     1       7.167   6.811  17.524  0.00  0.00    +0.000 C 
ATOM     23  O   UNL     1       6.133   6.740  16.538  0.00  0.00    +0.000 OA
ENDBRANCH  16  23
BRANCH  20  24
ATOM     24  O   UNL     1       2.591   3.517  17.614  0.00  0.00    +0.000 OA
ATOM     25  C   UNL     1       1.441   3.358  18.435  0.00  0.00    +0.000 C 
ENDBRANCH  20  24
BRANCH  21  26
ATOM     26  O   UNL     1       5.113   4.031  16.342  0.00  0.00    +0.000 OA
ATOM     27  C   UNL     1       5.465   4.060  14.970  0.00  0.00    +0.000 C 
ENDBRANCH  21  26
ENDBRANCH   1  18
BRANCH  10  28
ATOM     28  C   UNL     1      -4.336  12.904  22.733  0.00  0.00    +0.000 A 
ATOM     29  C   UNL     1      -4.791  13.674  23.803  0.00  0.00    +0.000 A 
ATOM     30  C   UNL     1      -6.065  14.234  23.769  0.00  0.00    +0.000 A 
ATOM     31  C   UNL     1      -6.902  14.013  22.670  0.00  0.00    +0.000 A 
ATOM     32  C   UNL     1      -6.507  13.229  21.575  0.00  0.00    +0.000 A 
ATOM     33  C   UNL     1      -5.202  12.701  21.639  0.00  0.00    +0.000 A 
BRANCH  32  34
ATOM     34  N   UNL     1      -7.344  13.036  20.484  0.00  0.00    +0.000 N 
ATOM     35  C   UNL     1      -7.638  11.698  19.977  0.00  0.00    +0.000 C 
ATOM     36  C   UNL     1      -7.725  14.129  19.595  0.00  0.00    +0.000 C 
ENDBRANCH  32  34
ENDBRANCH  10  28
TORSDOF 6
ENDMDL
MODEL 8
REMARK VINA RESULT:      -7.6      1.475      2.957
REMARK  Name = 
REMARK  11 active torsions:
REMARK  status: ('A' for Active; 'I' for Inactive)
REMARK    1  A    between atoms: C_1  and  O_2
REMARK    2  A    between atoms: O_2  and  C_3
REMARK    3  A    between atoms: C_5  and  N_6
REMARK    4  A    between atoms: N_15  and  C_16
REMARK    5  A    between atoms: C_20  and  N_21
REMARK    6  A    between atoms: N_21  and  C_22
REMARK    7  A    between atoms: N_21  and  C_23
REMARK    8  A    between atoms: C_29  and  O_30
REMARK    9  A    between atoms: O_30  and  C_31
REMARK   10  A    between atoms: C_32  and  O_33
REMARK   11  A    between atoms: O_33  and  C_34
REMARK                            x       y       z     vdW  Elec       q    Type
REMARK                         _______ _______ _______ _____ _____    ______ ____
ROOT
ATOM      1  N   UNL     1       1.485   7.235  20.874  0.00  0.00    +0.000 N 
ATOM      2  C   UNL     1       1.373   8.421  20.187  0.00  0.00    +0.000 C 
ATOM      3  O   UNL     1       1.719   8.590  19.024  0.00  0.00    +0.000 OA
ATOM      4  N   UNL     1       0.797   9.467  20.865  0.00  0.00    +0.000 N 
ATOM      5  C   UNL     1       0.485  10.675  20.110  0.00  0.00    +0.000 C 
ATOM      6  C   UNL     1      -0.436  11.397  21.008  0.00  0.00    +0.000 A 
ATOM      7  C   UNL     1      -1.269  12.441  20.774  0.00  0.00    +0.000 A 
ATOM      8  N   UNL     1      -2.068  12.917  21.740  0.00  0.00    +0.000 NA
ATOM      9  C   UNL     1      -2.002  12.353  22.970  0.00  0.00    +0.000 A 
ATOM     10  N   UNL     1      -2.781  12.894  23.992  0.00  0.00    +0.000 N 
ATOM     11  N   UNL     1      -1.186  11.325  23.289  0.00  0.00    +0.000 NA
ATOM     12  C   UNL     1      -0.440  10.858  22.275  0.00  0.00    +0.000 A 
ATOM     13  C   UNL     1       0.466   9.642  22.293  0.00  0.00    +0.000 C 
ATOM     14  H   UNL     1       0.913   7.125  21.693  0.00  0.00    +0.000 HD
ATOM     15  H   UNL     1      -2.544  12.506  24.891  0.00  0.00    +0.000 HD
ENDROOT
BRANCH   1  18
ATOM     16  C   UNL     1       2.204   3.654  19.962  0.00  0.00    +0.000 A 
ATOM     17  C   UNL     1       1.603   4.785  20.546  0.00  0.00    +0.000 A 
ATOM     18  C   UNL     1       2.132   6.061  20.394  0.00  0.00    +0.000 A 
ATOM     19  C   UNL     1       3.332   6.189  19.697  0.00  0.00    +0.000 A 
ATOM     20  C   UNL     1       4.007   5.062  19.178  0.00  0.00    +0.000 A 
ATOM     21  C   UNL     1       3.449   3.769  19.316  0.00  0.00    +0.000 A 
BRANCH  16  23
ATOM     22  C   UNL     1       0.691   2.132  18.951  0.00  0.00    +0.000 C 
ATOM     23  O   UNL     1       1.577   2.433  20.034  0.00  0.00    +0.000 OA
ENDBRANCH  16  23
BRANCH  20  24
ATOM     24  O   UNL     1       5.181   5.419  18.555  0.00  0.00    +0.000 OA
ATOM     25  C   UNL     1       6.395   5.429  19.296  0.00  0.00    +0.000 C 
ENDBRANCH  20  24
BRANCH  21  26
ATOM     26  O   UNL     1       4.184   2.738  18.798  0.00  0.00    +0.000 OA
ATOM     27  C   UNL     1       3.975   2.257  17.482  0.00  0.00    +0.000 C 
ENDBRANCH  21  26
ENDBRANCH   1  18
BRANCH  10  28
ATOM     28  C   UNL     1      -4.021  13.551  23.901  0.00  0.00    +0.000 A 
ATOM     29  C   UNL     1      -5.179  12.797  23.715  0.00  0.00    +0.000 A 
ATOM     30  C   UNL     1      -6.422  13.422  23.685  0.00  0.00    +0.000 A 
ATOM     31  C   UNL     1      -6.516  14.811  23.824  0.00  0.00    +0.000 A 
ATOM     32  C   UNL     1      -5.383  15.623  23.992  0.00  0.00    +0.000 A 
ATOM     33  C   UNL     1      -4.147  14.948  24.040  0.00  0.00    +0.000 A 
BRANCH  32  34
ATOM     34  N   UNL     1      -5.496  16.998  24.147  0.00  0.00    +0.000 N 
ATOM     35  C   UNL     1      -4.955  17.679  25.320  0.00  0.00    +0.000 C 
ATOM     36  C   UNL     1      -6.410  17.798  23.338  0.00  0.00    +0.000 C 
ENDBRANCH  32  34
ENDBRANCH  10  28
TORSDOF 6
ENDMDL
MODEL 9
REMARK VINA RESULT:      -7.5      1.363      2.188
REMARK  Name = 
REMARK  11 active torsions:
REMARK  status: ('A' for Active; 'I' for Inactive)
REMARK    1  A    between atoms: C_1  and  O_2
REMARK    2  A    between atoms: O_2  and  C_3
REMARK    3  A    between atoms: C_5  and  N_6
REMARK    4  A    between atoms: N_15  and  C_16
REMARK    5  A    between atoms: C_20  and  N_21
REMARK    6  A    between atoms: N_21  and  C_22
REMARK    7  A    between atoms: N_21  and  C_23
REMARK    8  A    between atoms: C_29  and  O_30
REMARK    9  A    between atoms: O_30  and  C_31
REMARK   10  A    between atoms: C_32  and  O_33
REMARK   11  A    between atoms: O_33  and  C_34
REMARK                            x       y       z     vdW  Elec       q    Type
REMARK                         _______ _______ _______ _____ _____    ______ ____
ROOT
ATOM      1  N   UNL     1       1.814   7.687  20.390  0.00  0.00    +0.000 N 
ATOM      2  C   UNL     1       1.435   8.726  19.575  0.00  0.00    +0.000 C 
ATOM      3  O   UNL     1       1.442   8.692  18.349  0.00  0.00    +0.000 OA
ATOM      4  N   UNL     1       0.988   9.864  20.202  0.00  0.00    +0.000 N 
ATOM      5  C   UNL     1       0.397  10.908  19.373  0.00  0.00    +0.000 C 
ATOM      6  C   UNL     1      -0.299  11.757  20.358  0.00  0.00    +0.000 A 
ATOM      7  C   UNL     1      -1.238  12.721  20.195  0.00  0.00    +0.000 A 
ATOM      8  N   UNL     1      -1.780  13.344  21.252  0.00  0.00    +0.000 NA
ATOM      9  C   UNL     1      -1.344  13.012  22.491  0.00  0.00    +0.000 A 
ATOM     10  N   UNL     1      -1.857  13.708  23.584  0.00  0.00    +0.000 N 
ATOM     11  N   UNL     1      -0.399  12.078  22.737  0.00  0.00    +0.000 NA
ATOM     12  C   UNL     1       0.078  11.454  21.648  0.00  0.00    +0.000 A 
ATOM     13  C   UNL     1       1.041  10.284  21.616  0.00  0.00    +0.000 C 
ATOM     14  H   UNL     1       1.494   7.712  21.342  0.00  0.00    +0.000 HD
ATOM     15  H   UNL     1      -1.359  13.495  24.433  0.00  0.00    +0.000 HD
ENDROOT
BRANCH   1  18
ATOM     16  C   UNL     1       2.782   4.056  20.164  0.00  0.00    +0.000 A 
ATOM     17  C   UNL     1       2.303   5.278  20.672  0.00  0.00    +0.000 A 
ATOM     18  C   UNL     1       2.392   6.462  19.951  0.00  0.00    +0.000 A 
ATOM     19  C   UNL     1       3.042   6.425  18.719  0.00  0.00    +0.000 A 
ATOM     20  C   UNL     1       3.614   5.233  18.222  0.00  0.00    +0.000 A 
ATOM     21  C   UNL     1       3.497   4.027  18.952  0.00  0.00    +0.000 A 
BRANCH  16  23
ATOM     22  C   UNL     1       1.316   2.824  21.564  0.00  0.00    +0.000 C 
ATOM     23  O   UNL     1       2.559   2.890  20.858  0.00  0.00    +0.000 OA
ENDBRANCH  16  23
BRANCH  20  24
ATOM     24  O   UNL     1       4.226   5.436  17.006  0.00  0.00    +0.000 OA
ATOM     25  C   UNL     1       4.906   6.660  16.758  0.00  0.00    +0.000 C 
ENDBRANCH  20  24
BRANCH  21  26
ATOM     26  O   UNL     1       4.100   2.929  18.401  0.00  0.00    +0.000 OA
ATOM     27  C   UNL     1       3.353   1.906  17.766  0.00  0.00    +0.000 C 
ENDBRANCH  21  26
ENDBRANCH   1  18
BRANCH  10  28
ATOM     28  C   UNL     1      -3.120  14.308  23.733  0.00  0.00    +0.000 A 
ATOM     29  C   UNL     1      -3.198  15.635  24.157  0.00  0.00    +0.000 A 
ATOM     30  C   UNL     1      -4.434  16.268  24.249  0.00  0.00    +0.000 A 
ATOM     31  C   UNL     1      -5.607  15.572  23.935  0.00  0.00    +0.000 A 
ATOM     32  C   UNL     1      -5.591  14.229  23.525  0.00  0.00    +0.000 A 
ATOM     33  C   UNL     1      -4.318  13.634  23.422  0.00  0.00    +0.000 A 
BRANCH  32  34
ATOM     34  N   UNL     1      -6.763  13.560  23.199  0.00  0.00    +0.000 N 
ATOM     35  C   UNL     1      -7.916  13.561  24.096  0.00  0.00    +0.000 C 
ATOM     36  C   UNL     1      -6.822  12.574  22.124  0.00  0.00    +0.000 C 
ENDBRANCH  32  34
ENDBRANCH  10  28
TORSDOF 6
ENDMDL
