MODEL 1
REMARK VINA RESULT:      -8.1      0.000      0.000
REMARK  Name = 
REMARK  8 active torsions:
REMARK  status: ('A' for Active; 'I' for Inactive)
REMARK    1  A    between atoms: C_1  and  C_2
REMARK    2  A    between atoms: C_2  and  O_3
REMARK    3  A    between atoms: O_3  and  C_4
REMARK    4  A    between atoms: C_4  and  C_6
REMARK    5  A    between atoms: N_11  and  C_12
REMARK    6  A    between atoms: C_15  and  N_16
REMARK    7  A    between atoms: C_18  and  C_19
REMARK    8  A    between atoms: C_19  and  N_20
REMARK                            x       y       z     vdW  Elec       q    Type
REMARK                         _______ _______ _______ _____ _____    ______ ____
ROOT
ATOM      1  C   UNL     1       1.401   8.612  19.356  0.00  0.00    +0.000 A 
ATOM      2  C   UNL     1       1.752   7.452  20.056  0.00  0.00    +0.000 A 
ATOM      3  C   UNL     1       2.749   6.578  19.599  0.00  0.00    +0.000 A 
ATOM      4  C   UNL     1       3.446   6.826  18.413  0.00  0.00    +0.000 A 
ATOM      5  C   UNL     1       3.108   7.977  17.701  0.00  0.00    +0.000 A 
ATOM      6  C   UNL     1       2.108   8.839  18.163  0.00  0.00    +0.000 A 
ATOM      7  F   UNL     1       1.815   9.894  17.384  0.00  0.00    +0.000 F 
ENDROOT
BRANCH   1  13
ATOM      8  C   UNL     1      -1.056  12.972  21.465  0.00  0.00    +0.000 C 
ATOM      9 CL   UNL     1      -2.000  14.048  20.469  0.00  0.00    +0.000 Cl
ATOM     10  C   UNL     1      -0.202  12.084  20.909  0.00  0.00    +0.000 C 
ATOM     11  C   UNL     1       0.678  11.103  21.674  0.00  0.00    +0.000 C 
ATOM     12  C   UNL     1       0.279   9.673  21.306  0.00  0.00    +0.000 C 
ATOM     13  N   UNL     1       0.441   9.472  19.860  0.00  0.00    +0.000 N 
ATOM     14  C   UNL     1      -0.275  10.415  18.986  0.00  0.00    +0.000 C 
ATOM     15  C   UNL     1      -0.015  11.878  19.411  0.00  0.00    +0.000 C 
BRANCH   8  16
ATOM     16  C   UNL     1      -1.350  13.015  22.934  0.00  0.00    +0.000 C 
ATOM     17  O   UNL     1      -0.799  13.762  23.730  0.00  0.00    +0.000 OA
BRANCH  16  18
ATOM     18  O   UNL     1      -2.218  12.027  23.286  0.00  0.00    +0.000 OA
BRANCH  18  20
ATOM     19  C   UNL     1      -4.118  12.621  24.611  0.00  0.00    +0.000 C 
ATOM     20  C   UNL     1      -3.604  12.385  23.202  0.00  0.00    +0.000 C 
ENDBRANCH  18  20
ENDBRANCH  16  18
ENDBRANCH   8  16
ENDBRANCH   1  13
BRANCH   4  21
ATOM     21  N   UNL     1       4.463   5.958  17.948  0.00  0.00    +0.000 N 
ATOM     22  C   UNL     1       4.706   5.697  16.560  0.00  0.00    +0.000 C 
ATOM     23  C   UNL     1       6.040   4.985  16.581  0.00  0.00    +0.000 C 
ATOM     24  O   UNL     1       6.093   4.407  17.895  0.00  0.00    +0.000 OA
ATOM     25  C   UNL     1       5.279   5.133  18.718  0.00  0.00    +0.000 C 
ATOM     26  O   UNL     1       5.293   4.984  19.926  0.00  0.00    +0.000 OA
BRANCH  23  27
ATOM     27  C   UNL     1       6.137   3.900  15.519  0.00  0.00    +0.000 C 
BRANCH  27  28
ATOM     28  N   UNL     1       6.777   4.400  14.321  0.00  0.00    +0.000 N 
ATOM     29  C   UNL     1       6.615   3.972  13.040  0.00  0.00    +0.000 A 
ATOM     30  C   UNL     1       7.488   4.754  12.324  0.00  0.00    +0.000 A 
ATOM     31  N   UNL     1       8.120   5.624  13.170  0.00  0.00    +0.000 NA
ATOM     32  N   UNL     1       7.671   5.399  14.398  0.00  0.00    +0.000 NA
ENDBRANCH  27  28
ENDBRANCH  23  27
ENDBRANCH   4  21
TORSDOF 7
ENDMDL
MODEL 2
REMARK VINA RESULT:      -8.1      1.606      2.145
REMARK  Name = 
REMARK  8 active torsions:
REMARK  status: ('A' for Active; 'I' for Inactive)
REMARK    1  A    between atoms: C_1  and  C_2
REMARK    2  A    between atoms: C_2  and  O_3
REMARK    3  A    between atoms: O_3  and  C_4
REMARK    4  A    between atoms: C_4  and  C_6
REMARK    5  A    between atoms: N_11  and  C_12
REMARK    6  A    between atoms: C_15  and  N_16
REMARK    7  A    between atoms: C_18  and  C_19
REMARK    8  A    between atoms: C_19  and  N_20
REMARK                            x       y       z     vdW  Elec       q    Type
REMARK                         _______ _______ _______ _____ _____    ______ ____
ROOT
ATOM      1  C   UNL     1       1.335   9.367  19.020  0.00  0.00    +0.000 A 
ATOM      2  C   UNL     1       2.023   9.202  17.812  0.00  0.00    +0.000 A 
ATOM      3  C   UNL     1       2.866   8.106  17.578  0.00  0.00    +0.000 A 
ATOM      4  C   UNL     1       3.059   7.117  18.547  0.00  0.00    +0.000 A 
ATOM      5  C   UNL     1       2.382   7.266  19.758  0.00  0.00    +0.000 A 
ATOM      6  C   UNL     1       1.549   8.367  19.983  0.00  0.00    +0.000 A 
ATOM      7  F   UNL     1       0.980   8.453  21.198  0.00  0.00    +0.000 F 
ENDROOT
BRANCH   1  13
ATOM      8  C   UNL     1      -1.798  13.172  21.301  0.00  0.00    +0.000 C 
ATOM      9 CL   UNL     1      -1.252  14.821  21.453  0.00  0.00    +0.000 Cl
ATOM     10  C   UNL     1      -0.925  12.176  21.029  0.00  0.00    +0.000 C 
ATOM     11  C   UNL     1      -1.282  10.702  20.883  0.00  0.00    +0.000 C 
ATOM     12  C   UNL     1      -0.952  10.241  19.462  0.00  0.00    +0.000 C 
ATOM     13  N   UNL     1       0.479  10.440  19.199  0.00  0.00    +0.000 N 
ATOM     14  C   UNL     1       0.995  11.804  19.399  0.00  0.00    +0.000 C 
ATOM     15  C   UNL     1       0.563  12.370  20.770  0.00  0.00    +0.000 C 
BRANCH   8  16
ATOM     16  C   UNL     1      -3.281  12.968  21.364  0.00  0.00    +0.000 C 
ATOM     17  O   UNL     1      -4.082  13.454  20.577  0.00  0.00    +0.000 OA
BRANCH  16  18
ATOM     18  O   UNL     1      -3.631  12.278  22.483  0.00  0.00    +0.000 OA
BRANCH  18  20
ATOM     19  C   UNL     1      -4.507  12.450  24.702  0.00  0.00    +0.000 C 
ATOM     20  C   UNL     1      -4.681  12.876  23.255  0.00  0.00    +0.000 C 
ENDBRANCH  18  20
ENDBRANCH  16  18
ENDBRANCH   8  16
ENDBRANCH   1  13
BRANCH   4  21
ATOM     21  N   UNL     1       3.897   5.999  18.317  0.00  0.00    +0.000 N 
ATOM     22  C   UNL     1       5.323   6.038  18.460  0.00  0.00    +0.000 C 
ATOM     23  C   UNL     1       5.705   4.575  18.412  0.00  0.00    +0.000 C 
ATOM     24  O   UNL     1       4.629   3.970  17.677  0.00  0.00    +0.000 OA
ATOM     25  C   UNL     1       3.523   4.761  17.802  0.00  0.00    +0.000 C 
ATOM     26  O   UNL     1       2.422   4.383  17.444  0.00  0.00    +0.000 OA
BRANCH  23  27
ATOM     27  C   UNL     1       7.030   4.343  17.704  0.00  0.00    +0.000 C 
BRANCH  27  28
ATOM     28  N   UNL     1       6.898   4.537  16.276  0.00  0.00    +0.000 N 
ATOM     29  C   UNL     1       6.226   3.763  15.381  0.00  0.00    +0.000 A 
ATOM     30  C   UNL     1       6.467   4.375  14.176  0.00  0.00    +0.000 A 
ATOM     31  N   UNL     1       7.241   5.486  14.377  0.00  0.00    +0.000 NA
ATOM     32  N   UNL     1       7.497   5.578  15.675  0.00  0.00    +0.000 NA
ENDBRANCH  27  28
ENDBRANCH  23  27
ENDBRANCH   4  21
TORSDOF 7
ENDMDL
MODEL 3
REMARK VINA RESULT:      -8.0      1.959      2.532
REMARK  Name = 
REMARK  8 active torsions:
REMARK  status: ('A' for Active; 'I' for Inactive)
REMARK    1  A    between atoms: C_1  and  C_2
REMARK    2  A    between atoms: C_2  and  O_3
REMARK    3  A    between atoms: O_3  and  C_4
REMARK    4  A    between atoms: C_4  and  C_6
REMARK    5  A    between atoms: N_11  and  C_12
REMARK    6  A    between atoms: C_15  and  N_16
REMARK    7  A    between atoms: C_18  and  C_19
REMARK    8  A    between atoms: C_19  and  N_20
REMARK                            x       y       z     vdW  Elec       q    Type
REMARK                         _______ _______ _______ _____ _____    ______ ____
ROOT
ATOM      1  C   UNL     1       0.911   9.993  19.574  0.00  0.00    +0.000 A 
ATOM      2  C   UNL     1       1.349   9.580  18.311  0.00  0.00    +0.000 A 
ATOM      3  C   UNL     1       1.987   8.347  18.109  0.00  0.00    +0.000 A 
ATOM      4  C   UNL     1       2.217   7.465  19.169  0.00  0.00    +0.000 A 
ATOM      5  C   UNL     1       1.788   7.862  20.436  0.00  0.00    +0.000 A 
ATOM      6  C   UNL     1       1.159   9.096  20.626  0.00  0.00    +0.000 A 
ATOM      7  F   UNL     1       0.827   9.415  21.890  0.00  0.00    +0.000 F 
ENDROOT
BRANCH   1  13
ATOM      8  C   UNL     1      -1.493  14.344  21.763  0.00  0.00    +0.000 C 
ATOM      9 CL   UNL     1      -0.680  15.885  21.836  0.00  0.00    +0.000 Cl
ATOM     10  C   UNL     1      -0.803  13.208  21.514  0.00  0.00    +0.000 C 
ATOM     11  C   UNL     1      -1.401  11.809  21.434  0.00  0.00    +0.000 C 
ATOM     12  C   UNL     1      -1.188  11.248  20.027  0.00  0.00    +0.000 C 
ATOM     13  N   UNL     1       0.249  11.199  19.727  0.00  0.00    +0.000 N 
ATOM     14  C   UNL     1       0.986  12.465  19.861  0.00  0.00    +0.000 C 
ATOM     15  C   UNL     1       0.690  13.145  21.216  0.00  0.00    +0.000 C 
BRANCH   8  16
ATOM     16  C   UNL     1      -2.987  14.389  21.864  0.00  0.00    +0.000 C 
ATOM     17  O   UNL     1      -3.753  14.123  20.948  0.00  0.00    +0.000 OA
BRANCH  16  18
ATOM     18  O   UNL     1      -3.379  14.890  23.067  0.00  0.00    +0.000 OA
BRANCH  18  20
ATOM     19  C   UNL     1      -3.978  12.786  24.033  0.00  0.00    +0.000 C 
ATOM     20  C   UNL     1      -3.124  14.032  24.187  0.00  0.00    +0.000 C 
ENDBRANCH  18  20
ENDBRANCH  16  18
ENDBRANCH   8  16
ENDBRANCH   1  13
BRANCH   4  21
ATOM     21  N   UNL     1       2.848   6.213  18.976  0.00  0.00    +0.000 N 
ATOM     22  C   UNL     1       3.695   5.919  17.857  0.00  0.00    +0.000 C 
ATOM     23  C   UNL     1       4.344   4.614  18.262  0.00  0.00    +0.000 C 
ATOM     24  O   UNL     1       3.404   4.042  19.186  0.00  0.00    +0.000 OA
ATOM     25  C   UNL     1       2.658   5.054  19.723  0.00  0.00    +0.000 C 
ATOM     26  O   UNL     1       1.926   4.871  20.678  0.00  0.00    +0.000 OA
BRANCH  23  27
ATOM     27  C   UNL     1       4.563   3.682  17.081  0.00  0.00    +0.000 C 
BRANCH  27  28
ATOM     28  N   UNL     1       5.618   4.173  16.220  0.00  0.00    +0.000 N 
ATOM     29  C   UNL     1       5.576   4.387  14.877  0.00  0.00    +0.000 A 
ATOM     30  C   UNL     1       6.849   4.802  14.574  0.00  0.00    +0.000 A 
ATOM     31  N   UNL     1       7.598   4.846  15.718  0.00  0.00    +0.000 NA
ATOM     32  N   UNL     1       6.828   4.460  16.728  0.00  0.00    +0.000 NA
ENDBRANCH  27  28
ENDBRANCH  23  27
ENDBRANCH   4  21
TORSDOF 7
ENDMDL
MODEL 4
REMARK VINA RESULT:      -8.0      0.989      1.309
REMARK  Name = 
REMARK  8 active torsions:
REMARK  status: ('A' for Active; 'I' for Inactive)
REMARK    1  A    between atoms: C_1  and  C_2
REMARK    2  A    between atoms: C_2  and  O_3
REMARK    3  A    between atoms: O_3  and  C_4
REMARK    4  A    between atoms: C_4  and  C_6
REMARK    5  A    between atoms: N_11  and  C_12
REMARK    6  A    between atoms: C_15  and  N_16
REMARK    7  A    between atoms: C_18  and  C_19
REMARK    8  A    between atoms: C_19  and  N_20
REMARK                            x       y       z     vdW  Elec       q    Type
REMARK                         _______ _______ _______ _____ _____    ______ ____
ROOT
ATOM      1  C   UNL     1       1.427   8.471  19.500  0.00  0.00    +0.000 A 
ATOM      2  C   UNL     1       2.094   8.840  18.326  0.00  0.00    +0.000 A 
ATOM      3  C   UNL     1       3.113   8.053  17.770  0.00  0.00    +0.000 A 
ATOM      4  C   UNL     1       3.513   6.853  18.365  0.00  0.00    +0.000 A 
ATOM      5  C   UNL     1       2.859   6.471  19.537  0.00  0.00    +0.000 A 
ATOM      6  C   UNL     1       1.849   7.267  20.086  0.00  0.00    +0.000 A 
ATOM      7  F   UNL     1       1.312   6.844  21.245  0.00  0.00    +0.000 F 
ENDROOT
BRANCH   1  13
ATOM      8  C   UNL     1      -1.435  12.687  21.379  0.00  0.00    +0.000 C 
ATOM      9 CL   UNL     1      -2.579  13.528  20.366  0.00  0.00    +0.000 Cl
ATOM     10  C   UNL     1      -0.511  11.859  20.842  0.00  0.00    +0.000 C 
ATOM     11  C   UNL     1       0.540  11.081  21.623  0.00  0.00    +0.000 C 
ATOM     12  C   UNL     1       0.309   9.581  21.425  0.00  0.00    +0.000 C 
ATOM     13  N   UNL     1       0.397   9.253  19.996  0.00  0.00    +0.000 N 
ATOM     14  C   UNL     1      -0.494  10.004  19.098  0.00  0.00    +0.000 C 
ATOM     15  C   UNL     1      -0.402  11.524  19.360  0.00  0.00    +0.000 C 
BRANCH   8  16
ATOM     16  C   UNL     1      -1.633  12.846  22.857  0.00  0.00    +0.000 C 
ATOM     17  O   UNL     1      -0.852  13.420  23.603  0.00  0.00    +0.000 OA
BRANCH  16  18
ATOM     18  O   UNL     1      -2.728  12.157  23.279  0.00  0.00    +0.000 OA
BRANCH  18  20
ATOM     19  C   UNL     1      -5.002  12.881  23.140  0.00  0.00    +0.000 C 
ATOM     20  C   UNL     1      -3.718  12.951  23.947  0.00  0.00    +0.000 C 
ENDBRANCH  18  20
ENDBRANCH  16  18
ENDBRANCH   8  16
ENDBRANCH   1  13
BRANCH   4  21
ATOM     21  N   UNL     1       4.531   6.044  17.806  0.00  0.00    +0.000 N 
ATOM     22  C   UNL     1       4.587   5.690  16.418  0.00  0.00    +0.000 C 
ATOM     23  C   UNL     1       5.975   5.105  16.277  0.00  0.00    +0.000 C 
ATOM     24  O   UNL     1       6.285   4.648  17.603  0.00  0.00    +0.000 OA
ATOM     25  C   UNL     1       5.534   5.364  18.492  0.00  0.00    +0.000 C 
ATOM     26  O   UNL     1       5.746   5.319  19.691  0.00  0.00    +0.000 OA
BRANCH  23  27
ATOM     27  C   UNL     1       6.020   3.947  15.291  0.00  0.00    +0.000 C 
BRANCH  27  28
ATOM     28  N   UNL     1       6.657   4.344  14.053  0.00  0.00    +0.000 N 
ATOM     29  C   UNL     1       6.498   3.801  12.816  0.00  0.00    +0.000 A 
ATOM     30  C   UNL     1       7.365   4.522  12.031  0.00  0.00    +0.000 A 
ATOM     31  N   UNL     1       7.989   5.470  12.795  0.00  0.00    +0.000 NA
ATOM     32  N   UNL     1       7.541   5.354  14.039  0.00  0.00    +0.000 NA
ENDBRANCH  27  28
ENDBRANCH  23  27
ENDBRANCH   4  21
TORSDOF 7
ENDMDL
MODEL 5
REMARK VINA RESULT:      -7.9      2.999      4.302
REMARK  Name = 
REMARK  8 active torsions:
REMARK  status: ('A' for Active; 'I' for Inactive)
REMARK    1  A    between atoms: C_1  and  C_2
REMARK    2  A    between atoms: C_2  and  O_3
REMARK    3  A    between atoms: O_3  and  C_4
REMARK    4  A    between atoms: C_4  and  C_6
REMARK    5  A    between atoms: N_11  and  C_12
REMARK    6  A    between atoms: C_15  and  N_16
REMARK    7  A    between atoms: C_18  and  C_19
REMARK    8  A    between atoms: C_19  and  N_20
REMARK                            x       y       z     vdW  Elec       q    Type
REMARK                         _______ _______ _______ _____ _____    ______ ____
ROOT
ATOM      1  C   UNL     1       1.260   9.716  19.068  0.00  0.00    +0.000 A 
ATOM      2  C   UNL     1       1.717   9.371  17.791  0.00  0.00    +0.000 A 
ATOM      3  C   UNL     1       2.298   8.124  17.519  0.00  0.00    +0.000 A 
ATOM      4  C   UNL     1       2.450   7.158  18.518  0.00  0.00    +0.000 A 
ATOM      5  C   UNL     1       2.001   7.486  19.798  0.00  0.00    +0.000 A 
ATOM      6  C   UNL     1       1.429   8.735  20.060  0.00  0.00    +0.000 A 
ATOM      7  F   UNL     1       1.074   8.981  21.333  0.00  0.00    +0.000 F 
ENDROOT
BRANCH   1  13
ATOM      8  C   UNL     1      -0.991  14.021  21.497  0.00  0.00    +0.000 C 
ATOM      9 CL   UNL     1      -0.105  15.508  21.704  0.00  0.00    +0.000 Cl
ATOM     10  C   UNL     1      -0.352  12.871  21.186  0.00  0.00    +0.000 C 
ATOM     11  C   UNL     1      -1.016  11.514  20.989  0.00  0.00    +0.000 C 
ATOM     12  C   UNL     1      -0.787  11.043  19.551  0.00  0.00    +0.000 C 
ATOM     13  N   UNL     1       0.654  10.941  19.289  0.00  0.00    +0.000 N 
ATOM     14  C   UNL     1       1.450  12.154  19.535  0.00  0.00    +0.000 C 
ATOM     15  C   UNL     1       1.145  12.751  20.927  0.00  0.00    +0.000 C 
BRANCH   8  16
ATOM     16  C   UNL     1      -2.484  14.137  21.559  0.00  0.00    +0.000 C 
ATOM     17  O   UNL     1      -3.239  13.893  20.627  0.00  0.00    +0.000 OA
BRANCH  16  18
ATOM     18  O   UNL     1      -2.882  14.672  22.745  0.00  0.00    +0.000 OA
BRANCH  18  20
ATOM     19  C   UNL     1      -3.542  12.539  23.600  0.00  0.00    +0.000 C 
ATOM     20  C   UNL     1      -2.743  13.801  23.875  0.00  0.00    +0.000 C 
ENDBRANCH  18  20
ENDBRANCH  16  18
ENDBRANCH   8  16
ENDBRANCH   1  13
BRANCH   4  21
ATOM     21  N   UNL     1       3.023   5.892  18.253  0.00  0.00    +0.000 N 
ATOM     22  C   UNL     1       2.292   4.661  18.331  0.00  0.00    +0.000 C 
ATOM     23  C   UNL     1       3.231   3.671  17.678  0.00  0.00    +0.000 C 
ATOM     24  O   UNL     1       4.527   4.263  17.863  0.00  0.00    +0.000 OA
ATOM     25  C   UNL     1       4.366   5.611  18.018  0.00  0.00    +0.000 C 
ATOM     26  O   UNL     1       5.314   6.375  17.993  0.00  0.00    +0.000 OA
BRANCH  23  27
ATOM     27  C   UNL     1       3.175   2.299  18.331  0.00  0.00    +0.000 C 
BRANCH  27  28
ATOM     28  N   UNL     1       2.692   2.390  19.692  0.00  0.00    +0.000 N 
ATOM     29  C   UNL     1       1.403   2.403  20.128  0.00  0.00    +0.000 A 
ATOM     30  C   UNL     1       1.521   2.552  21.488  0.00  0.00    +0.000 A 
ATOM     31  N   UNL     1       2.846   2.602  21.827  0.00  0.00    +0.000 NA
ATOM     32  N   UNL     1       3.559   2.497  20.713  0.00  0.00    +0.000 NA
ENDBRANCH  27  28
ENDBRANCH  23  27
ENDBRANCH   4  21
TORSDOF 7
ENDMDL
MODEL 6
REMARK VINA RESULT:      -7.9      3.760     11.395
REMARK  Name = 
REMARK  8 active torsions:
REMARK  status: ('A' for Active; 'I' for Inactive)
REMARK    1  A    between atoms: C_1  and  C_2
REMARK    2  A    between atoms: C_2  and  O_3
REMARK    3  A    between atoms: O_3  and  C_4
REMARK    4  A    between atoms: C_4  and  C_6
REMARK    5  A    between atoms: N_11  and  C_12
REMARK    6  A    between atoms: C_15  and  N_16
REMARK    7  A    between atoms: C_18  and  C_19
REMARK    8  A    between atoms: C_19  and  N_20
REMARK                            x       y       z     vdW  Elec       q    Type
REMARK                         _______ _______ _______ _____ _____    ______ ____
ROOT
ATOM      1  C   UNL     1       2.591   7.234  19.030  0.00  0.00    +0.000 A 
ATOM      2  C   UNL     1       2.300   8.431  18.366  0.00  0.00    +0.000 A 
ATOM      3  C   UNL     1       1.418   9.383  18.899  0.00  0.00    +0.000 A 
ATOM      4  C   UNL     1       0.784   9.181  20.128  0.00  0.00    +0.000 A 
ATOM      5  C   UNL     1       1.062   7.991  20.803  0.00  0.00    +0.000 A 
ATOM      6  C   UNL     1       1.938   7.046  20.260  0.00  0.00    +0.000 A 
ATOM      7  F   UNL     1       2.104   5.908  20.956  0.00  0.00    +0.000 F 
ENDROOT
BRANCH   1  13
ATOM      8  C   UNL     1       7.076   5.073  16.859  0.00  0.00    +0.000 C 
ATOM      9 CL   UNL     1       8.186   4.135  17.823  0.00  0.00    +0.000 Cl
ATOM     10  C   UNL     1       6.145   5.860  17.443  0.00  0.00    +0.000 C 
ATOM     11  C   UNL     1       5.132   6.728  16.708  0.00  0.00    +0.000 C 
ATOM     12  C   UNL     1       3.718   6.249  17.043  0.00  0.00    +0.000 C 
ATOM     13  N   UNL     1       3.498   6.337  18.493  0.00  0.00    +0.000 N 
ATOM     14  C   UNL     1       4.466   5.626  19.344  0.00  0.00    +0.000 C 
ATOM     15  C   UNL     1       5.919   5.970  18.946  0.00  0.00    +0.000 C 
BRANCH   8  16
ATOM     16  C   UNL     1       7.145   4.847  15.379  0.00  0.00    +0.000 C 
ATOM     17  O   UNL     1       7.773   5.549  14.598  0.00  0.00    +0.000 OA
BRANCH  16  18
ATOM     18  O   UNL     1       6.314   3.837  15.001  0.00  0.00    +0.000 OA
BRANCH  18  20
ATOM     19  C   UNL     1       6.028   3.405  12.666  0.00  0.00    +0.000 C 
ATOM     20  C   UNL     1       5.476   4.137  13.877  0.00  0.00    +0.000 C 
ENDBRANCH  18  20
ENDBRANCH  16  18
ENDBRANCH   8  16
ENDBRANCH   1  13
BRANCH   4  21
ATOM     21  N   UNL     1      -0.097  10.140  20.681  0.00  0.00    +0.000 N 
ATOM     22  C   UNL     1      -0.300  10.307  22.091  0.00  0.00    +0.000 C 
ATOM     23  C   UNL     1      -1.061  11.612  22.167  0.00  0.00    +0.000 C 
ATOM     24  O   UNL     1      -1.703  11.704  20.885  0.00  0.00    +0.000 OA
ATOM     25  C   UNL     1      -0.988  10.958  19.991  0.00  0.00    +0.000 C 
ATOM     26  O   UNL     1      -1.196  11.022  18.793  0.00  0.00    +0.000 OA
BRANCH  23  27
ATOM     27  C   UNL     1      -2.096  11.616  23.281  0.00  0.00    +0.000 C 
BRANCH  27  28
ATOM     28  N   UNL     1      -3.055  12.685  23.097  0.00  0.00    +0.000 N 
ATOM     29  C   UNL     1      -2.873  14.020  23.289  0.00  0.00    +0.000 A 
ATOM     30  C   UNL     1      -4.107  14.558  23.016  0.00  0.00    +0.000 A 
ATOM     31  N   UNL     1      -4.970  13.560  22.656  0.00  0.00    +0.000 NA
ATOM     32  N   UNL     1      -4.309  12.409  22.705  0.00  0.00    +0.000 NA
ENDBRANCH  27  28
ENDBRANCH  23  27
ENDBRANCH   4  21
TORSDOF 7
ENDMDL
MODEL 7
REMARK VINA RESULT:      -7.9      1.112      1.388
REMARK  Name = 
REMARK  8 active torsions:
REMARK  status: ('A' for Active; 'I' for Inactive)
REMARK    1  A    between atoms: C_1  and  C_2
REMARK    2  A    between atoms: C_2  and  O_3
REMARK    3  A    between atoms: O_3  and  C_4
REMARK    4  A    between atoms: C_4  and  C_6
REMARK    5  A    between atoms: N_11  and  C_12
REMARK    6  A    between atoms: C_15  and  N_16
REMARK    7  A    between atoms: C_18  and  C_19
REMARK    8  A    between atoms: C_19  and  N_20
REMARK                            x       y       z     vdW  Elec       q    Type
REMARK                         _______ _______ _______ _____ _____    ______ ____
ROOT
ATOM      1  C   UNL     1       1.340   8.710  19.662  0.00  0.00    +0.000 A 
ATOM      2  C   UNL     1       1.643   7.589  20.443  0.00  0.00    +0.000 A 
ATOM      3  C   UNL     1       2.519   6.587  20.000  0.00  0.00    +0.000 A 
ATOM      4  C   UNL     1       3.137   6.663  18.749  0.00  0.00    +0.000 A 
ATOM      5  C   UNL     1       2.845   7.774  17.957  0.00  0.00    +0.000 A 
ATOM      6  C   UNL     1       1.965   8.763  18.405  0.00  0.00    +0.000 A 
ATOM      7  F   UNL     1       1.704   9.769  17.553  0.00  0.00    +0.000 F 
ENDROOT
BRANCH   1  13
ATOM      8  C   UNL     1      -0.705  13.542  21.067  0.00  0.00    +0.000 C 
ATOM      9 CL   UNL     1      -1.941  14.314  20.109  0.00  0.00    +0.000 Cl
ATOM     10  C   UNL     1       0.017  12.514  20.568  0.00  0.00    +0.000 C 
ATOM     11  C   UNL     1       1.123  11.770  21.305  0.00  0.00    +0.000 C 
ATOM     12  C   UNL     1       0.722  10.303  21.471  0.00  0.00    +0.000 C 
ATOM     13  N   UNL     1       0.502   9.699  20.150  0.00  0.00    +0.000 N 
ATOM     14  C   UNL     1      -0.473  10.373  19.279  0.00  0.00    +0.000 C 
ATOM     15  C   UNL     1      -0.193  11.890  19.194  0.00  0.00    +0.000 C 
BRANCH   8  16
ATOM     16  C   UNL     1      -0.598  14.004  22.489  0.00  0.00    +0.000 C 
ATOM     17  O   UNL     1       0.104  14.932  22.866  0.00  0.00    +0.000 OA
BRANCH  16  18
ATOM     18  O   UNL     1      -1.282  13.175  23.324  0.00  0.00    +0.000 OA
BRANCH  18  20
ATOM     19  C   UNL     1      -3.592  12.562  23.235  0.00  0.00    +0.000 C 
ATOM     20  C   UNL     1      -2.599  13.625  23.672  0.00  0.00    +0.000 C 
ENDBRANCH  18  20
ENDBRANCH  16  18
ENDBRANCH   8  16
ENDBRANCH   1  13
BRANCH   4  21
ATOM     21  N   UNL     1       4.033   5.665  18.296  0.00  0.00    +0.000 N 
ATOM     22  C   UNL     1       5.459   5.775  18.403  0.00  0.00    +0.000 C 
ATOM     23  C   UNL     1       5.928   4.373  18.080  0.00  0.00    +0.000 C 
ATOM     24  O   UNL     1       4.864   3.838  17.277  0.00  0.00    +0.000 OA
ATOM     25  C   UNL     1       3.716   4.517  17.575  0.00  0.00    +0.000 C 
ATOM     26  O   UNL     1       2.627   4.134  17.187  0.00  0.00    +0.000 OA
BRANCH  23  27
ATOM     27  C   UNL     1       7.236   4.363  17.304  0.00  0.00    +0.000 C 
BRANCH  27  28
ATOM     28  N   UNL     1       6.999   4.509  15.883  0.00  0.00    +0.000 N 
ATOM     29  C   UNL     1       6.333   3.662  15.051  0.00  0.00    +0.000 A 
ATOM     30  C   UNL     1       6.450   4.259  13.820  0.00  0.00    +0.000 A 
ATOM     31  N   UNL     1       7.147   5.430  13.945  0.00  0.00    +0.000 NA
ATOM     32  N   UNL     1       7.476   5.576  15.222  0.00  0.00    +0.000 NA
ENDBRANCH  27  28
ENDBRANCH  23  27
ENDBRANCH   4  21
TORSDOF 7
ENDMDL
MODEL 8
REMARK VINA RESULT:      -7.8      1.755      2.236
REMARK  Name = 
REMARK  8 active torsions:
REMARK  status: ('A' for Active; 'I' for Inactive)
REMARK    1  A    between atoms: C_1  and  C_2
REMARK    2  A    between atoms: C_2  and  O_3
REMARK    3  A    between atoms: O_3  and  C_4
REMARK    4  A    between atoms: C_4  and  C_6
REMARK    5  A    between atoms: N_11  and  C_12
REMARK    6  A    between atoms: C_15  and  N_16
REMARK    7  A    between atoms: C_18  and  C_19
REMARK    8  A    between atoms: C_19  and  N_20
REMARK                            x       y       z     vdW  Elec       q    Type
REMARK                         _______ _______ _______ _____ _____    ______ ____
ROOT
ATOM      1  C   UNL     1       1.457   9.191  18.984  0.00  0.00    +0.000 A 
ATOM      2  C   UNL     1       2.173   9.088  17.785  0.00  0.00    +0.000 A 
ATOM      3  C   UNL     1       3.034   8.012  17.523  0.00  0.00    +0.000 A 
ATOM      4  C   UNL     1       3.218   6.984  18.451  0.00  0.00    +0.000 A 
ATOM      5  C   UNL     1       2.513   7.072  19.652  0.00  0.00    +0.000 A 
ATOM      6  C   UNL     1       1.662   8.152  19.906  0.00  0.00    +0.000 A 
ATOM      7  F   UNL     1       1.065   8.179  21.111  0.00  0.00    +0.000 F 
ENDROOT
BRANCH   1  13
ATOM      8  C   UNL     1      -1.432  13.141  21.340  0.00  0.00    +0.000 C 
ATOM      9 CL   UNL     1      -0.969  14.816  21.185  0.00  0.00    +0.000 Cl
ATOM     10  C   UNL     1      -0.565  12.151  21.030  0.00  0.00    +0.000 C 
ATOM     11  C   UNL     1      -0.852  10.659  21.133  0.00  0.00    +0.000 C 
ATOM     12  C   UNL     1      -0.760  10.029  19.741  0.00  0.00    +0.000 C 
ATOM     13  N   UNL     1       0.584  10.247  19.190  0.00  0.00    +0.000 N 
ATOM     14  C   UNL     1       1.044  11.643  19.123  0.00  0.00    +0.000 C 
ATOM     15  C   UNL     1       0.836  12.366  20.472  0.00  0.00    +0.000 C 
BRANCH   8  16
ATOM     16  C   UNL     1      -2.864  12.891  21.706  0.00  0.00    +0.000 C 
ATOM     17  O   UNL     1      -3.250  12.579  22.824  0.00  0.00    +0.000 OA
BRANCH  16  18
ATOM     18  O   UNL     1      -3.663  12.931  20.605  0.00  0.00    +0.000 OA
BRANCH  18  20
ATOM     19  C   UNL     1      -5.893  13.393  19.877  0.00  0.00    +0.000 C 
ATOM     20  C   UNL     1      -4.696  13.924  20.647  0.00  0.00    +0.000 C 
ENDBRANCH  18  20
ENDBRANCH  16  18
ENDBRANCH   8  16
ENDBRANCH   1  13
BRANCH   4  21
ATOM     21  N   UNL     1       4.074   5.887  18.192  0.00  0.00    +0.000 N 
ATOM     22  C   UNL     1       5.505   5.973  18.239  0.00  0.00    +0.000 C 
ATOM     23  C   UNL     1       5.929   4.521  18.199  0.00  0.00    +0.000 C 
ATOM     24  O   UNL     1       4.828   3.866  17.549  0.00  0.00    +0.000 OA
ATOM     25  C   UNL     1       3.707   4.627  17.729  0.00  0.00    +0.000 C 
ATOM     26  O   UNL     1       2.597   4.207  17.453  0.00  0.00    +0.000 OA
BRANCH  23  27
ATOM     27  C   UNL     1       7.212   4.312  17.411  0.00  0.00    +0.000 C 
BRANCH  27  28
ATOM     28  N   UNL     1       6.989   4.505  15.994  0.00  0.00    +0.000 N 
ATOM     29  C   UNL     1       6.260   3.731  15.144  0.00  0.00    +0.000 A 
ATOM     30  C   UNL     1       6.425   4.342  13.926  0.00  0.00    +0.000 A 
ATOM     31  N   UNL     1       7.212   5.451  14.075  0.00  0.00    +0.000 NA
ATOM     32  N   UNL     1       7.550   5.545  15.355  0.00  0.00    +0.000 NA
ENDBRANCH  27  28
ENDBRANCH  23  27
ENDBRANCH   4  21
TORSDOF 7
ENDMDL
MODEL 9
REMARK VINA RESULT:      -7.8      3.613     11.404
REMARK  Name = 
REMARK  8 active torsions:
REMARK  status: ('A' for Active; 'I' for Inactive)
REMARK    1  A    between atoms: C_1  and  C_2
REMARK    2  A    between atoms: C_2  and  O_3
REMARK    3  A    between atoms: O_3  and  C_4
REMARK    4  A    between atoms: C_4  and  C_6
REMARK    5  A    between atoms: N_11  and  C_12
REMARK    6  A    between atoms: C_15  and  N_16
REMARK    7  A    between atoms: C_18  and  C_19
REMARK    8  A    between atoms: C_19  and  N_20
REMARK                            x       y       z     vdW  Elec       q    Type
REMARK                         _______ _______ _______ _____ _____    ______ ____
ROOT
ATOM      1  C   UNL     1       1.855   8.340  18.769  0.00  0.00    +0.000 A 
ATOM      2  C   UNL     1       1.505   9.544  18.148  0.00  0.00    +0.000 A 
ATOM      3  C   UNL     1       0.919  10.605  18.854  0.00  0.00    +0.000 A 
ATOM      4  C   UNL     1       0.655  10.510  20.223  0.00  0.00    +0.000 A 
ATOM      5  C   UNL     1       0.996   9.315  20.859  0.00  0.00    +0.000 A 
ATOM      6  C   UNL     1       1.574   8.261  20.144  0.00  0.00    +0.000 A 
ATOM      7  F   UNL     1       1.820   7.131  20.829  0.00  0.00    +0.000 F 
ENDROOT
BRANCH   1  13
ATOM      8  C   UNL     1       5.139   4.261  17.329  0.00  0.00    +0.000 C 
ATOM      9 CL   UNL     1       4.579   2.610  17.317  0.00  0.00    +0.000 Cl
ATOM     10  C   UNL     1       4.442   5.225  17.973  0.00  0.00    +0.000 C 
ATOM     11  C   UNL     1       4.836   6.693  18.060  0.00  0.00    +0.000 C 
ATOM     12  C   UNL     1       3.761   7.546  17.382  0.00  0.00    +0.000 C 
ATOM     13  N   UNL     1       2.469   7.331  18.048  0.00  0.00    +0.000 N 
ATOM     14  C   UNL     1       2.003   5.938  18.132  0.00  0.00    +0.000 C 
ATOM     15  C   UNL     1       3.110   5.009  18.679  0.00  0.00    +0.000 C 
BRANCH   8  16
ATOM     16  C   UNL     1       6.346   4.547  16.488  0.00  0.00    +0.000 C 
ATOM     17  O   UNL     1       7.502   4.456  16.879  0.00  0.00    +0.000 OA
BRANCH  16  18
ATOM     18  O   UNL     1       5.987   5.045  15.273  0.00  0.00    +0.000 OA
BRANCH  18  20
ATOM     19  C   UNL     1       6.101   3.728  13.280  0.00  0.00    +0.000 C 
ATOM     20  C   UNL     1       6.856   4.679  14.193  0.00  0.00    +0.000 C 
ENDBRANCH  18  20
ENDBRANCH  16  18
ENDBRANCH   8  16
ENDBRANCH   1  13
BRANCH   4  21
ATOM     21  N   UNL     1       0.075  11.578  20.949  0.00  0.00    +0.000 N 
ATOM     22  C   UNL     1      -1.324  11.661  21.251  0.00  0.00    +0.000 C 
ATOM     23  C   UNL     1      -1.380  12.778  22.270  0.00  0.00    +0.000 C 
ATOM     24  O   UNL     1      -0.209  13.558  21.980  0.00  0.00    +0.000 OA
ATOM     25  C   UNL     1       0.702  12.752  21.358  0.00  0.00    +0.000 C 
ATOM     26  O   UNL     1       1.855  13.104  21.183  0.00  0.00    +0.000 OA
BRANCH  23  27
ATOM     27  C   UNL     1      -2.633  13.629  22.129  0.00  0.00    +0.000 C 
BRANCH  27  28
ATOM     28  N   UNL     1      -3.686  13.151  23.001  0.00  0.00    +0.000 N 
ATOM     29  C   UNL     1      -3.685  13.082  24.360  0.00  0.00    +0.000 A 
ATOM     30  C   UNL     1      -4.900  12.515  24.656  0.00  0.00    +0.000 A 
ATOM     31  N   UNL     1      -5.590  12.284  23.497  0.00  0.00    +0.000 NA
ATOM     32  N   UNL     1      -4.833  12.684  22.483  0.00  0.00    +0.000 NA
ENDBRANCH  27  28
ENDBRANCH  23  27
ENDBRANCH   4  21
TORSDOF 7
ENDMDL
