MODEL 1
REMARK VINA RESULT:      -7.8      0.000      0.000
REMARK  Name = 
REMARK  7 active torsions:
REMARK  status: ('A' for Active; 'I' for Inactive)
REMARK    1  A    between atoms: C_2  and  C_3
REMARK    2  A    between atoms: C_2  and  O_15
REMARK    3  A    between atoms: C_3  and  N_4
REMARK    4  A    between atoms: O_15  and  C_16
REMARK    5  A    between atoms: C_16  and  C_17
REMARK    6  A    between atoms: C_17  and  O_18
REMARK    7  A    between atoms: O_18  and  C_19
REMARK                            x       y       z     vdW  Elec       q    Type
REMARK                         _______ _______ _______ _____ _____    ______ ____
ROOT
ATOM      1  O   UNL     1       0.958   3.472  17.560  0.00  0.00    +0.000 OA
ATOM      2  C   UNL     1       1.671   2.930  18.394  0.00  0.00    +0.000 C 
ENDROOT
BRANCH   2   3
ATOM      3  C   UNL     1       2.942   2.164  18.071  0.00  0.00    +0.000 C 
BRANCH   3   4
ATOM      4  N   UNL     1       4.114   3.003  18.212  0.00  0.00    +0.000 N 
ATOM      5  C   UNL     1       4.908   3.006  19.316  0.00  0.00    +0.000 C 
ATOM      6  O   UNL     1       4.815   2.289  20.294  0.00  0.00    +0.000 OA
ATOM      7  N   UNL     1       5.854   3.992  19.174  0.00  0.00    +0.000 N 
ATOM      8  C   UNL     1       5.781   4.646  17.890  0.00  0.00    +0.000 C 
ATOM      9  C   UNL     1       5.660   6.171  17.978  0.00  0.00    +0.000 C 
ATOM     10  C   UNL     1       6.927   6.712  17.322  0.00  0.00    +0.000 C 
ATOM     11  C   UNL     1       7.301   5.648  16.305  0.00  0.00    +0.000 C 
ATOM     12  C   UNL     1       7.012   4.342  17.033  0.00  0.00    +0.000 C 
ATOM     13  C   UNL     1       4.509   3.972  17.333  0.00  0.00    +0.000 C 
ATOM     14  O   UNL     1       3.957   4.261  16.280  0.00  0.00    +0.000 OA
ATOM     15  H   UNL     1       6.557   4.148  19.885  0.00  0.00    +0.000 HD
ENDBRANCH   3   4
ENDBRANCH   2   3
BRANCH   2  16
ATOM     16  O   UNL     1       1.392   2.873  19.728  0.00  0.00    +0.000 OA
BRANCH  16  17
ATOM     17  C   UNL     1       0.978   4.108  20.347  0.00  0.00    +0.000 C 
BRANCH  17  18
ATOM     18  C   UNL     1       2.162   4.875  20.932  0.00  0.00    +0.000 C 
BRANCH  18  19
ATOM     19  O   UNL     1       2.761   5.702  19.929  0.00  0.00    +0.000 OA
BRANCH  19  20
ATOM     20  C   UNL     1       2.210   6.949  19.775  0.00  0.00    +0.000 A 
ATOM     21  C   UNL     1       1.569   7.682  20.778  0.00  0.00    +0.000 A 
ATOM     22  C   UNL     1       1.049   8.952  20.508  0.00  0.00    +0.000 A 
ATOM     23  C   UNL     1       1.169   9.492  19.231  0.00  0.00    +0.000 A 
ATOM     24 BR   UNL     1       0.471  11.213  18.876  0.00  0.00    +0.000 Br
ATOM     25  C   UNL     1       1.798   8.771  18.220  0.00  0.00    +0.000 A 
ATOM     26  C   UNL     1       2.316   7.501  18.494  0.00  0.00    +0.000 A 
ENDBRANCH  19  20
ENDBRANCH  18  19
ENDBRANCH  17  18
ENDBRANCH  16  17
ENDBRANCH   2  16
TORSDOF 7
ENDMDL
MODEL 2
REMARK VINA RESULT:      -7.3      4.299      6.616
REMARK  Name = 
REMARK  7 active torsions:
REMARK  status: ('A' for Active; 'I' for Inactive)
REMARK    1  A    between atoms: C_2  and  C_3
REMARK    2  A    between atoms: C_2  and  O_15
REMARK    3  A    between atoms: C_3  and  N_4
REMARK    4  A    between atoms: O_15  and  C_16
REMARK    5  A    between atoms: C_16  and  C_17
REMARK    6  A    between atoms: C_17  and  O_18
REMARK    7  A    between atoms: O_18  and  C_19
REMARK                            x       y       z     vdW  Elec       q    Type
REMARK                         _______ _______ _______ _____ _____    ______ ____
ROOT
ATOM      1  O   UNL     1       5.876   5.750  15.440  0.00  0.00    +0.000 OA
ATOM      2  C   UNL     1       6.243   6.320  16.459  0.00  0.00    +0.000 C 
ENDROOT
BRANCH   2   3
ATOM      3  C   UNL     1       5.352   6.602  17.656  0.00  0.00    +0.000 C 
BRANCH   3   4
ATOM      4  N   UNL     1       4.726   5.391  18.144  0.00  0.00    +0.000 N 
ATOM      5  C   UNL     1       5.422   4.310  18.586  0.00  0.00    +0.000 C 
ATOM      6  O   UNL     1       6.628   4.208  18.708  0.00  0.00    +0.000 OA
ATOM      7  N   UNL     1       4.534   3.300  18.865  0.00  0.00    +0.000 N 
ATOM      8  C   UNL     1       3.161   3.711  18.699  0.00  0.00    +0.000 C 
ATOM      9  C   UNL     1       2.353   2.802  17.766  0.00  0.00    +0.000 C 
ATOM     10  C   UNL     1       1.261   2.197  18.645  0.00  0.00    +0.000 C 
ATOM     11  C   UNL     1       1.021   3.247  19.715  0.00  0.00    +0.000 C 
ATOM     12  C   UNL     1       2.421   3.753  20.038  0.00  0.00    +0.000 C 
ATOM     13  C   UNL     1       3.386   5.123  18.118  0.00  0.00    +0.000 C 
ATOM     14  O   UNL     1       2.507   5.869  17.709  0.00  0.00    +0.000 OA
ATOM     15  H   UNL     1       4.853   2.409  19.225  0.00  0.00    +0.000 HD
ENDBRANCH   3   4
ENDBRANCH   2   3
BRANCH   2  16
ATOM     16  O   UNL     1       7.487   6.850  16.640  0.00  0.00    +0.000 OA
BRANCH  16  17
ATOM     17  C   UNL     1       7.779   7.356  17.958  0.00  0.00    +0.000 C 
BRANCH  17  18
ATOM     18  C   UNL     1       8.123   8.844  17.933  0.00  0.00    +0.000 C 
BRANCH  18  19
ATOM     19  O   UNL     1       9.113   9.140  18.923  0.00  0.00    +0.000 OA
BRANCH  19  20
ATOM     20  C   UNL     1       9.313  10.472  19.190  0.00  0.00    +0.000 A 
ATOM     21  C   UNL     1       9.430  11.035  20.463  0.00  0.00    +0.000 A 
ATOM     22  C   UNL     1       9.640  12.410  20.615  0.00  0.00    +0.000 A 
ATOM     23  C   UNL     1       9.732  13.224  19.492  0.00  0.00    +0.000 A 
ATOM     24 BR   UNL     1      10.025  15.080  19.706  0.00  0.00    +0.000 Br
ATOM     25  C   UNL     1       9.611  12.679  18.217  0.00  0.00    +0.000 A 
ATOM     26  C   UNL     1       9.400  11.304  18.069  0.00  0.00    +0.000 A 
ENDBRANCH  19  20
ENDBRANCH  18  19
ENDBRANCH  17  18
ENDBRANCH  16  17
ENDBRANCH   2  16
TORSDOF 7
ENDMDL
MODEL 3
REMARK VINA RESULT:      -7.3      4.478      6.805
REMARK  Name = 
REMARK  7 active torsions:
REMARK  status: ('A' for Active; 'I' for Inactive)
REMARK    1  A    between atoms: C_2  and  C_3
REMARK    2  A    between atoms: C_2  and  O_15
REMARK    3  A    between atoms: C_3  and  N_4
REMARK    4  A    between atoms: O_15  and  C_16
REMARK    5  A    between atoms: C_16  and  C_17
REMARK    6  A    between atoms: C_17  and  O_18
REMARK    7  A    between atoms: O_18  and  C_19
REMARK                            x       y       z     vdW  Elec       q    Type
REMARK                         _______ _______ _______ _____ _____    ______ ____
ROOT
ATOM      1  O   UNL     1       5.496   6.824  15.365  0.00  0.00    +0.000 OA
ATOM      2  C   UNL     1       6.051   6.563  16.424  0.00  0.00    +0.000 C 
ENDROOT
BRANCH   2   3
ATOM      3  C   UNL     1       6.409   5.161  16.886  0.00  0.00    +0.000 C 
BRANCH   3   4
ATOM      4  N   UNL     1       5.413   4.635  17.795  0.00  0.00    +0.000 N 
ATOM      5  C   UNL     1       5.544   4.656  19.148  0.00  0.00    +0.000 C 
ATOM      6  O   UNL     1       6.443   5.160  19.795  0.00  0.00    +0.000 OA
ATOM      7  N   UNL     1       4.486   3.977  19.703  0.00  0.00    +0.000 N 
ATOM      8  C   UNL     1       3.532   3.541  18.713  0.00  0.00    +0.000 C 
ATOM      9  C   UNL     1       3.223   2.040  18.772  0.00  0.00    +0.000 C 
ATOM     10  C   UNL     1       1.742   1.950  19.126  0.00  0.00    +0.000 C 
ATOM     11  C   UNL     1       1.144   3.222  18.552  0.00  0.00    +0.000 C 
ATOM     12  C   UNL     1       2.198   4.279  18.854  0.00  0.00    +0.000 C 
ATOM     13  C   UNL     1       4.287   3.951  17.432  0.00  0.00    +0.000 C 
ATOM     14  O   UNL     1       3.929   3.704  16.288  0.00  0.00    +0.000 OA
ATOM     15  H   UNL     1       4.389   3.892  20.707  0.00  0.00    +0.000 HD
ENDBRANCH   3   4
ENDBRANCH   2   3
BRANCH   2  16
ATOM     16  O   UNL     1       6.365   7.487  17.378  0.00  0.00    +0.000 OA
BRANCH  16  17
ATOM     17  C   UNL     1       7.769   7.740  17.584  0.00  0.00    +0.000 C 
BRANCH  17  18
ATOM     18  C   UNL     1       8.041   9.207  17.911  0.00  0.00    +0.000 C 
BRANCH  18  19
ATOM     19  O   UNL     1       8.999   9.308  18.970  0.00  0.00    +0.000 OA
BRANCH  19  20
ATOM     20  C   UNL     1       9.510  10.561  19.197  0.00  0.00    +0.000 A 
ATOM     21  C   UNL     1      10.097  11.384  18.231  0.00  0.00    +0.000 A 
ATOM     22  C   UNL     1      10.579  12.651  18.576  0.00  0.00    +0.000 A 
ATOM     23  C   UNL     1      10.476  13.097  19.889  0.00  0.00    +0.000 A 
ATOM     24 BR   UNL     1      11.123  14.814  20.344  0.00  0.00    +0.000 Br
ATOM     25  C   UNL     1       9.901  12.287  20.863  0.00  0.00    +0.000 A 
ATOM     26  C   UNL     1       9.420  11.020  20.515  0.00  0.00    +0.000 A 
ENDBRANCH  19  20
ENDBRANCH  18  19
ENDBRANCH  17  18
ENDBRANCH  16  17
ENDBRANCH   2  16
TORSDOF 7
ENDMDL
MODEL 4
REMARK VINA RESULT:      -7.2      5.388      7.655
REMARK  Name = 
REMARK  7 active torsions:
REMARK  status: ('A' for Active; 'I' for Inactive)
REMARK    1  A    between atoms: C_2  and  C_3
REMARK    2  A    between atoms: C_2  and  O_15
REMARK    3  A    between atoms: C_3  and  N_4
REMARK    4  A    between atoms: O_15  and  C_16
REMARK    5  A    between atoms: C_16  and  C_17
REMARK    6  A    between atoms: C_17  and  O_18
REMARK    7  A    between atoms: O_18  and  C_19
REMARK                            x       y       z     vdW  Elec       q    Type
REMARK                         _______ _______ _______ _____ _____    ______ ____
ROOT
ATOM      1  O   UNL     1       6.943   7.673  17.256  0.00  0.00    +0.000 OA
ATOM      2  C   UNL     1       7.733   7.307  18.117  0.00  0.00    +0.000 C 
ENDROOT
BRANCH   2   3
ATOM      3  C   UNL     1       7.771   5.910  18.711  0.00  0.00    +0.000 C 
BRANCH   3   4
ATOM      4  N   UNL     1       6.694   5.089  18.199  0.00  0.00    +0.000 N 
ATOM      5  C   UNL     1       6.775   4.378  17.043  0.00  0.00    +0.000 C 
ATOM      6  O   UNL     1       7.743   4.259  16.315  0.00  0.00    +0.000 OA
ATOM      7  N   UNL     1       5.550   3.809  16.790  0.00  0.00    +0.000 N 
ATOM      8  C   UNL     1       4.600   4.053  17.848  0.00  0.00    +0.000 C 
ATOM      9  C   UNL     1       3.285   4.677  17.366  0.00  0.00    +0.000 C 
ATOM     10  C   UNL     1       2.211   3.641  17.683  0.00  0.00    +0.000 C 
ATOM     11  C   UNL     1       2.754   2.901  18.893  0.00  0.00    +0.000 C 
ATOM     12  C   UNL     1       4.240   2.763  18.589  0.00  0.00    +0.000 C 
ATOM     13  C   UNL     1       5.435   5.010  18.725  0.00  0.00    +0.000 C 
ATOM     14  O   UNL     1       5.030   5.592  19.722  0.00  0.00    +0.000 OA
ATOM     15  H   UNL     1       5.405   3.222  15.979  0.00  0.00    +0.000 HD
ENDBRANCH   3   4
ENDBRANCH   2   3
BRANCH   2  16
ATOM     16  O   UNL     1       8.647   8.120  18.720  0.00  0.00    +0.000 OA
BRANCH  16  17
ATOM     17  C   UNL     1       8.600   9.515  18.356  0.00  0.00    +0.000 C 
BRANCH  17  18
ATOM     18  C   UNL     1       9.098  10.414  19.486  0.00  0.00    +0.000 C 
BRANCH  18  19
ATOM     19  O   UNL     1      10.441  10.837  19.227  0.00  0.00    +0.000 OA
BRANCH  19  20
ATOM     20  C   UNL     1      10.576  12.063  18.626  0.00  0.00    +0.000 A 
ATOM     21  C   UNL     1      11.184  12.298  17.389  0.00  0.00    +0.000 A 
ATOM     22  C   UNL     1      11.259  13.594  16.869  0.00  0.00    +0.000 A 
ATOM     23  C   UNL     1      10.727  14.660  17.587  0.00  0.00    +0.000 A 
ATOM     24 BR   UNL     1      10.825  16.407  16.872  0.00  0.00    +0.000 Br
ATOM     25  C   UNL     1      10.124  14.443  18.822  0.00  0.00    +0.000 A 
ATOM     26  C   UNL     1      10.051  13.146  19.340  0.00  0.00    +0.000 A 
ENDBRANCH  19  20
ENDBRANCH  18  19
ENDBRANCH  17  18
ENDBRANCH  16  17
ENDBRANCH   2  16
TORSDOF 7
ENDMDL
MODEL 5
REMARK VINA RESULT:      -7.2      4.649      7.094
REMARK  Name = 
REMARK  7 active torsions:
REMARK  status: ('A' for Active; 'I' for Inactive)
REMARK    1  A    between atoms: C_2  and  C_3
REMARK    2  A    between atoms: C_2  and  O_15
REMARK    3  A    between atoms: C_3  and  N_4
REMARK    4  A    between atoms: O_15  and  C_16
REMARK    5  A    between atoms: C_16  and  C_17
REMARK    6  A    between atoms: C_17  and  O_18
REMARK    7  A    between atoms: O_18  and  C_19
REMARK                            x       y       z     vdW  Elec       q    Type
REMARK                         _______ _______ _______ _____ _____    ______ ____
ROOT
ATOM      1  O   UNL     1       6.913   5.177  19.807  0.00  0.00    +0.000 OA
ATOM      2  C   UNL     1       6.929   5.906  18.824  0.00  0.00    +0.000 C 
ENDROOT
BRANCH   2   3
ATOM      3  C   UNL     1       5.765   6.082  17.864  0.00  0.00    +0.000 C 
BRANCH   3   4
ATOM      4  N   UNL     1       4.830   4.981  17.961  0.00  0.00    +0.000 N 
ATOM      5  C   UNL     1       4.825   3.921  17.110  0.00  0.00    +0.000 C 
ATOM      6  O   UNL     1       5.612   3.693  16.211  0.00  0.00    +0.000 OA
ATOM      7  N   UNL     1       3.746   3.124  17.407  0.00  0.00    +0.000 N 
ATOM      8  C   UNL     1       3.018   3.589  18.562  0.00  0.00    +0.000 C 
ATOM      9  C   UNL     1       1.520   3.794  18.307  0.00  0.00    +0.000 C 
ATOM     10  C   UNL     1       0.819   2.795  19.223  0.00  0.00    +0.000 C 
ATOM     11  C   UNL     1       1.771   2.632  20.394  0.00  0.00    +0.000 C 
ATOM     12  C   UNL     1       3.145   2.616  19.737  0.00  0.00    +0.000 C 
ATOM     13  C   UNL     1       3.771   4.911  18.823  0.00  0.00    +0.000 C 
ATOM     14  O   UNL     1       3.466   5.746  19.663  0.00  0.00    +0.000 OA
ATOM     15  H   UNL     1       3.572   2.269  16.894  0.00  0.00    +0.000 HD
ENDBRANCH   3   4
ENDBRANCH   2   3
BRANCH   2  16
ATOM     16  O   UNL     1       8.019   6.612  18.405  0.00  0.00    +0.000 OA
BRANCH  16  17
ATOM     17  C   UNL     1       7.752   7.880  17.772  0.00  0.00    +0.000 C 
BRANCH  17  18
ATOM     18  C   UNL     1       8.513   9.022  18.443  0.00  0.00    +0.000 C 
BRANCH  18  19
ATOM     19  O   UNL     1       8.296  10.246  17.733  0.00  0.00    +0.000 OA
BRANCH  19  20
ATOM     20  C   UNL     1       9.084  11.304  18.110  0.00  0.00    +0.000 A 
ATOM     21  C   UNL     1       8.918  12.628  17.695  0.00  0.00    +0.000 A 
ATOM     22  C   UNL     1       9.781  13.630  18.151  0.00  0.00    +0.000 A 
ATOM     23  C   UNL     1      10.815  13.308  19.025  0.00  0.00    +0.000 A 
ATOM     24 BR   UNL     1      11.971  14.669  19.643  0.00  0.00    +0.000 Br
ATOM     25  C   UNL     1      10.997  11.992  19.442  0.00  0.00    +0.000 A 
ATOM     26  C   UNL     1      10.132  10.993  18.983  0.00  0.00    +0.000 A 
ENDBRANCH  19  20
ENDBRANCH  18  19
ENDBRANCH  17  18
ENDBRANCH  16  17
ENDBRANCH   2  16
TORSDOF 7
ENDMDL
MODEL 6
REMARK VINA RESULT:      -7.2      4.551      6.840
REMARK  Name = 
REMARK  7 active torsions:
REMARK  status: ('A' for Active; 'I' for Inactive)
REMARK    1  A    between atoms: C_2  and  C_3
REMARK    2  A    between atoms: C_2  and  O_15
REMARK    3  A    between atoms: C_3  and  N_4
REMARK    4  A    between atoms: O_15  and  C_16
REMARK    5  A    between atoms: C_16  and  C_17
REMARK    6  A    between atoms: C_17  and  O_18
REMARK    7  A    between atoms: O_18  and  C_19
REMARK                            x       y       z     vdW  Elec       q    Type
REMARK                         _______ _______ _______ _____ _____    ______ ____
ROOT
ATOM      1  O   UNL     1       6.595   5.992  15.279  0.00  0.00    +0.000 OA
ATOM      2  C   UNL     1       7.181   5.773  16.331  0.00  0.00    +0.000 C 
ENDROOT
BRANCH   2   3
ATOM      3  C   UNL     1       7.067   4.487  17.130  0.00  0.00    +0.000 C 
BRANCH   3   4
ATOM      4  N   UNL     1       5.825   4.435  17.872  0.00  0.00    +0.000 N 
ATOM      5  C   UNL     1       5.700   4.852  19.160  0.00  0.00    +0.000 C 
ATOM      6  O   UNL     1       6.552   5.379  19.851  0.00  0.00    +0.000 OA
ATOM      7  N   UNL     1       4.431   4.558  19.597  0.00  0.00    +0.000 N 
ATOM      8  C   UNL     1       3.606   3.998  18.555  0.00  0.00    +0.000 C 
ATOM      9  C   UNL     1       2.960   2.660  18.930  0.00  0.00    +0.000 C 
ATOM     10  C   UNL     1       1.457   2.924  18.920  0.00  0.00    +0.000 C 
ATOM     11  C   UNL     1       1.282   4.036  17.900  0.00  0.00    +0.000 C 
ATOM     12  C   UNL     1       2.472   4.949  18.162  0.00  0.00    +0.000 C 
ATOM     13  C   UNL     1       4.661   3.864  17.437  0.00  0.00    +0.000 C 
ATOM     14  O   UNL     1       4.477   3.338  16.348  0.00  0.00    +0.000 OA
ATOM     15  H   UNL     1       4.130   4.805  20.531  0.00  0.00    +0.000 HD
ENDBRANCH   3   4
ENDBRANCH   2   3
BRANCH   2  16
ATOM     16  O   UNL     1       7.968   6.681  16.978  0.00  0.00    +0.000 OA
BRANCH  16  17
ATOM     17  C   UNL     1       7.343   7.932  17.329  0.00  0.00    +0.000 C 
BRANCH  17  18
ATOM     18  C   UNL     1       8.290   8.843  18.108  0.00  0.00    +0.000 C 
BRANCH  18  19
ATOM     19  O   UNL     1       8.045  10.213  17.775  0.00  0.00    +0.000 OA
BRANCH  19  20
ATOM     20  C   UNL     1       8.966  11.117  18.243  0.00  0.00    +0.000 A 
ATOM     21  C   UNL     1       9.964  10.845  19.182  0.00  0.00    +0.000 A 
ATOM     22  C   UNL     1      10.856  11.846  19.582  0.00  0.00    +0.000 A 
ATOM     23  C   UNL     1      10.750  13.123  19.041  0.00  0.00    +0.000 A 
ATOM     24 BR   UNL     1      11.965  14.467  19.580  0.00  0.00    +0.000 Br
ATOM     25  C   UNL     1       9.757  13.411  18.109  0.00  0.00    +0.000 A 
ATOM     26  C   UNL     1       8.866  12.408  17.713  0.00  0.00    +0.000 A 
ENDBRANCH  19  20
ENDBRANCH  18  19
ENDBRANCH  17  18
ENDBRANCH  16  17
ENDBRANCH   2  16
TORSDOF 7
ENDMDL
MODEL 7
REMARK VINA RESULT:      -7.1      4.393      6.732
REMARK  Name = 
REMARK  7 active torsions:
REMARK  status: ('A' for Active; 'I' for Inactive)
REMARK    1  A    between atoms: C_2  and  C_3
REMARK    2  A    between atoms: C_2  and  O_15
REMARK    3  A    between atoms: C_3  and  N_4
REMARK    4  A    between atoms: O_15  and  C_16
REMARK    5  A    between atoms: C_16  and  C_17
REMARK    6  A    between atoms: C_17  and  O_18
REMARK    7  A    between atoms: O_18  and  C_19
REMARK                            x       y       z     vdW  Elec       q    Type
REMARK                         _______ _______ _______ _____ _____    ______ ____
ROOT
ATOM      1  O   UNL     1       5.184   6.871  15.473  0.00  0.00    +0.000 OA
ATOM      2  C   UNL     1       5.763   6.473  16.475  0.00  0.00    +0.000 C 
ENDROOT
BRANCH   2   3
ATOM      3  C   UNL     1       5.947   5.010  16.838  0.00  0.00    +0.000 C 
BRANCH   3   4
ATOM      4  N   UNL     1       5.125   4.640  17.971  0.00  0.00    +0.000 N 
ATOM      5  C   UNL     1       5.551   4.699  19.261  0.00  0.00    +0.000 C 
ATOM      6  O   UNL     1       6.617   5.120  19.668  0.00  0.00    +0.000 OA
ATOM      7  N   UNL     1       4.574   4.171  20.071  0.00  0.00    +0.000 N 
ATOM      8  C   UNL     1       3.386   3.811  19.337  0.00  0.00    +0.000 C 
ATOM      9  C   UNL     1       2.941   2.360  19.556  0.00  0.00    +0.000 C 
ATOM     10  C   UNL     1       1.572   2.458  20.223  0.00  0.00    +0.000 C 
ATOM     11  C   UNL     1       1.000   3.768  19.709  0.00  0.00    +0.000 C 
ATOM     12  C   UNL     1       2.201   4.705  19.712  0.00  0.00    +0.000 C 
ATOM     13  C   UNL     1       3.881   4.079  17.901  0.00  0.00    +0.000 C 
ATOM     14  O   UNL     1       3.256   3.830  16.878  0.00  0.00    +0.000 OA
ATOM     15  H   UNL     1       4.691   4.138  21.075  0.00  0.00    +0.000 HD
ENDBRANCH   3   4
ENDBRANCH   2   3
BRANCH   2  16
ATOM     16  O   UNL     1       6.266   7.285  17.450  0.00  0.00    +0.000 OA
BRANCH  16  17
ATOM     17  C   UNL     1       7.678   7.569  17.377  0.00  0.00    +0.000 C 
BRANCH  17  18
ATOM     18  C   UNL     1       7.981   9.034  17.687  0.00  0.00    +0.000 C 
BRANCH  18  19
ATOM     19  O   UNL     1       8.642   9.146  18.952  0.00  0.00    +0.000 OA
BRANCH  19  20
ATOM     20  C   UNL     1       9.336  10.311  19.163  0.00  0.00    +0.000 A 
ATOM     21  C   UNL     1       9.725  10.809  20.409  0.00  0.00    +0.000 A 
ATOM     22  C   UNL     1      10.437  12.009  20.504  0.00  0.00    +0.000 A 
ATOM     23  C   UNL     1      10.762  12.715  19.350  0.00  0.00    +0.000 A 
ATOM     24 BR   UNL     1      11.732  14.331  19.486  0.00  0.00    +0.000 Br
ATOM     25  C   UNL     1      10.376  12.235  18.101  0.00  0.00    +0.000 A 
ATOM     26  C   UNL     1       9.662  11.035  18.011  0.00  0.00    +0.000 A 
ENDBRANCH  19  20
ENDBRANCH  18  19
ENDBRANCH  17  18
ENDBRANCH  16  17
ENDBRANCH   2  16
TORSDOF 7
ENDMDL
MODEL 8
REMARK VINA RESULT:      -7.1      4.522      6.998
REMARK  Name = 
REMARK  7 active torsions:
REMARK  status: ('A' for Active; 'I' for Inactive)
REMARK    1  A    between atoms: C_2  and  C_3
REMARK    2  A    between atoms: C_2  and  O_15
REMARK    3  A    between atoms: C_3  and  N_4
REMARK    4  A    between atoms: O_15  and  C_16
REMARK    5  A    between atoms: C_16  and  C_17
REMARK    6  A    between atoms: C_17  and  O_18
REMARK    7  A    between atoms: O_18  and  C_19
REMARK                            x       y       z     vdW  Elec       q    Type
REMARK                         _______ _______ _______ _____ _____    ______ ____
ROOT
ATOM      1  O   UNL     1       7.107   4.701  19.285  0.00  0.00    +0.000 OA
ATOM      2  C   UNL     1       6.917   5.647  18.532  0.00  0.00    +0.000 C 
ENDROOT
BRANCH   2   3
ATOM      3  C   UNL     1       5.931   5.643  17.377  0.00  0.00    +0.000 C 
BRANCH   3   4
ATOM      4  N   UNL     1       4.565   5.562  17.848  0.00  0.00    +0.000 N 
ATOM      5  C   UNL     1       3.717   6.624  17.883  0.00  0.00    +0.000 C 
ATOM      6  O   UNL     1       3.929   7.751  17.477  0.00  0.00    +0.000 OA
ATOM      7  N   UNL     1       2.548   6.233  18.490  0.00  0.00    +0.000 N 
ATOM      8  C   UNL     1       2.537   4.827  18.812  0.00  0.00    +0.000 C 
ATOM      9  C   UNL     1       2.221   4.533  20.283  0.00  0.00    +0.000 C 
ATOM     10  C   UNL     1       0.909   3.753  20.261  0.00  0.00    +0.000 C 
ATOM     11  C   UNL     1       0.928   3.031  18.925  0.00  0.00    +0.000 C 
ATOM     12  C   UNL     1       1.511   4.064  17.971  0.00  0.00    +0.000 C 
ATOM     13  C   UNL     1       3.986   4.465  18.424  0.00  0.00    +0.000 C 
ATOM     14  O   UNL     1       4.517   3.377  18.602  0.00  0.00    +0.000 OA
ATOM     15  H   UNL     1       1.776   6.878  18.599  0.00  0.00    +0.000 HD
ENDBRANCH   3   4
ENDBRANCH   2   3
BRANCH   2  16
ATOM     16  O   UNL     1       7.613   6.820  18.576  0.00  0.00    +0.000 OA
BRANCH  16  17
ATOM     17  C   UNL     1       7.607   7.611  17.370  0.00  0.00    +0.000 C 
BRANCH  17  18
ATOM     18  C   UNL     1       7.892   9.084  17.655  0.00  0.00    +0.000 C 
BRANCH  18  19
ATOM     19  O   UNL     1       8.702   9.214  18.828  0.00  0.00    +0.000 OA
BRANCH  19  20
ATOM     20  C   UNL     1       9.314  10.430  19.000  0.00  0.00    +0.000 A 
ATOM     21  C   UNL     1       9.641  11.326  17.978  0.00  0.00    +0.000 A 
ATOM     22  C   UNL     1      10.260  12.545  18.273  0.00  0.00    +0.000 A 
ATOM     23  C   UNL     1      10.555  12.870  19.593  0.00  0.00    +0.000 A 
ATOM     24 BR   UNL     1      11.384  14.524  19.983  0.00  0.00    +0.000 Br
ATOM     25  C   UNL     1      10.241  11.986  20.621  0.00  0.00    +0.000 A 
ATOM     26  C   UNL     1       9.623  10.767  20.322  0.00  0.00    +0.000 A 
ENDBRANCH  19  20
ENDBRANCH  18  19
ENDBRANCH  17  18
ENDBRANCH  16  17
ENDBRANCH   2  16
TORSDOF 7
ENDMDL
MODEL 9
REMARK VINA RESULT:      -7.1      0.351      1.025
REMARK  Name = 
REMARK  7 active torsions:
REMARK  status: ('A' for Active; 'I' for Inactive)
REMARK    1  A    between atoms: C_2  and  C_3
REMARK    2  A    between atoms: C_2  and  O_15
REMARK    3  A    between atoms: C_3  and  N_4
REMARK    4  A    between atoms: O_15  and  C_16
REMARK    5  A    between atoms: C_16  and  C_17
REMARK    6  A    between atoms: C_17  and  O_18
REMARK    7  A    between atoms: O_18  and  C_19
REMARK                            x       y       z     vdW  Elec       q    Type
REMARK                         _______ _______ _______ _____ _____    ______ ____
ROOT
ATOM      1  O   UNL     1       1.025   2.632  17.685  0.00  0.00    +0.000 OA
ATOM      2  C   UNL     1       1.867   2.536  18.568  0.00  0.00    +0.000 C 
ENDROOT
BRANCH   2   3
ATOM      3  C   UNL     1       3.234   1.899  18.388  0.00  0.00    +0.000 C 
BRANCH   3   4
ATOM      4  N   UNL     1       4.290   2.887  18.453  0.00  0.00    +0.000 N 
ATOM      5  C   UNL     1       5.040   3.114  19.564  0.00  0.00    +0.000 C 
ATOM      6  O   UNL     1       5.001   2.507  20.617  0.00  0.00    +0.000 OA
ATOM      7  N   UNL     1       5.864   4.187  19.326  0.00  0.00    +0.000 N 
ATOM      8  C   UNL     1       5.755   4.676  17.973  0.00  0.00    +0.000 C 
ATOM      9  C   UNL     1       5.448   6.175  17.881  0.00  0.00    +0.000 C 
ATOM     10  C   UNL     1       6.662   6.791  17.190  0.00  0.00    +0.000 C 
ATOM     11  C   UNL     1       7.196   5.673  16.312  0.00  0.00    +0.000 C 
ATOM     12  C   UNL     1       7.043   4.432  17.181  0.00  0.00    +0.000 C 
ATOM     13  C   UNL     1       4.594   3.791  17.474  0.00  0.00    +0.000 C 
ATOM     14  O   UNL     1       4.047   3.888  16.384  0.00  0.00    +0.000 OA
ATOM     15  H   UNL     1       6.518   4.509  20.027  0.00  0.00    +0.000 HD
ENDBRANCH   3   4
ENDBRANCH   2   3
BRANCH   2  16
ATOM     16  O   UNL     1       1.675   2.923  19.862  0.00  0.00    +0.000 OA
BRANCH  16  17
ATOM     17  C   UNL     1       1.236   4.282  20.063  0.00  0.00    +0.000 C 
BRANCH  17  18
ATOM     18  C   UNL     1       2.255   5.097  20.857  0.00  0.00    +0.000 C 
BRANCH  18  19
ATOM     19  O   UNL     1       2.969   5.981  19.987  0.00  0.00    +0.000 OA
BRANCH  19  20
ATOM     20  C   UNL     1       2.322   7.144  19.653  0.00  0.00    +0.000 A 
ATOM     21  C   UNL     1       2.252   7.694  18.370  0.00  0.00    +0.000 A 
ATOM     22  C   UNL     1       1.556   8.886  18.145  0.00  0.00    +0.000 A 
ATOM     23  C   UNL     1       0.928   9.531  19.205  0.00  0.00    +0.000 A 
ATOM     24 BR   UNL     1      -0.018  11.137  18.890  0.00  0.00    +0.000 Br
ATOM     25  C   UNL     1       0.994   9.000  20.489  0.00  0.00    +0.000 A 
ATOM     26  C   UNL     1       1.692   7.808  20.711  0.00  0.00    +0.000 A 
ENDBRANCH  19  20
ENDBRANCH  18  19
ENDBRANCH  17  18
ENDBRANCH  16  17
ENDBRANCH   2  16
TORSDOF 7
ENDMDL
