MODEL 1
REMARK VINA RESULT:      -8.4      0.000      0.000
REMARK  Name = 
REMARK  5 active torsions:
REMARK  status: ('A' for Active; 'I' for Inactive)
REMARK    1  A    between atoms: C_2  and  C_3
REMARK    2  A    between atoms: C_2  and  C_13
REMARK    3  A    between atoms: C_4  and  C_5
REMARK    4  A    between atoms: C_6  and  C_7
REMARK    5  A    between atoms: C_19  and  O_20
REMARK                            x       y       z     vdW  Elec       q    Type
REMARK                         _______ _______ _______ _____ _____    ______ ____
ROOT
ATOM      1  O   UNL     1       6.946   4.506  16.637  0.00  0.00    +0.000 OA
ATOM      2  C   UNL     1       6.611   5.307  17.502  0.00  0.00    +0.000 C 
ENDROOT
BRANCH   2   3
ATOM      3  C   UNL     1       5.205   5.340  17.991  0.00  0.00    +0.000 A 
ATOM      4  C   UNL     1       4.461   6.497  17.719  0.00  0.00    +0.000 A 
ATOM      5  C   UNL     1       3.140   6.596  18.157  0.00  0.00    +0.000 A 
ATOM      6 CL   UNL     1       2.225   8.010  17.811  0.00  0.00    +0.000 Cl
ATOM      7  C   UNL     1       2.553   5.557  18.876  0.00  0.00    +0.000 A 
ATOM      8  C   UNL     1       3.289   4.409  19.168  0.00  0.00    +0.000 A 
ATOM      9  C   UNL     1       4.611   4.304  18.731  0.00  0.00    +0.000 A 
BRANCH   9  10
ATOM     10  O   UNL     1       5.319   3.182  19.063  0.00  0.00    +0.000 OA
ATOM     11  H   UNL     1       5.863   3.353  19.853  0.00  0.00    +0.000 HD
ENDBRANCH   9  10
ENDBRANCH   2   3
BRANCH   2  12
ATOM     12  C   UNL     1       7.588   6.228  18.136  0.00  0.00    +0.000 C 
ATOM     13  C   UNL     1       7.608   7.529  17.814  0.00  0.00    +0.000 C 
BRANCH  13  14
ATOM     14  C   UNL     1       8.506   8.458  18.463  0.00  0.00    +0.000 C 
ATOM     15  C   UNL     1       8.595   9.752  18.117  0.00  0.00    +0.000 C 
BRANCH  15  16
ATOM     16  C   UNL     1       9.534  10.706  18.728  0.00  0.00    +0.000 A 
ATOM     17  C   UNL     1       9.458  10.922  20.112  0.00  0.00    +0.000 A 
ATOM     18  C   UNL     1      10.312  11.829  20.740  0.00  0.00    +0.000 A 
ATOM     19  C   UNL     1      11.262  12.524  19.997  0.00  0.00    +0.000 A 
ATOM     20  C   UNL     1      11.369  12.300  18.626  0.00  0.00    +0.000 A 
ATOM     21  C   UNL     1      10.516  11.390  17.996  0.00  0.00    +0.000 A 
ENDBRANCH  15  16
ENDBRANCH  13  14
ENDBRANCH   2  12
TORSDOF 5
ENDMDL
MODEL 2
REMARK VINA RESULT:      -8.4      0.239      1.096
REMARK  Name = 
REMARK  5 active torsions:
REMARK  status: ('A' for Active; 'I' for Inactive)
REMARK    1  A    between atoms: C_2  and  C_3
REMARK    2  A    between atoms: C_2  and  C_13
REMARK    3  A    between atoms: C_4  and  C_5
REMARK    4  A    between atoms: C_6  and  C_7
REMARK    5  A    between atoms: C_19  and  O_20
REMARK                            x       y       z     vdW  Elec       q    Type
REMARK                         _______ _______ _______ _____ _____    ______ ____
ROOT
ATOM      1  O   UNL     1       7.030   4.430  17.011  0.00  0.00    +0.000 OA
ATOM      2  C   UNL     1       6.594   5.249  17.812  0.00  0.00    +0.000 C 
ENDROOT
BRANCH   2   3
ATOM      3  C   UNL     1       5.152   5.241  18.182  0.00  0.00    +0.000 A 
ATOM      4  C   UNL     1       4.415   6.402  17.905  0.00  0.00    +0.000 A 
ATOM      5  C   UNL     1       3.060   6.464  18.236  0.00  0.00    +0.000 A 
ATOM      6 CL   UNL     1       2.155   7.883  17.884  0.00  0.00    +0.000 Cl
ATOM      7  C   UNL     1       2.432   5.384  18.852  0.00  0.00    +0.000 A 
ATOM      8  C   UNL     1       3.159   4.231  19.148  0.00  0.00    +0.000 A 
ATOM      9  C   UNL     1       4.515   4.163  18.818  0.00  0.00    +0.000 A 
BRANCH   9  10
ATOM     10  O   UNL     1       5.210   3.035  19.154  0.00  0.00    +0.000 OA
ATOM     11  H   UNL     1       4.669   2.469  19.734  0.00  0.00    +0.000 HD
ENDBRANCH   9  10
ENDBRANCH   2   3
BRANCH   2  12
ATOM     12  C   UNL     1       7.478   6.234  18.484  0.00  0.00    +0.000 C 
ATOM     13  C   UNL     1       7.789   7.393  17.885  0.00  0.00    +0.000 C 
BRANCH  13  14
ATOM     14  C   UNL     1       8.595   8.396  18.545  0.00  0.00    +0.000 C 
ATOM     15  C   UNL     1       8.640   9.676  18.146  0.00  0.00    +0.000 C 
BRANCH  15  16
ATOM     16  C   UNL     1       9.487  10.705  18.769  0.00  0.00    +0.000 A 
ATOM     17  C   UNL     1      10.245  11.539  17.934  0.00  0.00    +0.000 A 
ATOM     18  C   UNL     1      11.078  12.520  18.472  0.00  0.00    +0.000 A 
ATOM     19  C   UNL     1      11.158  12.690  19.851  0.00  0.00    +0.000 A 
ATOM     20  C   UNL     1      10.390  11.888  20.693  0.00  0.00    +0.000 A 
ATOM     21  C   UNL     1       9.553  10.907  20.155  0.00  0.00    +0.000 A 
ENDBRANCH  15  16
ENDBRANCH  13  14
ENDBRANCH   2  12
TORSDOF 5
ENDMDL
MODEL 3
REMARK VINA RESULT:      -8.3      0.876      1.387
REMARK  Name = 
REMARK  5 active torsions:
REMARK  status: ('A' for Active; 'I' for Inactive)
REMARK    1  A    between atoms: C_2  and  C_3
REMARK    2  A    between atoms: C_2  and  C_13
REMARK    3  A    between atoms: C_4  and  C_5
REMARK    4  A    between atoms: C_6  and  C_7
REMARK    5  A    between atoms: C_19  and  O_20
REMARK                            x       y       z     vdW  Elec       q    Type
REMARK                         _______ _______ _______ _____ _____    ______ ____
ROOT
ATOM      1  O   UNL     1       6.770   5.508  15.529  0.00  0.00    +0.000 OA
ATOM      2  C   UNL     1       6.435   6.009  16.597  0.00  0.00    +0.000 C 
ENDROOT
BRANCH   2   3
ATOM      3  C   UNL     1       5.051   5.821  17.113  0.00  0.00    +0.000 A 
ATOM      4  C   UNL     1       4.299   6.979  17.360  0.00  0.00    +0.000 A 
ATOM      5  C   UNL     1       2.998   6.874  17.853  0.00  0.00    +0.000 A 
ATOM      6 CL   UNL     1       2.072   8.294  18.143  0.00  0.00    +0.000 Cl
ATOM      7  C   UNL     1       2.439   5.625  18.114  0.00  0.00    +0.000 A 
ATOM      8  C   UNL     1       3.183   4.467  17.888  0.00  0.00    +0.000 A 
ATOM      9  C   UNL     1       4.486   4.566  17.394  0.00  0.00    +0.000 A 
BRANCH   9  10
ATOM     10  O   UNL     1       5.204   3.416  17.218  0.00  0.00    +0.000 OA
ATOM     11  H   UNL     1       6.111   3.629  16.934  0.00  0.00    +0.000 HD
ENDBRANCH   9  10
ENDBRANCH   2   3
BRANCH   2  12
ATOM     12  C   UNL     1       7.394   6.764  17.442  0.00  0.00    +0.000 C 
ATOM     13  C   UNL     1       7.481   8.098  17.351  0.00  0.00    +0.000 C 
BRANCH  13  14
ATOM     14  C   UNL     1       8.360   8.863  18.208  0.00  0.00    +0.000 C 
ATOM     15  C   UNL     1       8.733  10.123  17.937  0.00  0.00    +0.000 C 
BRANCH  15  16
ATOM     16  C   UNL     1       9.663  10.905  18.765  0.00  0.00    +0.000 A 
ATOM     17  C   UNL     1      10.752  11.527  18.138  0.00  0.00    +0.000 A 
ATOM     18  C   UNL     1      11.675  12.266  18.879  0.00  0.00    +0.000 A 
ATOM     19  C   UNL     1      11.516  12.405  20.255  0.00  0.00    +0.000 A 
ATOM     20  C   UNL     1      10.423  11.817  20.889  0.00  0.00    +0.000 A 
ATOM     21  C   UNL     1       9.497  11.078  20.148  0.00  0.00    +0.000 A 
ENDBRANCH  15  16
ENDBRANCH  13  14
ENDBRANCH   2  12
TORSDOF 5
ENDMDL
MODEL 4
REMARK VINA RESULT:      -8.3      1.657      2.358
REMARK  Name = 
REMARK  5 active torsions:
REMARK  status: ('A' for Active; 'I' for Inactive)
REMARK    1  A    between atoms: C_2  and  C_3
REMARK    2  A    between atoms: C_2  and  C_13
REMARK    3  A    between atoms: C_4  and  C_5
REMARK    4  A    between atoms: C_6  and  C_7
REMARK    5  A    between atoms: C_19  and  O_20
REMARK                            x       y       z     vdW  Elec       q    Type
REMARK                         _______ _______ _______ _____ _____    ______ ____
ROOT
ATOM      1  O   UNL     1       7.776   5.200  20.210  0.00  0.00    +0.000 OA
ATOM      2  C   UNL     1       7.507   5.803  19.177  0.00  0.00    +0.000 C 
ENDROOT
BRANCH   2   3
ATOM      3  C   UNL     1       6.476   5.271  18.245  0.00  0.00    +0.000 A 
ATOM      4  C   UNL     1       5.137   5.565  18.539  0.00  0.00    +0.000 A 
ATOM      5  C   UNL     1       4.119   5.088  17.711  0.00  0.00    +0.000 A 
ATOM      6 CL   UNL     1       2.478   5.461  18.065  0.00  0.00    +0.000 Cl
ATOM      7  C   UNL     1       4.421   4.309  16.596  0.00  0.00    +0.000 A 
ATOM      8  C   UNL     1       5.749   3.995  16.304  0.00  0.00    +0.000 A 
ATOM      9  C   UNL     1       6.771   4.470  17.128  0.00  0.00    +0.000 A 
BRANCH   9  10
ATOM     10  O   UNL     1       8.059   4.116  16.838  0.00  0.00    +0.000 OA
ATOM     11  H   UNL     1       8.269   4.346  15.915  0.00  0.00    +0.000 HD
ENDBRANCH   9  10
ENDBRANCH   2   3
BRANCH   2  12
ATOM     12  C   UNL     1       8.144   7.101  18.840  0.00  0.00    +0.000 C 
ATOM     13  C   UNL     1       7.644   7.874  17.866  0.00  0.00    +0.000 C 
BRANCH  13  14
ATOM     14  C   UNL     1       8.207   9.171  17.561  0.00  0.00    +0.000 C 
ATOM     15  C   UNL     1       8.996   9.844  18.412  0.00  0.00    +0.000 C 
BRANCH  15  16
ATOM     16  C   UNL     1       9.541  11.185  18.147  0.00  0.00    +0.000 A 
ATOM     17  C   UNL     1       8.645  12.225  17.865  0.00  0.00    +0.000 A 
ATOM     18  C   UNL     1       9.109  13.511  17.589  0.00  0.00    +0.000 A 
ATOM     19  C   UNL     1      10.475  13.780  17.604  0.00  0.00    +0.000 A 
ATOM     20  C   UNL     1      11.377  12.764  17.912  0.00  0.00    +0.000 A 
ATOM     21  C   UNL     1      10.913  11.475  18.190  0.00  0.00    +0.000 A 
ENDBRANCH  15  16
ENDBRANCH  13  14
ENDBRANCH   2  12
TORSDOF 5
ENDMDL
MODEL 5
REMARK VINA RESULT:      -8.3      1.297      1.575
REMARK  Name = 
REMARK  5 active torsions:
REMARK  status: ('A' for Active; 'I' for Inactive)
REMARK    1  A    between atoms: C_2  and  C_3
REMARK    2  A    between atoms: C_2  and  C_13
REMARK    3  A    between atoms: C_4  and  C_5
REMARK    4  A    between atoms: C_6  and  C_7
REMARK    5  A    between atoms: C_19  and  O_20
REMARK                            x       y       z     vdW  Elec       q    Type
REMARK                         _______ _______ _______ _____ _____    ______ ____
ROOT
ATOM      1  O   UNL     1       5.284   6.495  15.385  0.00  0.00    +0.000 OA
ATOM      2  C   UNL     1       5.380   6.529  16.607  0.00  0.00    +0.000 C 
ENDROOT
BRANCH   2   3
ATOM      3  C   UNL     1       4.643   5.544  17.445  0.00  0.00    +0.000 A 
ATOM      4  C   UNL     1       3.755   6.057  18.401  0.00  0.00    +0.000 A 
ATOM      5  C   UNL     1       3.040   5.188  19.227  0.00  0.00    +0.000 A 
ATOM      6 CL   UNL     1       1.941   5.819  20.390  0.00  0.00    +0.000 Cl
ATOM      7  C   UNL     1       3.209   3.810  19.118  0.00  0.00    +0.000 A 
ATOM      8  C   UNL     1       4.102   3.289  18.182  0.00  0.00    +0.000 A 
ATOM      9  C   UNL     1       4.820   4.153  17.353  0.00  0.00    +0.000 A 
BRANCH   9  10
ATOM     10  O   UNL     1       5.716   3.615  16.472  0.00  0.00    +0.000 OA
ATOM     11  H   UNL     1       5.692   4.105  15.630  0.00  0.00    +0.000 HD
ENDBRANCH   9  10
ENDBRANCH   2   3
BRANCH   2  12
ATOM     12  C   UNL     1       6.267   7.501  17.295  0.00  0.00    +0.000 C 
ATOM     13  C   UNL     1       7.501   7.145  17.679  0.00  0.00    +0.000 C 
BRANCH  13  14
ATOM     14  C   UNL     1       8.407   8.090  18.293  0.00  0.00    +0.000 C 
ATOM     15  C   UNL     1       8.344   9.412  18.075  0.00  0.00    +0.000 C 
BRANCH  15  16
ATOM     16  C   UNL     1       9.282  10.390  18.648  0.00  0.00    +0.000 A 
ATOM     17  C   UNL     1       9.264  10.597  20.034  0.00  0.00    +0.000 A 
ATOM     18  C   UNL     1      10.121  11.525  20.628  0.00  0.00    +0.000 A 
ATOM     19  C   UNL     1      11.016  12.249  19.846  0.00  0.00    +0.000 A 
ATOM     20  C   UNL     1      11.066  12.034  18.471  0.00  0.00    +0.000 A 
ATOM     21  C   UNL     1      10.211  11.103  17.875  0.00  0.00    +0.000 A 
ENDBRANCH  15  16
ENDBRANCH  13  14
ENDBRANCH   2  12
TORSDOF 5
ENDMDL
MODEL 6
REMARK VINA RESULT:      -8.2      1.418      2.017
REMARK  Name = 
REMARK  5 active torsions:
REMARK  status: ('A' for Active; 'I' for Inactive)
REMARK    1  A    between atoms: C_2  and  C_3
REMARK    2  A    between atoms: C_2  and  C_13
REMARK    3  A    between atoms: C_4  and  C_5
REMARK    4  A    between atoms: C_6  and  C_7
REMARK    5  A    between atoms: C_19  and  O_20
REMARK                            x       y       z     vdW  Elec       q    Type
REMARK                         _______ _______ _______ _____ _____    ______ ____
ROOT
ATOM      1  O   UNL     1       5.440   6.394  15.277  0.00  0.00    +0.000 OA
ATOM      2  C   UNL     1       5.403   6.359  16.502  0.00  0.00    +0.000 C 
ENDROOT
BRANCH   2   3
ATOM      3  C   UNL     1       4.628   5.295  17.198  0.00  0.00    +0.000 A 
ATOM      4  C   UNL     1       3.698   5.709  18.163  0.00  0.00    +0.000 A 
ATOM      5  C   UNL     1       2.946   4.763  18.859  0.00  0.00    +0.000 A 
ATOM      6 CL   UNL     1       1.797   5.273  20.033  0.00  0.00    +0.000 Cl
ATOM      7  C   UNL     1       3.117   3.403  18.612  0.00  0.00    +0.000 A 
ATOM      8  C   UNL     1       4.051   2.978  17.668  0.00  0.00    +0.000 A 
ATOM      9  C   UNL     1       4.806   3.921  16.967  0.00  0.00    +0.000 A 
BRANCH   9  10
ATOM     10  O   UNL     1       5.740   3.473  16.074  0.00  0.00    +0.000 OA
ATOM     11  H   UNL     1       6.634   3.584  16.442  0.00  0.00    +0.000 HD
ENDBRANCH   9  10
ENDBRANCH   2   3
BRANCH   2  12
ATOM     12  C   UNL     1       6.164   7.322  17.336  0.00  0.00    +0.000 C 
ATOM     13  C   UNL     1       7.483   7.171  17.521  0.00  0.00    +0.000 C 
BRANCH  13  14
ATOM     14  C   UNL     1       8.259   8.131  18.276  0.00  0.00    +0.000 C 
ATOM     15  C   UNL     1       8.395   9.414  17.907  0.00  0.00    +0.000 C 
BRANCH  15  16
ATOM     16  C   UNL     1       9.216  10.398  18.630  0.00  0.00    +0.000 A 
ATOM     17  C   UNL     1       9.999  11.289  17.882  0.00  0.00    +0.000 A 
ATOM     18  C   UNL     1      10.809  12.231  18.517  0.00  0.00    +0.000 A 
ATOM     19  C   UNL     1      10.840  12.303  19.907  0.00  0.00    +0.000 A 
ATOM     20  C   UNL     1      10.046  11.444  20.663  0.00  0.00    +0.000 A 
ATOM     21  C   UNL     1       9.232  10.502  20.029  0.00  0.00    +0.000 A 
ENDBRANCH  15  16
ENDBRANCH  13  14
ENDBRANCH   2  12
TORSDOF 5
ENDMDL
MODEL 7
REMARK VINA RESULT:      -8.2      2.332      2.811
REMARK  Name = 
REMARK  5 active torsions:
REMARK  status: ('A' for Active; 'I' for Inactive)
REMARK    1  A    between atoms: C_2  and  C_3
REMARK    2  A    between atoms: C_2  and  C_13
REMARK    3  A    between atoms: C_4  and  C_5
REMARK    4  A    between atoms: C_6  and  C_7
REMARK    5  A    between atoms: C_19  and  O_20
REMARK                            x       y       z     vdW  Elec       q    Type
REMARK                         _______ _______ _______ _____ _____    ______ ____
ROOT
ATOM      1  O   UNL     1       7.632   5.227  20.116  0.00  0.00    +0.000 OA
ATOM      2  C   UNL     1       7.446   5.760  19.028  0.00  0.00    +0.000 C 
ENDROOT
BRANCH   2   3
ATOM      3  C   UNL     1       6.435   5.208  18.085  0.00  0.00    +0.000 A 
ATOM      4  C   UNL     1       6.881   4.854  16.804  0.00  0.00    +0.000 A 
ATOM      5  C   UNL     1       5.983   4.339  15.869  0.00  0.00    +0.000 A 
ATOM      6 CL   UNL     1       6.535   3.893  14.302  0.00  0.00    +0.000 Cl
ATOM      7  C   UNL     1       4.637   4.183  16.193  0.00  0.00    +0.000 A 
ATOM      8  C   UNL     1       4.178   4.548  17.458  0.00  0.00    +0.000 A 
ATOM      9  C   UNL     1       5.073   5.063  18.398  0.00  0.00    +0.000 A 
BRANCH   9  10
ATOM     10  O   UNL     1       4.587   5.447  19.617  0.00  0.00    +0.000 OA
ATOM     11  H   UNL     1       3.852   6.075  19.502  0.00  0.00    +0.000 HD
ENDBRANCH   9  10
ENDBRANCH   2   3
BRANCH   2  12
ATOM     12  C   UNL     1       8.166   6.995  18.628  0.00  0.00    +0.000 C 
ATOM     13  C   UNL     1       7.552   7.938  17.899  0.00  0.00    +0.000 C 
BRANCH  13  14
ATOM     14  C   UNL     1       8.210   9.178  17.552  0.00  0.00    +0.000 C 
ATOM     15  C   UNL     1       8.816   9.963  18.456  0.00  0.00    +0.000 C 
BRANCH  15  16
ATOM     16  C   UNL     1       9.450  11.252  18.136  0.00  0.00    +0.000 A 
ATOM     17  C   UNL     1      10.834  11.275  17.910  0.00  0.00    +0.000 A 
ATOM     18  C   UNL     1      11.489  12.473  17.620  0.00  0.00    +0.000 A 
ATOM     19  C   UNL     1      10.769  13.662  17.541  0.00  0.00    +0.000 A 
ATOM     20  C   UNL     1       9.390  13.650  17.736  0.00  0.00    +0.000 A 
ATOM     21  C   UNL     1       8.732  12.451  18.023  0.00  0.00    +0.000 A 
ENDBRANCH  15  16
ENDBRANCH  13  14
ENDBRANCH   2  12
TORSDOF 5
ENDMDL
MODEL 8
REMARK VINA RESULT:      -8.2      0.811      1.378
REMARK  Name = 
REMARK  5 active torsions:
REMARK  status: ('A' for Active; 'I' for Inactive)
REMARK    1  A    between atoms: C_2  and  C_3
REMARK    2  A    between atoms: C_2  and  C_13
REMARK    3  A    between atoms: C_4  and  C_5
REMARK    4  A    between atoms: C_6  and  C_7
REMARK    5  A    between atoms: C_19  and  O_20
REMARK                            x       y       z     vdW  Elec       q    Type
REMARK                         _______ _______ _______ _____ _____    ______ ____
ROOT
ATOM      1  O   UNL     1       7.513   5.083  16.613  0.00  0.00    +0.000 OA
ATOM      2  C   UNL     1       6.906   6.054  17.050  0.00  0.00    +0.000 C 
ENDROOT
BRANCH   2   3
ATOM      3  C   UNL     1       5.577   5.879  17.697  0.00  0.00    +0.000 A 
ATOM      4  C   UNL     1       4.615   6.871  17.458  0.00  0.00    +0.000 A 
ATOM      5  C   UNL     1       3.351   6.773  18.042  0.00  0.00    +0.000 A 
ATOM      6 CL   UNL     1       2.168   7.983  17.737  0.00  0.00    +0.000 Cl
ATOM      7  C   UNL     1       3.038   5.700  18.873  0.00  0.00    +0.000 A 
ATOM      8  C   UNL     1       3.992   4.717  19.132  0.00  0.00    +0.000 A 
ATOM      9  C   UNL     1       5.258   4.810  18.550  0.00  0.00    +0.000 A 
BRANCH   9  10
ATOM     10  O   UNL     1       6.185   3.851  18.852  0.00  0.00    +0.000 OA
ATOM     11  H   UNL     1       6.322   3.810  19.815  0.00  0.00    +0.000 HD
ENDBRANCH   9  10
ENDBRANCH   2   3
BRANCH   2  12
ATOM     12  C   UNL     1       7.484   7.421  17.008  0.00  0.00    +0.000 C 
ATOM     13  C   UNL     1       7.897   8.022  18.133  0.00  0.00    +0.000 C 
BRANCH  13  14
ATOM     14  C   UNL     1       8.522   9.326  18.112  0.00  0.00    +0.000 C 
ATOM     15  C   UNL     1       9.263   9.799  19.126  0.00  0.00    +0.000 C 
BRANCH  15  16
ATOM     16  C   UNL     1       9.869  11.140  19.150  0.00  0.00    +0.000 A 
ATOM     17  C   UNL     1       9.961  11.851  17.945  0.00  0.00    +0.000 A 
ATOM     18  C   UNL     1      10.542  13.119  17.908  0.00  0.00    +0.000 A 
ATOM     19  C   UNL     1      11.029  13.699  19.076  0.00  0.00    +0.000 A 
ATOM     20  C   UNL     1      10.919  13.017  20.285  0.00  0.00    +0.000 A 
ATOM     21  C   UNL     1      10.335  11.748  20.325  0.00  0.00    +0.000 A 
ENDBRANCH  15  16
ENDBRANCH  13  14
ENDBRANCH   2  12
TORSDOF 5
ENDMDL
MODEL 9
REMARK VINA RESULT:      -8.1      2.319      2.740
REMARK  Name = 
REMARK  5 active torsions:
REMARK  status: ('A' for Active; 'I' for Inactive)
REMARK    1  A    between atoms: C_2  and  C_3
REMARK    2  A    between atoms: C_2  and  C_13
REMARK    3  A    between atoms: C_4  and  C_5
REMARK    4  A    between atoms: C_6  and  C_7
REMARK    5  A    between atoms: C_19  and  O_20
REMARK                            x       y       z     vdW  Elec       q    Type
REMARK                         _______ _______ _______ _____ _____    ______ ____
ROOT
ATOM      1  O   UNL     1       7.417   5.274  20.126  0.00  0.00    +0.000 OA
ATOM      2  C   UNL     1       7.319   5.729  18.992  0.00  0.00    +0.000 C 
ENDROOT
BRANCH   2   3
ATOM      3  C   UNL     1       6.330   5.156  18.037  0.00  0.00    +0.000 A 
ATOM      4  C   UNL     1       6.800   4.809  16.762  0.00  0.00    +0.000 A 
ATOM      5  C   UNL     1       5.924   4.276  15.816  0.00  0.00    +0.000 A 
ATOM      6 CL   UNL     1       6.505   3.839  14.257  0.00  0.00    +0.000 Cl
ATOM      7  C   UNL     1       4.578   4.094  16.123  0.00  0.00    +0.000 A 
ATOM      8  C   UNL     1       4.095   4.451  17.382  0.00  0.00    +0.000 A 
ATOM      9  C   UNL     1       4.968   4.984  18.333  0.00  0.00    +0.000 A 
BRANCH   9  10
ATOM     10  O   UNL     1       4.459   5.359  19.545  0.00  0.00    +0.000 OA
ATOM     11  H   UNL     1       4.607   6.310  19.690  0.00  0.00    +0.000 HD
ENDBRANCH   9  10
ENDBRANCH   2   3
BRANCH   2  12
ATOM     12  C   UNL     1       8.125   6.891  18.542  0.00  0.00    +0.000 C 
ATOM     13  C   UNL     1       7.529   7.988  18.053  0.00  0.00    +0.000 C 
BRANCH  13  14
ATOM     14  C   UNL     1       8.288   9.157  17.669  0.00  0.00    +0.000 C 
ATOM     15  C   UNL     1       8.881   9.969  18.557  0.00  0.00    +0.000 C 
BRANCH  15  16
ATOM     16  C   UNL     1       9.618  11.190  18.195  0.00  0.00    +0.000 A 
ATOM     17  C   UNL     1       8.885  12.355  17.926  0.00  0.00    +0.000 A 
ATOM     18  C   UNL     1       9.532  13.536  17.561  0.00  0.00    +0.000 A 
ATOM     19  C   UNL     1      10.921  13.574  17.472  0.00  0.00    +0.000 A 
ATOM     20  C   UNL     1      11.664  12.433  17.765  0.00  0.00    +0.000 A 
ATOM     21  C   UNL     1      11.018  11.250  18.133  0.00  0.00    +0.000 A 
ENDBRANCH  15  16
ENDBRANCH  13  14
ENDBRANCH   2  12
TORSDOF 5
ENDMDL
