MODEL 1
REMARK VINA RESULT:      -9.1      0.000      0.000
REMARK  Name = 
REMARK  4 active torsions:
REMARK  status: ('A' for Active; 'I' for Inactive)
REMARK    1  A    between atoms: C_1  and  C_2
REMARK    2  A    between atoms: C_8  and  C_9
REMARK    3  A    between atoms: C_16  and  N_17
REMARK    4  A    between atoms: C_20  and  N_21
REMARK                            x       y       z     vdW  Elec       q    Type
REMARK                         _______ _______ _______ _____ _____    ______ ____
ROOT
ATOM      1  C   UNL     1       2.083   6.645  19.837  0.00  0.00    +0.000 A 
ATOM      2  C   UNL     1       1.362   5.848  20.724  0.00  0.00    +0.000 A 
ATOM      3  C   UNL     1       1.730   4.515  20.948  0.00  0.00    +0.000 A 
ATOM      4  C   UNL     1       2.837   3.938  20.343  0.00  0.00    +0.000 A 
ATOM      5  N   UNL     1       3.096   2.656  20.628  0.00  0.00    +0.000 NA
ATOM      6  C   UNL     1       4.171   2.097  20.051  0.00  0.00    +0.000 A 
ATOM      7  C   UNL     1       5.037   2.773  19.212  0.00  0.00    +0.000 A 
ATOM      8  C   UNL     1       4.805   4.120  18.896  0.00  0.00    +0.000 A 
ATOM      9  C   UNL     1       3.628   4.711  19.463  0.00  0.00    +0.000 A 
ATOM     10  C   UNL     1       3.167   6.026  19.190  0.00  0.00    +0.000 A 
ENDROOT
BRANCH   1  18
ATOM     11  C   UNL     1      -0.548  11.130  22.357  0.00  0.00    +0.000 C 
ATOM     12  C   UNL     1       0.063  11.213  21.008  0.00  0.00    +0.000 A 
ATOM     13  N   UNL     1       0.001  12.345  20.296  0.00  0.00    +0.000 NA
ATOM     14  N   UNL     1       0.637  12.037  19.150  0.00  0.00    +0.000 N 
ATOM     15  C   UNL     1       1.090  10.748  19.088  0.00  0.00    +0.000 A 
ATOM     16  C   UNL     1       1.762  10.039  18.090  0.00  0.00    +0.000 A 
ATOM     17  C   UNL     1       2.077   8.697  18.363  0.00  0.00    +0.000 A 
ATOM     18  C   UNL     1       1.766   8.075  19.587  0.00  0.00    +0.000 A 
ATOM     19  C   UNL     1       1.092   8.847  20.560  0.00  0.00    +0.000 A 
ATOM     20  C   UNL     1       0.742  10.184  20.304  0.00  0.00    +0.000 A 
ATOM     21  H   UNL     1       0.725  12.757  18.443  0.00  0.00    +0.000 HD
ENDBRANCH   1  18
BRANCH   8  22
ATOM     22  N   UNL     1       5.732   4.800  18.102  0.00  0.00    +0.000 N 
ATOM     23  C   UNL     1       5.359   5.537  16.888  0.00  0.00    +0.000 C 
ATOM     24  C   UNL     1       5.860   6.973  16.940  0.00  0.00    +0.000 C 
ATOM     25  C   UNL     1       7.349   7.033  17.261  0.00  0.00    +0.000 C 
ATOM     26  C   UNL     1       7.644   6.271  18.556  0.00  0.00    +0.000 C 
ATOM     27  C   UNL     1       7.164   4.823  18.435  0.00  0.00    +0.000 C 
BRANCH  25  28
ATOM     28  N   UNL     1       7.779   8.430  17.371  0.00  0.00    +0.000 NA
ATOM     29  H   UNL     1       6.964   9.025  17.526  0.00  0.00    +0.000 HD
ATOM     30  H   UNL     1       8.169   8.735  16.478  0.00  0.00    +0.000 HD
ENDBRANCH  25  28
ENDBRANCH   8  22
TORSDOF 3
ENDMDL
MODEL 2
REMARK VINA RESULT:      -8.9      2.870      7.465
REMARK  Name = 
REMARK  4 active torsions:
REMARK  status: ('A' for Active; 'I' for Inactive)
REMARK    1  A    between atoms: C_1  and  C_2
REMARK    2  A    between atoms: C_8  and  C_9
REMARK    3  A    between atoms: C_16  and  N_17
REMARK    4  A    between atoms: C_20  and  N_21
REMARK                            x       y       z     vdW  Elec       q    Type
REMARK                         _______ _______ _______ _____ _____    ______ ____
ROOT
ATOM      1  C   UNL     1       4.434   3.878  17.172  0.00  0.00    +0.000 A 
ATOM      2  C   UNL     1       4.085   2.552  17.415  0.00  0.00    +0.000 A 
ATOM      3  C   UNL     1       3.185   2.225  18.438  0.00  0.00    +0.000 A 
ATOM      4  C   UNL     1       2.571   3.191  19.223  0.00  0.00    +0.000 A 
ATOM      5  N   UNL     1       1.729   2.767  20.173  0.00  0.00    +0.000 NA
ATOM      6  C   UNL     1       1.126   3.699  20.929  0.00  0.00    +0.000 A 
ATOM      7  C   UNL     1       1.300   5.060  20.761  0.00  0.00    +0.000 A 
ATOM      8  C   UNL     1       2.167   5.544  19.771  0.00  0.00    +0.000 A 
ATOM      9  C   UNL     1       2.858   4.556  18.995  0.00  0.00    +0.000 A 
ATOM     10  C   UNL     1       3.845   4.838  18.014  0.00  0.00    +0.000 A 
ENDROOT
BRANCH   1  18
ATOM     11  C   UNL     1       5.627   2.636  11.656  0.00  0.00    +0.000 C 
ATOM     12  C   UNL     1       6.377   3.656  12.428  0.00  0.00    +0.000 A 
ATOM     13  N   UNL     1       7.399   4.320  11.876  0.00  0.00    +0.000 NA
ATOM     14  N   UNL     1       7.827   5.129  12.863  0.00  0.00    +0.000 N 
ATOM     15  C   UNL     1       7.133   4.999  14.035  0.00  0.00    +0.000 A 
ATOM     16  C   UNL     1       7.271   5.620  15.277  0.00  0.00    +0.000 A 
ATOM     17  C   UNL     1       6.373   5.236  16.287  0.00  0.00    +0.000 A 
ATOM     18  C   UNL     1       5.351   4.289  16.077  0.00  0.00    +0.000 A 
ATOM     19  C   UNL     1       5.258   3.701  14.796  0.00  0.00    +0.000 A 
ATOM     20  C   UNL     1       6.161   4.049  13.776  0.00  0.00    +0.000 A 
ATOM     21  H   UNL     1       8.606   5.747  12.671  0.00  0.00    +0.000 HD
ENDBRANCH   1  18
BRANCH   8  22
ATOM     22  N   UNL     1       2.272   6.924  19.576  0.00  0.00    +0.000 N 
ATOM     23  C   UNL     1       2.826   7.520  18.355  0.00  0.00    +0.000 C 
ATOM     24  C   UNL     1       1.859   8.522  17.742  0.00  0.00    +0.000 C 
ATOM     25  C   UNL     1       1.393   9.548  18.770  0.00  0.00    +0.000 C 
ATOM     26  C   UNL     1       0.798   8.842  19.992  0.00  0.00    +0.000 C 
ATOM     27  C   UNL     1       1.826   7.884  20.597  0.00  0.00    +0.000 C 
BRANCH  25  28
ATOM     28  N   UNL     1       0.411  10.451  18.163  0.00  0.00    +0.000 NA
ATOM     29  H   UNL     1       0.831  10.916  17.356  0.00  0.00    +0.000 HD
ATOM     30  H   UNL     1       0.190  11.201  18.821  0.00  0.00    +0.000 HD
ENDBRANCH  25  28
ENDBRANCH   8  22
TORSDOF 3
ENDMDL
MODEL 3
REMARK VINA RESULT:      -8.8      1.966      4.471
REMARK  Name = 
REMARK  4 active torsions:
REMARK  status: ('A' for Active; 'I' for Inactive)
REMARK    1  A    between atoms: C_1  and  C_2
REMARK    2  A    between atoms: C_8  and  C_9
REMARK    3  A    between atoms: C_16  and  N_17
REMARK    4  A    between atoms: C_20  and  N_21
REMARK                            x       y       z     vdW  Elec       q    Type
REMARK                         _______ _______ _______ _____ _____    ______ ____
ROOT
ATOM      1  C   UNL     1       2.841   7.456  18.411  0.00  0.00    +0.000 A 
ATOM      2  C   UNL     1       3.516   8.098  17.376  0.00  0.00    +0.000 A 
ATOM      3  C   UNL     1       4.363   7.381  16.521  0.00  0.00    +0.000 A 
ATOM      4  C   UNL     1       4.538   6.008  16.629  0.00  0.00    +0.000 A 
ATOM      5  N   UNL     1       5.372   5.424  15.759  0.00  0.00    +0.000 NA
ATOM      6  C   UNL     1       5.537   4.095  15.855  0.00  0.00    +0.000 A 
ATOM      7  C   UNL     1       4.875   3.299  16.771  0.00  0.00    +0.000 A 
ATOM      8  C   UNL     1       3.987   3.872  17.693  0.00  0.00    +0.000 A 
ATOM      9  C   UNL     1       3.847   5.298  17.636  0.00  0.00    +0.000 A 
ATOM     10  C   UNL     1       3.074   6.075  18.539  0.00  0.00    +0.000 A 
ENDROOT
BRANCH   1  18
ATOM     11  C   UNL     1      -0.541  12.138  18.593  0.00  0.00    +0.000 C 
ATOM     12  C   UNL     1      -0.406  11.201  19.735  0.00  0.00    +0.000 A 
ATOM     13  N   UNL     1      -1.054  11.424  20.885  0.00  0.00    +0.000 NA
ATOM     14  N   UNL     1      -0.682  10.393  21.667  0.00  0.00    +0.000 N 
ATOM     15  C   UNL     1       0.192   9.524  21.072  0.00  0.00    +0.000 A 
ATOM     16  C   UNL     1       0.823   8.369  21.536  0.00  0.00    +0.000 A 
ATOM     17  C   UNL     1       1.684   7.709  20.642  0.00  0.00    +0.000 A 
ATOM     18  C   UNL     1       1.900   8.155  19.324  0.00  0.00    +0.000 A 
ATOM     19  C   UNL     1       1.226   9.326  18.911  0.00  0.00    +0.000 A 
ATOM     20  C   UNL     1       0.380  10.020  19.793  0.00  0.00    +0.000 A 
ATOM     21  H   UNL     1      -1.062  10.343  22.605  0.00  0.00    +0.000 HD
ENDBRANCH   1  18
BRANCH   8  22
ATOM     22  N   UNL     1       3.280   3.038  18.563  0.00  0.00    +0.000 N 
ATOM     23  C   UNL     1       3.907   2.344  19.694  0.00  0.00    +0.000 C 
ATOM     24  C   UNL     1       3.179   2.642  20.996  0.00  0.00    +0.000 C 
ATOM     25  C   UNL     1       1.681   2.380  20.870  0.00  0.00    +0.000 C 
ATOM     26  C   UNL     1       1.104   3.168  19.690  0.00  0.00    +0.000 C 
ATOM     27  C   UNL     1       1.839   2.797  18.400  0.00  0.00    +0.000 C 
BRANCH  25  28
ATOM     28  N   UNL     1       1.005   2.744  22.118  0.00  0.00    +0.000 NA
ATOM     29  H   UNL     1       1.366   3.639  22.451  0.00  0.00    +0.000 HD
ATOM     30  H   UNL     1       1.249   2.068  22.843  0.00  0.00    +0.000 HD
ENDBRANCH  25  28
ENDBRANCH   8  22
TORSDOF 3
ENDMDL
MODEL 4
REMARK VINA RESULT:      -8.7      1.098      1.561
REMARK  Name = 
REMARK  4 active torsions:
REMARK  status: ('A' for Active; 'I' for Inactive)
REMARK    1  A    between atoms: C_1  and  C_2
REMARK    2  A    between atoms: C_8  and  C_9
REMARK    3  A    between atoms: C_16  and  N_17
REMARK    4  A    between atoms: C_20  and  N_21
REMARK                            x       y       z     vdW  Elec       q    Type
REMARK                         _______ _______ _______ _____ _____    ______ ____
ROOT
ATOM      1  C   UNL     1       1.938   6.768  19.986  0.00  0.00    +0.000 A 
ATOM      2  C   UNL     1       1.319   5.932  20.912  0.00  0.00    +0.000 A 
ATOM      3  C   UNL     1       1.728   4.600  21.060  0.00  0.00    +0.000 A 
ATOM      4  C   UNL     1       2.783   4.063  20.335  0.00  0.00    +0.000 A 
ATOM      5  N   UNL     1       3.089   2.778  20.555  0.00  0.00    +0.000 NA
ATOM      6  C   UNL     1       4.114   2.258  19.863  0.00  0.00    +0.000 A 
ATOM      7  C   UNL     1       4.885   2.975  18.968  0.00  0.00    +0.000 A 
ATOM      8  C   UNL     1       4.602   4.326  18.716  0.00  0.00    +0.000 A 
ATOM      9  C   UNL     1       3.474   4.876  19.409  0.00  0.00    +0.000 A 
ATOM     10  C   UNL     1       2.967   6.190  19.222  0.00  0.00    +0.000 A 
ENDROOT
BRANCH   1  18
ATOM     11  C   UNL     1      -0.775  11.046  22.765  0.00  0.00    +0.000 C 
ATOM     12  C   UNL     1      -0.193  11.212  21.411  0.00  0.00    +0.000 A 
ATOM     13  N   UNL     1      -0.301  12.374  20.756  0.00  0.00    +0.000 NA
ATOM     14  N   UNL     1       0.322  12.141  19.585  0.00  0.00    +0.000 N 
ATOM     15  C   UNL     1       0.812  10.870  19.454  0.00  0.00    +0.000 A 
ATOM     16  C   UNL     1       1.485  10.230  18.411  0.00  0.00    +0.000 A 
ATOM     17  C   UNL     1       1.844   8.887  18.613  0.00  0.00    +0.000 A 
ATOM     18  C   UNL     1       1.575   8.198  19.811  0.00  0.00    +0.000 A 
ATOM     19  C   UNL     1       0.897   8.902  20.832  0.00  0.00    +0.000 A 
ATOM     20  C   UNL     1       0.503  10.239  20.646  0.00  0.00    +0.000 A 
ATOM     21  H   UNL     1       0.376  12.896  18.913  0.00  0.00    +0.000 HD
ENDBRANCH   1  18
BRANCH   8  22
ATOM     22  N   UNL     1       5.438   5.047  17.859  0.00  0.00    +0.000 N 
ATOM     23  C   UNL     1       6.903   4.988  17.934  0.00  0.00    +0.000 C 
ATOM     24  C   UNL     1       7.509   4.625  16.587  0.00  0.00    +0.000 C 
ATOM     25  C   UNL     1       6.987   5.531  15.477  0.00  0.00    +0.000 C 
ATOM     26  C   UNL     1       5.456   5.506  15.448  0.00  0.00    +0.000 C 
ATOM     27  C   UNL     1       4.898   5.923  16.811  0.00  0.00    +0.000 C 
BRANCH  25  28
ATOM     28  N   UNL     1       7.538   5.108  14.187  0.00  0.00    +0.000 NA
ATOM     29  H   UNL     1       7.575   4.088  14.152  0.00  0.00    +0.000 HD
ATOM     30  H   UNL     1       8.509   5.416  14.117  0.00  0.00    +0.000 HD
ENDBRANCH  25  28
ENDBRANCH   8  22
TORSDOF 3
ENDMDL
MODEL 5
REMARK VINA RESULT:      -8.7      0.967      1.008
REMARK  Name = 
REMARK  4 active torsions:
REMARK  status: ('A' for Active; 'I' for Inactive)
REMARK    1  A    between atoms: C_1  and  C_2
REMARK    2  A    between atoms: C_8  and  C_9
REMARK    3  A    between atoms: C_16  and  N_17
REMARK    4  A    between atoms: C_20  and  N_21
REMARK                            x       y       z     vdW  Elec       q    Type
REMARK                         _______ _______ _______ _____ _____    ______ ____
ROOT
ATOM      1  C   UNL     1       1.867   6.105  19.696  0.00  0.00    +0.000 A 
ATOM      2  C   UNL     1       1.112   5.162  20.389  0.00  0.00    +0.000 A 
ATOM      3  C   UNL     1       1.386   3.793  20.263  0.00  0.00    +0.000 A 
ATOM      4  C   UNL     1       2.432   3.314  19.489  0.00  0.00    +0.000 A 
ATOM      5  N   UNL     1       2.603   1.987  19.438  0.00  0.00    +0.000 NA
ATOM      6  C   UNL     1       3.620   1.519  18.697  0.00  0.00    +0.000 A 
ATOM      7  C   UNL     1       4.513   2.325  18.016  0.00  0.00    +0.000 A 
ATOM      8  C   UNL     1       4.373   3.720  18.050  0.00  0.00    +0.000 A 
ATOM      9  C   UNL     1       3.257   4.227  18.794  0.00  0.00    +0.000 A 
ATOM     10  C   UNL     1       2.888   5.596  18.873  0.00  0.00    +0.000 A 
ENDROOT
BRANCH   1  18
ATOM     11  C   UNL     1      -0.385   9.983  23.339  0.00  0.00    +0.000 C 
ATOM     12  C   UNL     1       0.206  10.359  22.032  0.00  0.00    +0.000 A 
ATOM     13  N   UNL     1       0.214  11.634  21.624  0.00  0.00    +0.000 NA
ATOM     14  N   UNL     1       0.805  11.581  20.416  0.00  0.00    +0.000 N 
ATOM     15  C   UNL     1       1.162  10.321  20.021  0.00  0.00    +0.000 A 
ATOM     16  C   UNL     1       1.763   9.840  18.856  0.00  0.00    +0.000 A 
ATOM     17  C   UNL     1       1.985   8.455  18.777  0.00  0.00    +0.000 A 
ATOM     18  C   UNL     1       1.651   7.569  19.820  0.00  0.00    +0.000 A 
ATOM     19  C   UNL     1       1.053   8.117  20.977  0.00  0.00    +0.000 A 
ATOM     20  C   UNL     1       0.796   9.496  21.071  0.00  0.00    +0.000 A 
ATOM     21  H   UNL     1       0.933  12.447  19.907  0.00  0.00    +0.000 HD
ENDBRANCH   1  18
BRANCH   8  22
ATOM     22  N   UNL     1       5.329   4.514  17.410  0.00  0.00    +0.000 N 
ATOM     23  C   UNL     1       4.996   5.455  16.334  0.00  0.00    +0.000 C 
ATOM     24  C   UNL     1       5.509   6.853  16.647  0.00  0.00    +0.000 C 
ATOM     25  C   UNL     1       6.990   6.835  17.011  0.00  0.00    +0.000 C 
ATOM     26  C   UNL     1       7.241   5.856  18.162  0.00  0.00    +0.000 C 
ATOM     27  C   UNL     1       6.751   4.458  17.778  0.00  0.00    +0.000 C 
BRANCH  25  28
ATOM     28  N   UNL     1       7.431   8.185  17.373  0.00  0.00    +0.000 NA
ATOM     29  H   UNL     1       6.617   8.757  17.606  0.00  0.00    +0.000 HD
ATOM     30  H   UNL     1       7.850   8.634  16.557  0.00  0.00    +0.000 HD
ENDBRANCH  25  28
ENDBRANCH   8  22
TORSDOF 3
ENDMDL
MODEL 6
REMARK VINA RESULT:      -8.1      2.476      8.293
REMARK  Name = 
REMARK  4 active torsions:
REMARK  status: ('A' for Active; 'I' for Inactive)
REMARK    1  A    between atoms: C_1  and  C_2
REMARK    2  A    between atoms: C_8  and  C_9
REMARK    3  A    between atoms: C_16  and  N_17
REMARK    4  A    between atoms: C_20  and  N_21
REMARK                            x       y       z     vdW  Elec       q    Type
REMARK                         _______ _______ _______ _____ _____    ______ ____
ROOT
ATOM      1  C   UNL     1       1.000   8.909  20.722  0.00  0.00    +0.000 A 
ATOM      2  C   UNL     1       1.134   8.819  22.105  0.00  0.00    +0.000 A 
ATOM      3  C   UNL     1       0.401   9.661  22.951  0.00  0.00    +0.000 A 
ATOM      4  C   UNL     1      -0.515  10.585  22.467  0.00  0.00    +0.000 A 
ATOM      5  N   UNL     1      -1.160  11.340  23.365  0.00  0.00    +0.000 NA
ATOM      6  C   UNL     1      -2.052  12.229  22.901  0.00  0.00    +0.000 A 
ATOM      7  C   UNL     1      -2.364  12.385  21.563  0.00  0.00    +0.000 A 
ATOM      8  C   UNL     1      -1.716  11.607  20.593  0.00  0.00    +0.000 A 
ATOM      9  C   UNL     1      -0.720  10.693  21.073  0.00  0.00    +0.000 A 
ATOM     10  C   UNL     1       0.110   9.889  20.249  0.00  0.00    +0.000 A 
ENDROOT
BRANCH   1  18
ATOM     11  C   UNL     1       2.945   3.483  20.318  0.00  0.00    +0.000 C 
ATOM     12  C   UNL     1       3.141   4.487  19.244  0.00  0.00    +0.000 A 
ATOM     13  N   UNL     1       3.814   4.177  18.130  0.00  0.00    +0.000 NA
ATOM     14  N   UNL     1       3.796   5.318  17.416  0.00  0.00    +0.000 N 
ATOM     15  C   UNL     1       3.153   6.356  18.033  0.00  0.00    +0.000 A 
ATOM     16  C   UNL     1       2.936   7.681  17.653  0.00  0.00    +0.000 A 
ATOM     17  C   UNL     1       2.226   8.496  18.552  0.00  0.00    +0.000 A 
ATOM     18  C   UNL     1       1.720   8.017  19.776  0.00  0.00    +0.000 A 
ATOM     19  C   UNL     1       1.965   6.664  20.101  0.00  0.00    +0.000 A 
ATOM     20  C   UNL     1       2.695   5.835  19.232  0.00  0.00    +0.000 A 
ATOM     21  H   UNL     1       4.248   5.323  16.509  0.00  0.00    +0.000 HD
ENDBRANCH   1  18
BRANCH   8  22
ATOM     22  N   UNL     1      -2.098  11.735  19.255  0.00  0.00    +0.000 N 
ATOM     23  C   UNL     1      -1.134  11.790  18.149  0.00  0.00    +0.000 C 
ATOM     24  C   UNL     1      -1.447  10.741  17.092  0.00  0.00    +0.000 C 
ATOM     25  C   UNL     1      -2.902  10.819  16.642  0.00  0.00    +0.000 C 
ATOM     26  C   UNL     1      -3.836  10.718  17.852  0.00  0.00    +0.000 C 
ATOM     27  C   UNL     1      -3.511  11.822  18.860  0.00  0.00    +0.000 C 
BRANCH  25  28
ATOM     28  N   UNL     1      -3.184   9.751  15.679  0.00  0.00    +0.000 NA
ATOM     29  H   UNL     1      -4.181   9.532  15.698  0.00  0.00    +0.000 HD
ATOM     30  H   UNL     1      -2.714   8.895  15.977  0.00  0.00    +0.000 HD
ENDBRANCH  25  28
ENDBRANCH   8  22
TORSDOF 3
ENDMDL
MODEL 7
REMARK VINA RESULT:      -8.1      1.405      1.750
REMARK  Name = 
REMARK  4 active torsions:
REMARK  status: ('A' for Active; 'I' for Inactive)
REMARK    1  A    between atoms: C_1  and  C_2
REMARK    2  A    between atoms: C_8  and  C_9
REMARK    3  A    between atoms: C_16  and  N_17
REMARK    4  A    between atoms: C_20  and  N_21
REMARK                            x       y       z     vdW  Elec       q    Type
REMARK                         _______ _______ _______ _____ _____    ______ ____
ROOT
ATOM      1  C   UNL     1       2.086   6.877  19.563  0.00  0.00    +0.000 A 
ATOM      2  C   UNL     1       1.766   6.189  20.731  0.00  0.00    +0.000 A 
ATOM      3  C   UNL     1       2.113   4.840  20.883  0.00  0.00    +0.000 A 
ATOM      4  C   UNL     1       2.818   4.140  19.914  0.00  0.00    +0.000 A 
ATOM      5  N   UNL     1       3.095   2.854  20.163  0.00  0.00    +0.000 NA
ATOM      6  C   UNL     1       3.785   2.176  19.232  0.00  0.00    +0.000 A 
ATOM      7  C   UNL     1       4.249   2.735  18.056  0.00  0.00    +0.000 A 
ATOM      8  C   UNL     1       3.987   4.081  17.762  0.00  0.00    +0.000 A 
ATOM      9  C   UNL     1       3.203   4.799  18.725  0.00  0.00    +0.000 A 
ATOM     10  C   UNL     1       2.751   6.136  18.570  0.00  0.00    +0.000 A 
ENDROOT
BRANCH   1  18
ATOM     11  C   UNL     1      -0.759  11.228  22.085  0.00  0.00    +0.000 C 
ATOM     12  C   UNL     1      -0.047  11.378  20.793  0.00  0.00    +0.000 A 
ATOM     13  N   UNL     1      -0.060  12.543  20.134  0.00  0.00    +0.000 NA
ATOM     14  N   UNL     1       0.665  12.293  19.028  0.00  0.00    +0.000 N 
ATOM     15  C   UNL     1       1.129  11.009  18.939  0.00  0.00    +0.000 A 
ATOM     16  C   UNL     1       1.881  10.352  17.964  0.00  0.00    +0.000 A 
ATOM     17  C   UNL     1       2.182   8.998  18.194  0.00  0.00    +0.000 A 
ATOM     18  C   UNL     1       1.780   8.317  19.359  0.00  0.00    +0.000 A 
ATOM     19  C   UNL     1       1.029   9.039  20.313  0.00  0.00    +0.000 A 
ATOM     20  C   UNL     1       0.692  10.386  20.095  0.00  0.00    +0.000 A 
ATOM     21  H   UNL     1       0.803  13.047  18.365  0.00  0.00    +0.000 HD
ENDBRANCH   1  18
BRANCH   8  22
ATOM     22  N   UNL     1       4.526   4.640  16.600  0.00  0.00    +0.000 N 
ATOM     23  C   UNL     1       5.023   6.019  16.531  0.00  0.00    +0.000 C 
ATOM     24  C   UNL     1       6.452   6.064  16.011  0.00  0.00    +0.000 C 
ATOM     25  C   UNL     1       6.594   5.294  14.703  0.00  0.00    +0.000 C 
ATOM     26  C   UNL     1       6.086   3.860  14.874  0.00  0.00    +0.000 C 
ATOM     27  C   UNL     1       4.632   3.871  15.352  0.00  0.00    +0.000 C 
BRANCH  25  28
ATOM     28  N   UNL     1       7.994   5.301  14.270  0.00  0.00    +0.000 NA
ATOM     29  H   UNL     1       8.058   4.930  13.320  0.00  0.00    +0.000 HD
ATOM     30  H   UNL     1       8.529   4.650  14.848  0.00  0.00    +0.000 HD
ENDBRANCH  25  28
ENDBRANCH   8  22
TORSDOF 3
ENDMDL
MODEL 8
REMARK VINA RESULT:      -8.0      2.256      7.719
REMARK  Name = 
REMARK  4 active torsions:
REMARK  status: ('A' for Active; 'I' for Inactive)
REMARK    1  A    between atoms: C_1  and  C_2
REMARK    2  A    between atoms: C_8  and  C_9
REMARK    3  A    between atoms: C_16  and  N_17
REMARK    4  A    between atoms: C_20  and  N_21
REMARK                            x       y       z     vdW  Elec       q    Type
REMARK                         _______ _______ _______ _____ _____    ______ ____
ROOT
ATOM      1  C   UNL     1       0.940   8.950  20.760  0.00  0.00    +0.000 A 
ATOM      2  C   UNL     1       0.155   8.458  21.800  0.00  0.00    +0.000 A 
ATOM      3  C   UNL     1      -0.556   9.331  22.634  0.00  0.00    +0.000 A 
ATOM      4  C   UNL     1      -0.551  10.706  22.447  0.00  0.00    +0.000 A 
ATOM      5  N   UNL     1      -1.264  11.446  23.304  0.00  0.00    +0.000 NA
ATOM      6  C   UNL     1      -1.269  12.776  23.121  0.00  0.00    +0.000 A 
ATOM      7  C   UNL     1      -0.611  13.415  22.087  0.00  0.00    +0.000 A 
ATOM      8  C   UNL     1       0.140  12.674  21.163  0.00  0.00    +0.000 A 
ATOM      9  C   UNL     1       0.197  11.258  21.383  0.00  0.00    +0.000 A 
ATOM     10  C   UNL     1       0.977  10.349  20.620  0.00  0.00    +0.000 A 
ENDROOT
BRANCH   1  18
ATOM     11  C   UNL     1       2.968   3.555  20.354  0.00  0.00    +0.000 C 
ATOM     12  C   UNL     1       3.162   4.566  19.287  0.00  0.00    +0.000 A 
ATOM     13  N   UNL     1       3.852   4.271  18.179  0.00  0.00    +0.000 NA
ATOM     14  N   UNL     1       3.826   5.415  17.471  0.00  0.00    +0.000 N 
ATOM     15  C   UNL     1       3.160   6.440  18.085  0.00  0.00    +0.000 A 
ATOM     16  C   UNL     1       2.929   7.765  17.708  0.00  0.00    +0.000 A 
ATOM     17  C   UNL     1       2.197   8.564  18.602  0.00  0.00    +0.000 A 
ATOM     18  C   UNL     1       1.684   8.074  19.818  0.00  0.00    +0.000 A 
ATOM     19  C   UNL     1       1.945   6.723  20.140  0.00  0.00    +0.000 A 
ATOM     20  C   UNL     1       2.697   5.908  19.276  0.00  0.00    +0.000 A 
ATOM     21  H   UNL     1       4.288   5.431  16.569  0.00  0.00    +0.000 HD
ENDBRANCH   1  18
BRANCH   8  22
ATOM     22  N   UNL     1       0.739  13.337  20.088  0.00  0.00    +0.000 N 
ATOM     23  C   UNL     1       1.408  14.636  20.221  0.00  0.00    +0.000 C 
ATOM     24  C   UNL     1       2.828  14.583  19.677  0.00  0.00    +0.000 C 
ATOM     25  C   UNL     1       2.862  14.017  18.261  0.00  0.00    +0.000 C 
ATOM     26  C   UNL     1       2.175  12.649  18.221  0.00  0.00    +0.000 C 
ATOM     27  C   UNL     1       0.738  12.767  18.733  0.00  0.00    +0.000 C 
BRANCH  25  28
ATOM     28  N   UNL     1       4.249  13.916  17.798  0.00  0.00    +0.000 NA
ATOM     29  H   UNL     1       4.258  13.638  16.815  0.00  0.00    +0.000 HD
ATOM     30  H   UNL     1       4.716  13.157  18.296  0.00  0.00    +0.000 HD
ENDBRANCH  25  28
ENDBRANCH   8  22
TORSDOF 3
ENDMDL
MODEL 9
REMARK VINA RESULT:      -8.0      2.617      8.175
REMARK  Name = 
REMARK  4 active torsions:
REMARK  status: ('A' for Active; 'I' for Inactive)
REMARK    1  A    between atoms: C_1  and  C_2
REMARK    2  A    between atoms: C_8  and  C_9
REMARK    3  A    between atoms: C_16  and  N_17
REMARK    4  A    between atoms: C_20  and  N_21
REMARK                            x       y       z     vdW  Elec       q    Type
REMARK                         _______ _______ _______ _____ _____    ______ ____
ROOT
ATOM      1  C   UNL     1       0.658   9.274  21.182  0.00  0.00    +0.000 A 
ATOM      2  C   UNL     1      -0.217   8.947  22.215  0.00  0.00    +0.000 A 
ATOM      3  C   UNL     1      -0.859   9.950  22.953  0.00  0.00    +0.000 A 
ATOM      4  C   UNL     1      -0.695  11.299  22.673  0.00  0.00    +0.000 A 
ATOM      5  N   UNL     1      -1.355  12.172  23.444  0.00  0.00    +0.000 NA
ATOM      6  C   UNL     1      -1.206  13.478  23.170  0.00  0.00    +0.000 A 
ATOM      7  C   UNL     1      -0.441  13.966  22.127  0.00  0.00    +0.000 A 
ATOM      8  C   UNL     1       0.260  13.083  21.292  0.00  0.00    +0.000 A 
ATOM      9  C   UNL     1       0.151  11.688  21.610  0.00  0.00    +0.000 A 
ATOM     10  C   UNL     1       0.854  10.647  20.949  0.00  0.00    +0.000 A 
ENDROOT
BRANCH   1  18
ATOM     11  C   UNL     1       2.230   3.716  21.307  0.00  0.00    +0.000 C 
ATOM     12  C   UNL     1       2.521   4.606  20.156  0.00  0.00    +0.000 A 
ATOM     13  N   UNL     1       3.197   4.154  19.094  0.00  0.00    +0.000 NA
ATOM     14  N   UNL     1       3.275   5.226  18.284  0.00  0.00    +0.000 N 
ATOM     15  C   UNL     1       2.691   6.355  18.790  0.00  0.00    +0.000 A 
ATOM     16  C   UNL     1       2.576   7.653  18.290  0.00  0.00    +0.000 A 
ATOM     17  C   UNL     1       1.903   8.590  19.093  0.00  0.00    +0.000 A 
ATOM     18  C   UNL     1       1.337   8.257  20.339  0.00  0.00    +0.000 A 
ATOM     19  C   UNL     1       1.479   6.924  20.787  0.00  0.00    +0.000 A 
ATOM     20  C   UNL     1       2.170   5.974  20.015  0.00  0.00    +0.000 A 
ATOM     21  H   UNL     1       3.747   5.120  17.394  0.00  0.00    +0.000 HD
ENDBRANCH   1  18
BRANCH   8  22
ATOM     22  N   UNL     1       0.969  13.597  20.204  0.00  0.00    +0.000 N 
ATOM     23  C   UNL     1       0.316  14.159  19.016  0.00  0.00    +0.000 C 
ATOM     24  C   UNL     1       0.821  15.564  18.723  0.00  0.00    +0.000 C 
ATOM     25  C   UNL     1       2.344  15.609  18.665  0.00  0.00    +0.000 C 
ATOM     26  C   UNL     1       2.941  15.037  19.954  0.00  0.00    +0.000 C 
ATOM     27  C   UNL     1       2.439  13.609  20.177  0.00  0.00    +0.000 C 
BRANCH  25  28
ATOM     28  N   UNL     1       2.795  16.987  18.451  0.00  0.00    +0.000 NA
ATOM     29  H   UNL     1       2.289  17.611  19.082  0.00  0.00    +0.000 HD
ATOM     30  H   UNL     1       2.533  17.286  17.510  0.00  0.00    +0.000 HD
ENDBRANCH  25  28
ENDBRANCH   8  22
TORSDOF 3
ENDMDL
