MODEL 1
REMARK VINA RESULT:      -8.2      0.000      0.000
REMARK  Name = 
REMARK  8 active torsions:
REMARK  status: ('A' for Active; 'I' for Inactive)
REMARK    1  A    between atoms: C_1  and  C_2
REMARK    2  A    between atoms: C_2  and  C_3
REMARK    3  A    between atoms: C_3  and  C_4
REMARK    4  A    between atoms: C_6  and  C_7
REMARK    5  A    between atoms: C_7  and  N_8
REMARK    6  A    between atoms: N_8  and  C_9
REMARK    7  A    between atoms: N_8  and  C_10
REMARK    8  A    between atoms: N_13  and  C_14
REMARK                            x       y       z     vdW  Elec       q    Type
REMARK                         _______ _______ _______ _____ _____    ______ ____
ROOT
ATOM      1  N   UNL     1       6.713   6.270  17.450  0.00  0.00    +0.000 NA
ATOM      2  C   UNL     1       7.894   6.555  18.267  0.00  0.00    +0.000 C 
ENDROOT
BRANCH   1   3
ATOM      3  C   UNL     1       5.432   6.638  18.088  0.00  0.00    +0.000 C 
ATOM      4  C   UNL     1       4.296   6.985  17.115  0.00  0.00    +0.000 C 
ATOM      5  C   UNL     1       3.042   6.819  17.966  0.00  0.00    +0.000 C 
ATOM      6  N   UNL     1       3.346   5.724  18.893  0.00  0.00    +0.000 N 
ATOM      7  C   UNL     1       4.797   5.453  18.865  0.00  0.00    +0.000 C 
BRANCH   6   8
ATOM      8  C   UNL     1       2.576   4.560  18.924  0.00  0.00    +0.000 A 
ATOM      9  C   UNL     1       2.683   3.526  17.988  0.00  0.00    +0.000 A 
ATOM     10  C   UNL     1       1.883   2.378  18.073  0.00  0.00    +0.000 A 
ATOM     11  C   UNL     1       0.959   2.245  19.108  0.00  0.00    +0.000 A 
ATOM     12  C   UNL     1       0.845   3.251  20.059  0.00  0.00    +0.000 A 
ATOM     13  C   UNL     1       1.652   4.393  19.968  0.00  0.00    +0.000 A 
ENDBRANCH   6   8
ENDBRANCH   1   3
BRANCH   1  14
ATOM     14  C   UNL     1       6.708   4.845  17.040  0.00  0.00    +0.000 C 
BRANCH  14  17
ATOM     15  C   UNL     1       6.590   4.119  13.431  0.00  0.00    +0.000 A 
ATOM     16  C   UNL     1       6.167   3.816  14.704  0.00  0.00    +0.000 A 
ATOM     17  C   UNL     1       6.841   4.730  15.548  0.00  0.00    +0.000 A 
ATOM     18  N   UNL     1       7.655   5.536  14.852  0.00  0.00    +0.000 NA
ATOM     19  N   UNL     1       7.479   5.148  13.577  0.00  0.00    +0.000 N 
ATOM     20  H   UNL     1       7.998   5.635  12.854  0.00  0.00    +0.000 HD
BRANCH  15  21
ATOM     21  C   UNL     1       6.205   3.547  12.113  0.00  0.00    +0.000 C 
BRANCH  21  23
ATOM     22  C   UNL     1       3.973   3.570  10.953  0.00  0.00    +0.000 C 
ATOM     23  C   UNL     1       4.779   3.001  12.109  0.00  0.00    +0.000 C 
ENDBRANCH  21  23
ENDBRANCH  15  21
ENDBRANCH  14  17
ENDBRANCH   1  14
TORSDOF 6
ENDMDL
MODEL 2
REMARK VINA RESULT:      -8.1      0.325      1.068
REMARK  Name = 
REMARK  8 active torsions:
REMARK  status: ('A' for Active; 'I' for Inactive)
REMARK    1  A    between atoms: C_1  and  C_2
REMARK    2  A    between atoms: C_2  and  C_3
REMARK    3  A    between atoms: C_3  and  C_4
REMARK    4  A    between atoms: C_6  and  C_7
REMARK    5  A    between atoms: C_7  and  N_8
REMARK    6  A    between atoms: N_8  and  C_9
REMARK    7  A    between atoms: N_8  and  C_10
REMARK    8  A    between atoms: N_13  and  C_14
REMARK                            x       y       z     vdW  Elec       q    Type
REMARK                         _______ _______ _______ _____ _____    ______ ____
ROOT
ATOM      1  N   UNL     1       6.426   6.574  17.130  0.00  0.00    +0.000 NA
ATOM      2  C   UNL     1       7.660   7.167  17.649  0.00  0.00    +0.000 C 
ENDROOT
BRANCH   1   3
ATOM      3  C   UNL     1       5.238   6.815  17.973  0.00  0.00    +0.000 C 
ATOM      4  C   UNL     1       3.967   7.218  17.209  0.00  0.00    +0.000 C 
ATOM      5  C   UNL     1       2.850   6.906  18.198  0.00  0.00    +0.000 C 
ATOM      6  N   UNL     1       3.310   5.729  18.943  0.00  0.00    +0.000 N 
ATOM      7  C   UNL     1       4.750   5.525  18.688  0.00  0.00    +0.000 C 
BRANCH   6   8
ATOM      8  C   UNL     1       2.584   4.538  18.945  0.00  0.00    +0.000 A 
ATOM      9  C   UNL     1       1.557   4.248  19.851  0.00  0.00    +0.000 A 
ATOM     10  C   UNL     1       0.859   3.034  19.803  0.00  0.00    +0.000 A 
ATOM     11  C   UNL     1       1.178   2.084  18.834  0.00  0.00    +0.000 A 
ATOM     12  C   UNL     1       2.183   2.353  17.914  0.00  0.00    +0.000 A 
ATOM     13  C   UNL     1       2.872   3.572  17.967  0.00  0.00    +0.000 A 
ENDBRANCH   6   8
ENDBRANCH   1   3
BRANCH   1  14
ATOM     14  C   UNL     1       6.618   5.123  16.891  0.00  0.00    +0.000 C 
BRANCH  14  17
ATOM     15  C   UNL     1       6.496   4.048  13.370  0.00  0.00    +0.000 A 
ATOM     16  C   UNL     1       6.039   3.902  14.659  0.00  0.00    +0.000 A 
ATOM     17  C   UNL     1       6.761   4.851  15.419  0.00  0.00    +0.000 A 
ATOM     18  N   UNL     1       7.636   5.529  14.662  0.00  0.00    +0.000 NA
ATOM     19  N   UNL     1       7.449   5.028  13.429  0.00  0.00    +0.000 N 
ATOM     20  H   UNL     1       8.007   5.404  12.671  0.00  0.00    +0.000 HD
BRANCH  15  21
ATOM     21  C   UNL     1       6.090   3.373  12.108  0.00  0.00    +0.000 C 
BRANCH  21  23
ATOM     22  C   UNL     1       3.958   3.677  10.807  0.00  0.00    +0.000 C 
ATOM     23  C   UNL     1       4.590   3.087  12.057  0.00  0.00    +0.000 C 
ENDBRANCH  21  23
ENDBRANCH  15  21
ENDBRANCH  14  17
ENDBRANCH   1  14
TORSDOF 6
ENDMDL
MODEL 3
REMARK VINA RESULT:      -7.6      1.083      1.104
REMARK  Name = 
REMARK  8 active torsions:
REMARK  status: ('A' for Active; 'I' for Inactive)
REMARK    1  A    between atoms: C_1  and  C_2
REMARK    2  A    between atoms: C_2  and  C_3
REMARK    3  A    between atoms: C_3  and  C_4
REMARK    4  A    between atoms: C_6  and  C_7
REMARK    5  A    between atoms: C_7  and  N_8
REMARK    6  A    between atoms: N_8  and  C_9
REMARK    7  A    between atoms: N_8  and  C_10
REMARK    8  A    between atoms: N_13  and  C_14
REMARK                            x       y       z     vdW  Elec       q    Type
REMARK                         _______ _______ _______ _____ _____    ______ ____
ROOT
ATOM      1  N   UNL     1       6.626   6.730  17.082  0.00  0.00    +0.000 NA
ATOM      2  C   UNL     1       7.723   7.627  17.452  0.00  0.00    +0.000 C 
ENDROOT
BRANCH   1   3
ATOM      3  C   UNL     1       5.403   6.904  17.891  0.00  0.00    +0.000 C 
ATOM      4  C   UNL     1       4.113   7.116  17.085  0.00  0.00    +0.000 C 
ATOM      5  C   UNL     1       3.015   6.760  18.080  0.00  0.00    +0.000 C 
ATOM      6  N   UNL     1       3.580   5.695  18.916  0.00  0.00    +0.000 N 
ATOM      7  C   UNL     1       5.038   5.625  18.693  0.00  0.00    +0.000 C 
BRANCH   6   8
ATOM      8  C   UNL     1       2.982   4.436  18.996  0.00  0.00    +0.000 A 
ATOM      9  C   UNL     1       3.599   3.249  18.588  0.00  0.00    +0.000 A 
ATOM     10  C   UNL     1       2.949   2.012  18.697  0.00  0.00    +0.000 A 
ATOM     11  C   UNL     1       1.660   1.944  19.224  0.00  0.00    +0.000 A 
ATOM     12  C   UNL     1       1.032   3.107  19.651  0.00  0.00    +0.000 A 
ATOM     13  C   UNL     1       1.691   4.339  19.542  0.00  0.00    +0.000 A 
ENDBRANCH   6   8
ENDBRANCH   1   3
BRANCH   1  14
ATOM     14  C   UNL     1       7.085   5.320  17.116  0.00  0.00    +0.000 C 
BRANCH  14  17
ATOM     15  C   UNL     1       6.463   3.990  13.738  0.00  0.00    +0.000 A 
ATOM     16  C   UNL     1       7.051   4.945  14.535  0.00  0.00    +0.000 A 
ATOM     17  C   UNL     1       6.679   4.608  15.857  0.00  0.00    +0.000 A 
ATOM     18  N   UNL     1       5.885   3.528  15.886  0.00  0.00    +0.000 NA
ATOM     19  N   UNL     1       5.778   3.173  14.595  0.00  0.00    +0.000 N 
ATOM     20  H   UNL     1       5.219   2.357  14.369  0.00  0.00    +0.000 HD
BRANCH  15  21
ATOM     21  C   UNL     1       6.523   3.773  12.268  0.00  0.00    +0.000 C 
BRANCH  21  23
ATOM     22  C   UNL     1       4.249   3.248  11.329  0.00  0.00    +0.000 C 
ATOM     23  C   UNL     1       5.573   2.671  11.802  0.00  0.00    +0.000 C 
ENDBRANCH  21  23
ENDBRANCH  15  21
ENDBRANCH  14  17
ENDBRANCH   1  14
TORSDOF 6
ENDMDL
MODEL 4
REMARK VINA RESULT:      -7.6      1.702      3.170
REMARK  Name = 
REMARK  8 active torsions:
REMARK  status: ('A' for Active; 'I' for Inactive)
REMARK    1  A    between atoms: C_1  and  C_2
REMARK    2  A    between atoms: C_2  and  C_3
REMARK    3  A    between atoms: C_3  and  C_4
REMARK    4  A    between atoms: C_6  and  C_7
REMARK    5  A    between atoms: C_7  and  N_8
REMARK    6  A    between atoms: N_8  and  C_9
REMARK    7  A    between atoms: N_8  and  C_10
REMARK    8  A    between atoms: N_13  and  C_14
REMARK                            x       y       z     vdW  Elec       q    Type
REMARK                         _______ _______ _______ _____ _____    ______ ____
ROOT
ATOM      1  N   UNL     1       6.619   5.621  17.981  0.00  0.00    +0.000 NA
ATOM      2  C   UNL     1       7.186   5.869  19.308  0.00  0.00    +0.000 C 
ENDROOT
BRANCH   1   3
ATOM      3  C   UNL     1       5.176   5.303  17.990  0.00  0.00    +0.000 C 
ATOM      4  C   UNL     1       4.600   4.926  19.363  0.00  0.00    +0.000 C 
ATOM      5  C   UNL     1       3.103   5.151  19.189  0.00  0.00    +0.000 C 
ATOM      6  N   UNL     1       2.987   6.285  18.266  0.00  0.00    +0.000 N 
ATOM      7  C   UNL     1       4.298   6.533  17.634  0.00  0.00    +0.000 C 
BRANCH   6   8
ATOM      8  C   UNL     1       2.329   7.460  18.634  0.00  0.00    +0.000 A 
ATOM      9  C   UNL     1       1.998   8.484  17.740  0.00  0.00    +0.000 A 
ATOM     10  C   UNL     1       1.334   9.642  18.167  0.00  0.00    +0.000 A 
ATOM     11  C   UNL     1       0.983   9.791  19.508  0.00  0.00    +0.000 A 
ATOM     12  C   UNL     1       1.286   8.781  20.412  0.00  0.00    +0.000 A 
ATOM     13  C   UNL     1       1.947   7.626  19.975  0.00  0.00    +0.000 A 
ENDBRANCH   6   8
ENDBRANCH   1   3
BRANCH   1  14
ATOM     14  C   UNL     1       7.388   4.560  17.287  0.00  0.00    +0.000 C 
BRANCH  14  17
ATOM     15  C   UNL     1       6.356   4.150  13.775  0.00  0.00    +0.000 A 
ATOM     16  C   UNL     1       6.336   3.681  15.068  0.00  0.00    +0.000 A 
ATOM     17  C   UNL     1       7.115   4.598  15.810  0.00  0.00    +0.000 A 
ATOM     18  N   UNL     1       7.616   5.566  15.028  0.00  0.00    +0.000 NA
ATOM     19  N   UNL     1       7.136   5.273  13.808  0.00  0.00    +0.000 N 
ATOM     20  H   UNL     1       7.380   5.888  13.039  0.00  0.00    +0.000 HD
BRANCH  15  21
ATOM     21  C   UNL     1       5.685   3.652  12.545  0.00  0.00    +0.000 C 
BRANCH  21  23
ATOM     22  C   UNL     1       5.902   1.448  11.350  0.00  0.00    +0.000 C 
ATOM     23  C   UNL     1       6.594   2.753  11.709  0.00  0.00    +0.000 C 
ENDBRANCH  21  23
ENDBRANCH  15  21
ENDBRANCH  14  17
ENDBRANCH   1  14
TORSDOF 6
ENDMDL
MODEL 5
REMARK VINA RESULT:      -7.4      0.967      1.443
REMARK  Name = 
REMARK  8 active torsions:
REMARK  status: ('A' for Active; 'I' for Inactive)
REMARK    1  A    between atoms: C_1  and  C_2
REMARK    2  A    between atoms: C_2  and  C_3
REMARK    3  A    between atoms: C_3  and  C_4
REMARK    4  A    between atoms: C_6  and  C_7
REMARK    5  A    between atoms: C_7  and  N_8
REMARK    6  A    between atoms: N_8  and  C_9
REMARK    7  A    between atoms: N_8  and  C_10
REMARK    8  A    between atoms: N_13  and  C_14
REMARK                            x       y       z     vdW  Elec       q    Type
REMARK                         _______ _______ _______ _____ _____    ______ ____
ROOT
ATOM      1  N   UNL     1       6.883   5.512  17.446  0.00  0.00    +0.000 NA
ATOM      2  C   UNL     1       8.026   5.161  18.291  0.00  0.00    +0.000 C 
ENDROOT
BRANCH   1   3
ATOM      3  C   UNL     1       5.759   6.132  18.176  0.00  0.00    +0.000 C 
ATOM      4  C   UNL     1       4.632   6.685  17.290  0.00  0.00    +0.000 C 
ATOM      5  C   UNL     1       3.448   6.779  18.246  0.00  0.00    +0.000 C 
ATOM      6  N   UNL     1       3.612   5.655  19.175  0.00  0.00    +0.000 N 
ATOM      7  C   UNL     1       4.974   5.104  19.036  0.00  0.00    +0.000 C 
BRANCH   6   8
ATOM      8  C   UNL     1       2.635   4.666  19.302  0.00  0.00    +0.000 A 
ATOM      9  C   UNL     1       1.581   4.721  20.221  0.00  0.00    +0.000 A 
ATOM     10  C   UNL     1       0.627   3.698  20.301  0.00  0.00    +0.000 A 
ATOM     11  C   UNL     1       0.710   2.597  19.451  0.00  0.00    +0.000 A 
ATOM     12  C   UNL     1       1.738   2.527  18.519  0.00  0.00    +0.000 A 
ATOM     13  C   UNL     1       2.685   3.556  18.444  0.00  0.00    +0.000 A 
ENDBRANCH   6   8
ENDBRANCH   1   3
BRANCH   1  14
ATOM     14  C   UNL     1       6.427   4.324  16.685  0.00  0.00    +0.000 C 
BRANCH  14  17
ATOM     15  C   UNL     1       6.918   4.183  13.037  0.00  0.00    +0.000 A 
ATOM     16  C   UNL     1       6.352   3.641  14.168  0.00  0.00    +0.000 A 
ATOM     17  C   UNL     1       6.787   4.464  15.232  0.00  0.00    +0.000 A 
ATOM     18  N   UNL     1       7.597   5.442  14.802  0.00  0.00    +0.000 NA
ATOM     19  N   UNL     1       7.653   5.251  13.473  0.00  0.00    +0.000 N 
ATOM     20  H   UNL     1       8.212   5.892  12.921  0.00  0.00    +0.000 HD
BRANCH  15  21
ATOM     21  C   UNL     1       6.796   3.799  11.605  0.00  0.00    +0.000 C 
BRANCH  21  23
ATOM     22  C   UNL     1       6.042   1.441  11.152  0.00  0.00    +0.000 C 
ATOM     23  C   UNL     1       7.238   2.359  11.349  0.00  0.00    +0.000 C 
ENDBRANCH  21  23
ENDBRANCH  15  21
ENDBRANCH  14  17
ENDBRANCH   1  14
TORSDOF 6
ENDMDL
MODEL 6
REMARK VINA RESULT:      -7.3      1.020      1.464
REMARK  Name = 
REMARK  8 active torsions:
REMARK  status: ('A' for Active; 'I' for Inactive)
REMARK    1  A    between atoms: C_1  and  C_2
REMARK    2  A    between atoms: C_2  and  C_3
REMARK    3  A    between atoms: C_3  and  C_4
REMARK    4  A    between atoms: C_6  and  C_7
REMARK    5  A    between atoms: C_7  and  N_8
REMARK    6  A    between atoms: N_8  and  C_9
REMARK    7  A    between atoms: N_8  and  C_10
REMARK    8  A    between atoms: N_13  and  C_14
REMARK                            x       y       z     vdW  Elec       q    Type
REMARK                         _______ _______ _______ _____ _____    ______ ____
ROOT
ATOM      1  N   UNL     1       6.765   6.272  17.696  0.00  0.00    +0.000 NA
ATOM      2  C   UNL     1       7.940   6.797  18.394  0.00  0.00    +0.000 C 
ENDROOT
BRANCH   1   3
ATOM      3  C   UNL     1       5.477   6.633  18.322  0.00  0.00    +0.000 C 
ATOM      4  C   UNL     1       4.354   6.997  17.340  0.00  0.00    +0.000 C 
ATOM      5  C   UNL     1       3.089   6.823  18.172  0.00  0.00    +0.000 C 
ATOM      6  N   UNL     1       3.379   5.713  19.087  0.00  0.00    +0.000 N 
ATOM      7  C   UNL     1       4.830   5.439  19.074  0.00  0.00    +0.000 C 
BRANCH   6   8
ATOM      8  C   UNL     1       2.606   4.551  19.091  0.00  0.00    +0.000 A 
ATOM      9  C   UNL     1       1.600   4.284  20.028  0.00  0.00    +0.000 A 
ATOM     10  C   UNL     1       0.853   3.100  19.980  0.00  0.00    +0.000 A 
ATOM     11  C   UNL     1       1.100   2.158  18.983  0.00  0.00    +0.000 A 
ATOM     12  C   UNL     1       2.082   2.406  18.032  0.00  0.00    +0.000 A 
ATOM     13  C   UNL     1       2.821   3.595  18.085  0.00  0.00    +0.000 A 
ENDBRANCH   6   8
ENDBRANCH   1   3
BRANCH   1  14
ATOM     14  C   UNL     1       6.880   4.802  17.538  0.00  0.00    +0.000 C 
BRANCH  14  17
ATOM     15  C   UNL     1       6.340   4.049  13.973  0.00  0.00    +0.000 A 
ATOM     16  C   UNL     1       7.107   4.650  14.943  0.00  0.00    +0.000 A 
ATOM     17  C   UNL     1       6.439   4.388  16.162  0.00  0.00    +0.000 A 
ATOM     18  N   UNL     1       5.310   3.692  15.967  0.00  0.00    +0.000 NA
ATOM     19  N   UNL     1       5.279   3.496  14.638  0.00  0.00    +0.000 N 
ATOM     20  H   UNL     1       4.502   2.972  14.250  0.00  0.00    +0.000 HD
BRANCH  15  21
ATOM     21  C   UNL     1       6.541   3.930  12.504  0.00  0.00    +0.000 C 
BRANCH  21  23
ATOM     22  C   UNL     1       4.399   3.238  11.378  0.00  0.00    +0.000 C 
ATOM     23  C   UNL     1       5.749   2.772  11.900  0.00  0.00    +0.000 C 
ENDBRANCH  21  23
ENDBRANCH  15  21
ENDBRANCH  14  17
ENDBRANCH   1  14
TORSDOF 6
ENDMDL
MODEL 7
REMARK VINA RESULT:      -6.9      1.444      2.002
REMARK  Name = 
REMARK  8 active torsions:
REMARK  status: ('A' for Active; 'I' for Inactive)
REMARK    1  A    between atoms: C_1  and  C_2
REMARK    2  A    between atoms: C_2  and  C_3
REMARK    3  A    between atoms: C_3  and  C_4
REMARK    4  A    between atoms: C_6  and  C_7
REMARK    5  A    between atoms: C_7  and  N_8
REMARK    6  A    between atoms: N_8  and  C_9
REMARK    7  A    between atoms: N_8  and  C_10
REMARK    8  A    between atoms: N_13  and  C_14
REMARK                            x       y       z     vdW  Elec       q    Type
REMARK                         _______ _______ _______ _____ _____    ______ ____
ROOT
ATOM      1  N   UNL     1       5.591   5.466  15.870  0.00  0.00    +0.000 NA
ATOM      2  C   UNL     1       5.226   6.864  16.107  0.00  0.00    +0.000 C 
ENDROOT
BRANCH   1   3
ATOM      3  C   UNL     1       5.664   4.644  17.095  0.00  0.00    +0.000 C 
ATOM      4  C   UNL     1       5.638   5.435  18.412  0.00  0.00    +0.000 C 
ATOM      5  C   UNL     1       5.219   4.390  19.440  0.00  0.00    +0.000 C 
ATOM      6  N   UNL     1       4.308   3.489  18.726  0.00  0.00    +0.000 N 
ATOM      7  C   UNL     1       4.415   3.739  17.275  0.00  0.00    +0.000 C 
BRANCH   6   8
ATOM      8  C   UNL     1       2.991   3.298  19.149  0.00  0.00    +0.000 A 
ATOM      9  C   UNL     1       2.059   2.504  18.472  0.00  0.00    +0.000 A 
ATOM     10  C   UNL     1       0.750   2.347  18.947  0.00  0.00    +0.000 A 
ATOM     11  C   UNL     1       0.352   2.985  20.121  0.00  0.00    +0.000 A 
ATOM     12  C   UNL     1       1.263   3.766  20.820  0.00  0.00    +0.000 A 
ATOM     13  C   UNL     1       2.571   3.914  20.339  0.00  0.00    +0.000 A 
ENDBRANCH   6   8
ENDBRANCH   1   3
BRANCH   1  14
ATOM     14  C   UNL     1       6.861   5.391  15.108  0.00  0.00    +0.000 C 
BRANCH  14  17
ATOM     15  C   UNL     1       5.866   3.260  12.274  0.00  0.00    +0.000 A 
ATOM     16  C   UNL     1       5.658   3.657  13.574  0.00  0.00    +0.000 A 
ATOM     17  C   UNL     1       6.661   4.620  13.834  0.00  0.00    +0.000 A 
ATOM     18  N   UNL     1       7.464   4.795  12.775  0.00  0.00    +0.000 NA
ATOM     19  N   UNL     1       6.956   3.966  11.847  0.00  0.00    +0.000 N 
ATOM     20  H   UNL     1       7.405   3.935  10.937  0.00  0.00    +0.000 HD
BRANCH  15  21
ATOM     21  C   UNL     1       5.112   2.310  11.412  0.00  0.00    +0.000 C 
BRANCH  21  23
ATOM     22  C   UNL     1       3.730   4.184  10.457  0.00  0.00    +0.000 C 
ATOM     23  C   UNL     1       3.702   2.804  11.095  0.00  0.00    +0.000 C 
ENDBRANCH  21  23
ENDBRANCH  15  21
ENDBRANCH  14  17
ENDBRANCH   1  14
TORSDOF 6
ENDMDL
MODEL 8
REMARK VINA RESULT:      -6.7      1.195      1.458
REMARK  Name = 
REMARK  8 active torsions:
REMARK  status: ('A' for Active; 'I' for Inactive)
REMARK    1  A    between atoms: C_1  and  C_2
REMARK    2  A    between atoms: C_2  and  C_3
REMARK    3  A    between atoms: C_3  and  C_4
REMARK    4  A    between atoms: C_6  and  C_7
REMARK    5  A    between atoms: C_7  and  N_8
REMARK    6  A    between atoms: N_8  and  C_9
REMARK    7  A    between atoms: N_8  and  C_10
REMARK    8  A    between atoms: N_13  and  C_14
REMARK                            x       y       z     vdW  Elec       q    Type
REMARK                         _______ _______ _______ _____ _____    ______ ____
ROOT
ATOM      1  N   UNL     1       6.474   5.659  16.743  0.00  0.00    +0.000 NA
ATOM      2  C   UNL     1       7.244   4.418  16.852  0.00  0.00    +0.000 C 
ENDROOT
BRANCH   1   3
ATOM      3  C   UNL     1       5.724   6.015  17.964  0.00  0.00    +0.000 C 
ATOM      4  C   UNL     1       4.424   6.798  17.726  0.00  0.00    +0.000 C 
ATOM      5  C   UNL     1       3.644   6.584  19.018  0.00  0.00    +0.000 C 
ATOM      6  N   UNL     1       4.001   5.233  19.466  0.00  0.00    +0.000 N 
ATOM      7  C   UNL     1       5.178   4.766  18.708  0.00  0.00    +0.000 C 
BRANCH   6   8
ATOM      8  C   UNL     1       3.033   4.241  19.634  0.00  0.00    +0.000 A 
ATOM      9  C   UNL     1       3.099   2.975  19.042  0.00  0.00    +0.000 A 
ATOM     10  C   UNL     1       2.098   2.018  19.250  0.00  0.00    +0.000 A 
ATOM     11  C   UNL     1       1.007   2.313  20.066  0.00  0.00    +0.000 A 
ATOM     12  C   UNL     1       0.927   3.558  20.679  0.00  0.00    +0.000 A 
ATOM     13  C   UNL     1       1.935   4.507  20.467  0.00  0.00    +0.000 A 
ENDBRANCH   6   8
ENDBRANCH   1   3
BRANCH   1  14
ATOM     14  C   UNL     1       5.570   5.598  15.568  0.00  0.00    +0.000 C 
BRANCH  14  17
ATOM     15  C   UNL     1       6.828   3.732  12.652  0.00  0.00    +0.000 A 
ATOM     16  C   UNL     1       5.874   3.876  13.632  0.00  0.00    +0.000 A 
ATOM     17  C   UNL     1       6.285   4.996  14.391  0.00  0.00    +0.000 A 
ATOM     18  N   UNL     1       7.438   5.506  13.935  0.00  0.00    +0.000 NA
ATOM     19  N   UNL     1       7.739   4.727  12.882  0.00  0.00    +0.000 N 
ATOM     20  H   UNL     1       8.584   4.934  12.360  0.00  0.00    +0.000 HD
BRANCH  15  21
ATOM     21  C   UNL     1       6.930   2.771  11.521  0.00  0.00    +0.000 C 
BRANCH  21  23
ATOM     22  C   UNL     1       6.237   0.381  11.148  0.00  0.00    +0.000 C 
ATOM     23  C   UNL     1       5.764   1.785  11.489  0.00  0.00    +0.000 C 
ENDBRANCH  21  23
ENDBRANCH  15  21
ENDBRANCH  14  17
ENDBRANCH   1  14
TORSDOF 6
ENDMDL
MODEL 9
REMARK VINA RESULT:      -6.7      1.659      2.748
REMARK  Name = 
REMARK  8 active torsions:
REMARK  status: ('A' for Active; 'I' for Inactive)
REMARK    1  A    between atoms: C_1  and  C_2
REMARK    2  A    between atoms: C_2  and  C_3
REMARK    3  A    between atoms: C_3  and  C_4
REMARK    4  A    between atoms: C_6  and  C_7
REMARK    5  A    between atoms: C_7  and  N_8
REMARK    6  A    between atoms: N_8  and  C_9
REMARK    7  A    between atoms: N_8  and  C_10
REMARK    8  A    between atoms: N_13  and  C_14
REMARK                            x       y       z     vdW  Elec       q    Type
REMARK                         _______ _______ _______ _____ _____    ______ ____
ROOT
ATOM      1  N   UNL     1       5.609   4.907  15.380  0.00  0.00    +0.000 NA
ATOM      2  C   UNL     1       5.454   6.362  15.431  0.00  0.00    +0.000 C 
ENDROOT
BRANCH   1   3
ATOM      3  C   UNL     1       5.781   4.270  16.701  0.00  0.00    +0.000 C 
ATOM      4  C   UNL     1       6.136   5.230  17.846  0.00  0.00    +0.000 C 
ATOM      5  C   UNL     1       5.758   4.442  19.095  0.00  0.00    +0.000 C 
ATOM      6  N   UNL     1       4.593   3.639  18.708  0.00  0.00    +0.000 N 
ATOM      7  C   UNL     1       4.460   3.654  17.237  0.00  0.00    +0.000 C 
BRANCH   6   8
ATOM      8  C   UNL     1       3.369   3.766  19.366  0.00  0.00    +0.000 A 
ATOM      9  C   UNL     1       2.973   4.909  20.070  0.00  0.00    +0.000 A 
ATOM     10  C   UNL     1       1.728   4.980  20.709  0.00  0.00    +0.000 A 
ATOM     11  C   UNL     1       0.850   3.899  20.650  0.00  0.00    +0.000 A 
ATOM     12  C   UNL     1       1.213   2.759  19.945  0.00  0.00    +0.000 A 
ATOM     13  C   UNL     1       2.458   2.699  19.305  0.00  0.00    +0.000 A 
ENDBRANCH   6   8
ENDBRANCH   1   3
BRANCH   1  14
ATOM     14  C   UNL     1       6.722   4.544  14.470  0.00  0.00    +0.000 C 
BRANCH  14  17
ATOM     15  C   UNL     1       4.912   3.098  11.606  0.00  0.00    +0.000 A 
ATOM     16  C   UNL     1       4.906   3.933  12.699  0.00  0.00    +0.000 A 
ATOM     17  C   UNL     1       6.196   3.813  13.266  0.00  0.00    +0.000 A 
ATOM     18  N   UNL     1       6.954   2.939  12.590  0.00  0.00    +0.000 NA
ATOM     19  N   UNL     1       6.155   2.528  11.590  0.00  0.00    +0.000 N 
ATOM     20  H   UNL     1       6.526   1.856  10.927  0.00  0.00    +0.000 HD
BRANCH  15  21
ATOM     21  C   UNL     1       3.870   2.827  10.579  0.00  0.00    +0.000 C 
BRANCH  21  23
ATOM     22  C   UNL     1       2.820   4.376   8.897  0.00  0.00    +0.000 C 
ATOM     23  C   UNL     1       2.936   4.017  10.370  0.00  0.00    +0.000 C 
ENDBRANCH  21  23
ENDBRANCH  15  21
ENDBRANCH  14  17
ENDBRANCH   1  14
TORSDOF 6
ENDMDL
