MODEL 1
REMARK VINA RESULT:      -6.8      0.000      0.000
REMARK  Name = 
REMARK  10 active torsions:
REMARK  status: ('A' for Active; 'I' for Inactive)
REMARK    1  A    between atoms: C_1  and  O_2
REMARK    2  A    between atoms: O_2  and  N_3
REMARK    3  A    between atoms: C_4  and  C_5
REMARK    4  A    between atoms: C_4  and  C_25
REMARK    5  A    between atoms: N_7  and  CA_8
REMARK    6  A    between atoms: CA_12  and  C_13
REMARK    7  A    between atoms: C_13  and  OXT_15
REMARK    8  A    between atoms: C_16  and  C_17
REMARK    9  A    between atoms: C_17  and  O_18
REMARK   10  A    between atoms: O_18  and  C_19
REMARK                            x       y       z     vdW  Elec       q    Type
REMARK                         _______ _______ _______ _____ _____    ______ ____
ROOT
ATOM      1  CA  UNL     1       1.489   7.590  19.952  0.00  0.00    +0.000 C 
ATOM      2  C   UNL     1       1.666   8.851  19.028  0.00  0.00    +0.000 C 
ATOM      3  O   UNL     1       2.058   9.120  17.919  0.00  0.00    +0.000 OA
ATOM      4  N   UNL     1       1.163   9.643  19.995  0.00  0.00    +0.000 N 
ATOM      5  CA  UNL     1       0.665  10.911  20.132  0.00  0.00    +0.000 C 
ATOM      6  C   UNL     1       0.008  11.253  21.276  0.00  0.00    +0.000 C 
ATOM      7  C   UNL     1      -0.227  10.305  22.438  0.00  0.00    +0.000 C 
ATOM      8  S   UNL     1      -0.264   8.563  21.951  0.00  0.00    +0.000 S 
ATOM      9  C   UNL     1       1.301   8.672  21.067  0.00  0.00    +0.000 C 
ENDROOT
BRANCH   1  12
ATOM     10  C   UNL     1       3.050   5.852  18.997  0.00  0.00    +0.000 C 
ATOM     11  O   UNL     1       2.435   5.805  17.939  0.00  0.00    +0.000 OA
ATOM     12  N   UNL     1       2.674   6.701  20.029  0.00  0.00    +0.000 N 
ATOM     13  H   UNL     1       3.152   6.588  20.921  0.00  0.00    +0.000 HD
BRANCH  10  15
ATOM     14  N   UNL     1       4.179   3.743  19.825  0.00  0.00    +0.000 NA
ATOM     15  C   UNL     1       4.253   4.926  19.283  0.00  0.00    +0.000 C 
BRANCH  15  16
ATOM     16  C   UNL     1       5.568   5.414  18.920  0.00  0.00    +0.000 A 
ATOM     17  C   UNL     1       6.000   6.127  17.816  0.00  0.00    +0.000 A 
ATOM     18  C   UNL     1       7.386   6.356  17.988  0.00  0.00    +0.000 A 
ATOM     19  C   UNL     1       7.725   5.771  19.183  0.00  0.00    +0.000 A 
ATOM     20  O   UNL     1       6.636   5.200  19.754  0.00  0.00    +0.000 OA
ENDBRANCH  15  16
BRANCH  14  22
ATOM     21  C   UNL     1       2.489   2.299  19.284  0.00  0.00    +0.000 C 
ATOM     22  O   UNL     1       2.872   3.367  20.148  0.00  0.00    +0.000 OA
ENDBRANCH  14  22
ENDBRANCH  10  15
ENDBRANCH   1  12
BRANCH   5  23
ATOM     23  C   UNL     1       0.764  11.896  18.987  0.00  0.00    +0.000 C 
ATOM     24  O   UNL     1       1.585  12.803  18.936  0.00  0.00    +0.000 OA
BRANCH  23  25
ATOM     25  OXT UNL     1      -0.079  11.681  17.958  0.00  0.00    +0.000 OA
ATOM     26  HXT UNL     1      -0.898  12.219  17.953  0.00  0.00    +0.000 HD
ENDBRANCH  23  25
ENDBRANCH   5  23
BRANCH   6  27
ATOM     27  C   UNL     1      -0.640  12.604  21.541  0.00  0.00    +0.000 C 
BRANCH  27  28
ATOM     28  O   UNL     1       0.123  13.396  22.459  0.00  0.00    +0.000 OA
BRANCH  28  29
ATOM     29  C   UNL     1       0.865  14.374  21.907  0.00  0.00    +0.000 C 
ATOM     30  N   UNL     1       0.213  14.903  20.851  0.00  0.00    +0.000 N 
ATOM     31  O   UNL     1       1.967  14.746  22.277  0.00  0.00    +0.000 OA
ATOM     32  H   UNL     1      -0.711  14.571  20.615  0.00  0.00    +0.000 HD
ATOM     33  H   UNL     1       0.639  15.656  20.333  0.00  0.00    +0.000 HD
ENDBRANCH  28  29
ENDBRANCH  27  28
ENDBRANCH   6  27
TORSDOF 9
ENDMDL
MODEL 2
REMARK VINA RESULT:      -6.8      1.383      1.528
REMARK  Name = 
REMARK  10 active torsions:
REMARK  status: ('A' for Active; 'I' for Inactive)
REMARK    1  A    between atoms: C_1  and  O_2
REMARK    2  A    between atoms: O_2  and  N_3
REMARK    3  A    between atoms: C_4  and  C_5
REMARK    4  A    between atoms: C_4  and  C_25
REMARK    5  A    between atoms: N_7  and  CA_8
REMARK    6  A    between atoms: CA_12  and  C_13
REMARK    7  A    between atoms: C_13  and  OXT_15
REMARK    8  A    between atoms: C_16  and  C_17
REMARK    9  A    between atoms: C_17  and  O_18
REMARK   10  A    between atoms: O_18  and  C_19
REMARK                            x       y       z     vdW  Elec       q    Type
REMARK                         _______ _______ _______ _____ _____    ______ ____
ROOT
ATOM      1  CA  UNL     1       1.729   7.333  19.679  0.00  0.00    +0.000 C 
ATOM      2  C   UNL     1       1.836   8.640  18.808  0.00  0.00    +0.000 C 
ATOM      3  O   UNL     1       2.197   8.973  17.707  0.00  0.00    +0.000 OA
ATOM      4  N   UNL     1       1.315   9.366  19.817  0.00  0.00    +0.000 N 
ATOM      5  CA  UNL     1       0.766  10.604  20.017  0.00  0.00    +0.000 C 
ATOM      6  C   UNL     1       0.114  10.867  21.185  0.00  0.00    +0.000 C 
ATOM      7  C   UNL     1      -0.060   9.859  22.308  0.00  0.00    +0.000 C 
ATOM      8  S   UNL     1      -0.030   8.140  21.745  0.00  0.00    +0.000 S 
ATOM      9  C   UNL     1       1.514   8.356  20.844  0.00  0.00    +0.000 C 
ENDROOT
BRANCH   1  12
ATOM     10  C   UNL     1       3.209   5.510  18.755  0.00  0.00    +0.000 C 
ATOM     11  O   UNL     1       2.446   5.289  17.824  0.00  0.00    +0.000 OA
ATOM     12  N   UNL     1       2.953   6.495  19.699  0.00  0.00    +0.000 N 
ATOM     13  H   UNL     1       3.564   6.528  20.513  0.00  0.00    +0.000 HD
BRANCH  10  15
ATOM     14  N   UNL     1       4.503   3.410  19.326  0.00  0.00    +0.000 NA
ATOM     15  C   UNL     1       4.484   4.667  18.981  0.00  0.00    +0.000 C 
BRANCH  15  16
ATOM     16  C   UNL     1       5.760   5.328  18.797  0.00  0.00    +0.000 A 
ATOM     17  C   UNL     1       6.197   6.201  17.817  0.00  0.00    +0.000 A 
ATOM     18  C   UNL     1       7.528   6.555  18.142  0.00  0.00    +0.000 A 
ATOM     19  C   UNL     1       7.831   5.880  19.299  0.00  0.00    +0.000 A 
ATOM     20  O   UNL     1       6.772   5.137  19.703  0.00  0.00    +0.000 OA
ENDBRANCH  15  16
BRANCH  14  22
ATOM     21  C   UNL     1       3.090   1.768  18.588  0.00  0.00    +0.000 C 
ATOM     22  O   UNL     1       3.225   2.865  19.488  0.00  0.00    +0.000 OA
ENDBRANCH  14  22
ENDBRANCH  10  15
ENDBRANCH   1  12
BRANCH   5  23
ATOM     23  C   UNL     1       0.801  11.640  18.915  0.00  0.00    +0.000 C 
ATOM     24  O   UNL     1       1.729  12.421  18.743  0.00  0.00    +0.000 OA
BRANCH  23  25
ATOM     25  OXT UNL     1      -0.241  11.622  18.062  0.00  0.00    +0.000 OA
ATOM     26  HXT UNL     1      -0.841  10.850  18.131  0.00  0.00    +0.000 HD
ENDBRANCH  23  25
ENDBRANCH   5  23
BRANCH   6  27
ATOM     27  C   UNL     1      -0.588  12.175  21.519  0.00  0.00    +0.000 C 
BRANCH  27  28
ATOM     28  O   UNL     1      -1.986  12.129  21.209  0.00  0.00    +0.000 OA
BRANCH  28  29
ATOM     29  C   UNL     1      -2.439  13.116  20.414  0.00  0.00    +0.000 C 
ATOM     30  N   UNL     1      -2.838  12.606  19.231  0.00  0.00    +0.000 N 
ATOM     31  O   UNL     1      -2.488  14.305  20.690  0.00  0.00    +0.000 OA
ATOM     32  H   UNL     1      -2.799  11.608  19.077  0.00  0.00    +0.000 HD
ATOM     33  H   UNL     1      -3.210  13.224  18.526  0.00  0.00    +0.000 HD
ENDBRANCH  28  29
ENDBRANCH  27  28
ENDBRANCH   6  27
TORSDOF 9
ENDMDL
MODEL 3
REMARK VINA RESULT:      -6.8      1.368      1.672
REMARK  Name = 
REMARK  10 active torsions:
REMARK  status: ('A' for Active; 'I' for Inactive)
REMARK    1  A    between atoms: C_1  and  O_2
REMARK    2  A    between atoms: O_2  and  N_3
REMARK    3  A    between atoms: C_4  and  C_5
REMARK    4  A    between atoms: C_4  and  C_25
REMARK    5  A    between atoms: N_7  and  CA_8
REMARK    6  A    between atoms: CA_12  and  C_13
REMARK    7  A    between atoms: C_13  and  OXT_15
REMARK    8  A    between atoms: C_16  and  C_17
REMARK    9  A    between atoms: C_17  and  O_18
REMARK   10  A    between atoms: O_18  and  C_19
REMARK                            x       y       z     vdW  Elec       q    Type
REMARK                         _______ _______ _______ _____ _____    ______ ____
ROOT
ATOM      1  CA  UNL     1       1.538   7.536  19.968  0.00  0.00    +0.000 C 
ATOM      2  C   UNL     1       1.728   8.845  19.117  0.00  0.00    +0.000 C 
ATOM      3  O   UNL     1       2.139   9.174  18.031  0.00  0.00    +0.000 OA
ATOM      4  N   UNL     1       1.204   9.583  20.116  0.00  0.00    +0.000 N 
ATOM      5  CA  UNL     1       0.699  10.840  20.311  0.00  0.00    +0.000 C 
ATOM      6  C   UNL     1       0.020  11.119  21.459  0.00  0.00    +0.000 C 
ATOM      7  C   UNL     1      -0.233  10.108  22.565  0.00  0.00    +0.000 C 
ATOM      8  S   UNL     1      -0.255   8.395  21.984  0.00  0.00    +0.000 S 
ATOM      9  C   UNL     1       1.326   8.555  21.137  0.00  0.00    +0.000 C 
ENDROOT
BRANCH   1  12
ATOM     10  C   UNL     1       3.101   5.828  18.964  0.00  0.00    +0.000 C 
ATOM     11  O   UNL     1       2.486   5.809  17.906  0.00  0.00    +0.000 OA
ATOM     12  N   UNL     1       2.725   6.647  20.019  0.00  0.00    +0.000 N 
ATOM     13  H   UNL     1       3.203   6.509  20.908  0.00  0.00    +0.000 HD
BRANCH  10  15
ATOM     14  N   UNL     1       4.232   3.689  19.708  0.00  0.00    +0.000 NA
ATOM     15  C   UNL     1       4.306   4.896  19.223  0.00  0.00    +0.000 C 
BRANCH  15  16
ATOM     16  C   UNL     1       5.623   5.408  18.901  0.00  0.00    +0.000 A 
ATOM     17  C   UNL     1       6.079   6.115  17.803  0.00  0.00    +0.000 A 
ATOM     18  C   UNL     1       7.453   6.377  18.021  0.00  0.00    +0.000 A 
ATOM     19  C   UNL     1       7.760   5.816  19.236  0.00  0.00    +0.000 A 
ATOM     20  O   UNL     1       6.663   5.230  19.776  0.00  0.00    +0.000 OA
ENDBRANCH  15  16
BRANCH  14  22
ATOM     21  C   UNL     1       2.605   2.173  19.170  0.00  0.00    +0.000 C 
ATOM     22  O   UNL     1       2.923   3.291  19.995  0.00  0.00    +0.000 OA
ENDBRANCH  14  22
ENDBRANCH  10  15
ENDBRANCH   1  12
BRANCH   5  23
ATOM     23  C   UNL     1       0.815  11.885  19.223  0.00  0.00    +0.000 C 
ATOM     24  O   UNL     1       1.728  12.699  19.153  0.00  0.00    +0.000 OA
BRANCH  23  25
ATOM     25  OXT UNL     1      -0.129  11.836  18.263  0.00  0.00    +0.000 OA
ATOM     26  HXT UNL     1      -0.902  12.426  18.388  0.00  0.00    +0.000 HD
ENDBRANCH  23  25
ENDBRANCH   5  23
BRANCH   6  27
ATOM     27  C   UNL     1      -0.638  12.452  21.785  0.00  0.00    +0.000 C 
BRANCH  27  28
ATOM     28  O   UNL     1      -1.437  12.381  22.972  0.00  0.00    +0.000 OA
BRANCH  28  29
ATOM     29  C   UNL     1      -2.749  12.634  22.807  0.00  0.00    +0.000 C 
ATOM     30  N   UNL     1      -3.462  11.994  23.757  0.00  0.00    +0.000 N 
ATOM     31  O   UNL     1      -3.251  13.327  21.936  0.00  0.00    +0.000 OA
ATOM     32  H   UNL     1      -2.983  11.459  24.468  0.00  0.00    +0.000 HD
ATOM     33  H   UNL     1      -4.466  12.090  23.770  0.00  0.00    +0.000 HD
ENDBRANCH  28  29
ENDBRANCH  27  28
ENDBRANCH   6  27
TORSDOF 9
ENDMDL
MODEL 4
REMARK VINA RESULT:      -6.5      1.133      1.308
REMARK  Name = 
REMARK  10 active torsions:
REMARK  status: ('A' for Active; 'I' for Inactive)
REMARK    1  A    between atoms: C_1  and  O_2
REMARK    2  A    between atoms: O_2  and  N_3
REMARK    3  A    between atoms: C_4  and  C_5
REMARK    4  A    between atoms: C_4  and  C_25
REMARK    5  A    between atoms: N_7  and  CA_8
REMARK    6  A    between atoms: CA_12  and  C_13
REMARK    7  A    between atoms: C_13  and  OXT_15
REMARK    8  A    between atoms: C_16  and  C_17
REMARK    9  A    between atoms: C_17  and  O_18
REMARK   10  A    between atoms: O_18  and  C_19
REMARK                            x       y       z     vdW  Elec       q    Type
REMARK                         _______ _______ _______ _____ _____    ______ ____
ROOT
ATOM      1  CA  UNL     1       1.404   7.757  19.966  0.00  0.00    +0.000 C 
ATOM      2  C   UNL     1       1.655   9.034  19.081  0.00  0.00    +0.000 C 
ATOM      3  O   UNL     1       2.081   9.315  17.988  0.00  0.00    +0.000 OA
ATOM      4  N   UNL     1       1.166   9.821  20.059  0.00  0.00    +0.000 N 
ATOM      5  CA  UNL     1       0.720  11.105  20.221  0.00  0.00    +0.000 C 
ATOM      6  C   UNL     1       0.054  11.445  21.361  0.00  0.00    +0.000 C 
ATOM      7  C   UNL     1      -0.246  10.476  22.491  0.00  0.00    +0.000 C 
ATOM      8  S   UNL     1      -0.347   8.751  21.956  0.00  0.00    +0.000 S 
ATOM      9  C   UNL     1       1.240   8.816  21.107  0.00  0.00    +0.000 C 
ENDROOT
BRANCH   1  12
ATOM     10  C   UNL     1       2.900   5.968  19.001  0.00  0.00    +0.000 C 
ATOM     11  O   UNL     1       2.297   5.965  17.936  0.00  0.00    +0.000 OA
ATOM     12  N   UNL     1       2.549   6.816  20.042  0.00  0.00    +0.000 N 
ATOM     13  H   UNL     1       3.010   6.668  20.938  0.00  0.00    +0.000 HD
BRANCH  10  15
ATOM     14  N   UNL     1       3.926   3.799  19.808  0.00  0.00    +0.000 NA
ATOM     15  C   UNL     1       4.059   4.986  19.286  0.00  0.00    +0.000 C 
BRANCH  15  16
ATOM     16  C   UNL     1       5.398   5.421  18.945  0.00  0.00    +0.000 A 
ATOM     17  C   UNL     1       5.874   6.124  17.853  0.00  0.00    +0.000 A 
ATOM     18  C   UNL     1       7.266   6.294  18.046  0.00  0.00    +0.000 A 
ATOM     19  C   UNL     1       7.563   5.686  19.240  0.00  0.00    +0.000 A 
ATOM     20  O   UNL     1       6.444   5.157  19.791  0.00  0.00    +0.000 OA
ENDBRANCH  15  16
BRANCH  14  22
ATOM     21  C   UNL     1       2.534   3.100  21.484  0.00  0.00    +0.000 C 
ATOM     22  O   UNL     1       2.600   3.476  20.110  0.00  0.00    +0.000 OA
ENDBRANCH  14  22
ENDBRANCH  10  15
ENDBRANCH   1  12
BRANCH   5  23
ATOM     23  C   UNL     1       0.884  12.115  19.106  0.00  0.00    +0.000 C 
ATOM     24  O   UNL     1       1.900  12.776  18.928  0.00  0.00    +0.000 OA
BRANCH  23  25
ATOM     25  OXT UNL     1      -0.149  12.210  18.247  0.00  0.00    +0.000 OA
ATOM     26  HXT UNL     1      -0.479  13.115  18.068  0.00  0.00    +0.000 HD
ENDBRANCH  23  25
ENDBRANCH   5  23
BRANCH   6  27
ATOM     27  C   UNL     1      -0.542  12.814  21.650  0.00  0.00    +0.000 C 
BRANCH  27  28
ATOM     28  O   UNL     1      -1.708  13.071  20.858  0.00  0.00    +0.000 OA
BRANCH  28  29
ATOM     29  C   UNL     1      -2.013  14.369  20.674  0.00  0.00    +0.000 C 
ATOM     30  N   UNL     1      -1.494  14.800  19.505  0.00  0.00    +0.000 N 
ATOM     31  O   UNL     1      -2.655  15.079  21.432  0.00  0.00    +0.000 OA
ATOM     32  H   UNL     1      -0.998  14.153  18.908  0.00  0.00    +0.000 HD
ATOM     33  H   UNL     1      -1.642  15.756  19.221  0.00  0.00    +0.000 HD
ENDBRANCH  28  29
ENDBRANCH  27  28
ENDBRANCH   6  27
TORSDOF 9
ENDMDL
MODEL 5
REMARK VINA RESULT:      -6.5      1.621      1.927
REMARK  Name = 
REMARK  10 active torsions:
REMARK  status: ('A' for Active; 'I' for Inactive)
REMARK    1  A    between atoms: C_1  and  O_2
REMARK    2  A    between atoms: O_2  and  N_3
REMARK    3  A    between atoms: C_4  and  C_5
REMARK    4  A    between atoms: C_4  and  C_25
REMARK    5  A    between atoms: N_7  and  CA_8
REMARK    6  A    between atoms: CA_12  and  C_13
REMARK    7  A    between atoms: C_13  and  OXT_15
REMARK    8  A    between atoms: C_16  and  C_17
REMARK    9  A    between atoms: C_17  and  O_18
REMARK   10  A    between atoms: O_18  and  C_19
REMARK                            x       y       z     vdW  Elec       q    Type
REMARK                         _______ _______ _______ _____ _____    ______ ____
ROOT
ATOM      1  CA  UNL     1       1.959   7.184  19.012  0.00  0.00    +0.000 C 
ATOM      2  C   UNL     1       1.933   8.588  18.301  0.00  0.00    +0.000 C 
ATOM      3  O   UNL     1       2.137   9.059  17.210  0.00  0.00    +0.000 OA
ATOM      4  N   UNL     1       1.546   9.174  19.451  0.00  0.00    +0.000 N 
ATOM      5  CA  UNL     1       1.014  10.364  19.871  0.00  0.00    +0.000 C 
ATOM      6  C   UNL     1       0.524  10.468  21.139  0.00  0.00    +0.000 C 
ATOM      7  C   UNL     1       0.515   9.330  22.144  0.00  0.00    +0.000 C 
ATOM      8  S   UNL     1       0.487   7.691  21.377  0.00  0.00    +0.000 S 
ATOM      9  C   UNL     1       1.892   8.055  20.311  0.00  0.00    +0.000 C 
ENDROOT
BRANCH   1  12
ATOM     10  C   UNL     1       3.550   5.302  19.557  0.00  0.00    +0.000 C 
ATOM     11  O   UNL     1       2.863   4.924  20.497  0.00  0.00    +0.000 OA
ATOM     12  N   UNL     1       3.184   6.383  18.767  0.00  0.00    +0.000 N 
ATOM     13  H   UNL     1       3.868   6.718  18.091  0.00  0.00    +0.000 HD
BRANCH  10  15
ATOM     14  N   UNL     1       5.160   3.365  19.301  0.00  0.00    +0.000 NA
ATOM     15  C   UNL     1       4.904   4.641  19.218  0.00  0.00    +0.000 C 
BRANCH  15  16
ATOM     16  C   UNL     1       5.975   5.509  18.773  0.00  0.00    +0.000 A 
ATOM     17  C   UNL     1       7.256   5.696  19.261  0.00  0.00    +0.000 A 
ATOM     18  C   UNL     1       7.882   6.652  18.427  0.00  0.00    +0.000 A 
ATOM     19  C   UNL     1       6.952   6.998  17.478  0.00  0.00    +0.000 A 
ATOM     20  O   UNL     1       5.798   6.315  17.677  0.00  0.00    +0.000 OA
ENDBRANCH  15  16
BRANCH  14  22
ATOM     21  C   UNL     1       3.656   1.753  18.689  0.00  0.00    +0.000 C 
ATOM     22  O   UNL     1       4.069   2.613  19.747  0.00  0.00    +0.000 OA
ENDBRANCH  14  22
ENDBRANCH  10  15
ENDBRANCH   1  12
BRANCH   5  23
ATOM     23  C   UNL     1       0.890  11.525  18.909  0.00  0.00    +0.000 C 
ATOM     24  O   UNL     1       1.758  12.374  18.748  0.00  0.00    +0.000 OA
BRANCH  23  25
ATOM     25  OXT UNL     1      -0.232  11.547  18.162  0.00  0.00    +0.000 OA
ATOM     26  HXT UNL     1      -0.423  10.735  17.648  0.00  0.00    +0.000 HD
ENDBRANCH  23  25
ENDBRANCH   5  23
BRANCH   6  27
ATOM     27  C   UNL     1      -0.140  11.708  21.720  0.00  0.00    +0.000 C 
BRANCH  27  28
ATOM     28  O   UNL     1      -0.761  11.442  22.983  0.00  0.00    +0.000 OA
BRANCH  28  29
ATOM     29  C   UNL     1      -1.866  12.162  23.252  0.00  0.00    +0.000 C 
ATOM     30  N   UNL     1      -1.577  13.479  23.205  0.00  0.00    +0.000 N 
ATOM     31  O   UNL     1      -2.974  11.722  23.511  0.00  0.00    +0.000 OA
ATOM     32  H   UNL     1      -0.645  13.779  22.954  0.00  0.00    +0.000 HD
ATOM     33  H   UNL     1      -2.307  14.152  23.379  0.00  0.00    +0.000 HD
ENDBRANCH  28  29
ENDBRANCH  27  28
ENDBRANCH   6  27
TORSDOF 9
ENDMDL
MODEL 6
REMARK VINA RESULT:      -6.4      2.405      3.034
REMARK  Name = 
REMARK  10 active torsions:
REMARK  status: ('A' for Active; 'I' for Inactive)
REMARK    1  A    between atoms: C_1  and  O_2
REMARK    2  A    between atoms: O_2  and  N_3
REMARK    3  A    between atoms: C_4  and  C_5
REMARK    4  A    between atoms: C_4  and  C_25
REMARK    5  A    between atoms: N_7  and  CA_8
REMARK    6  A    between atoms: CA_12  and  C_13
REMARK    7  A    between atoms: C_13  and  OXT_15
REMARK    8  A    between atoms: C_16  and  C_17
REMARK    9  A    between atoms: C_17  and  O_18
REMARK   10  A    between atoms: O_18  and  C_19
REMARK                            x       y       z     vdW  Elec       q    Type
REMARK                         _______ _______ _______ _____ _____    ______ ____
ROOT
ATOM      1  CA  UNL     1       2.632   7.918  18.849  0.00  0.00    +0.000 C 
ATOM      2  C   UNL     1       1.871   7.702  20.209  0.00  0.00    +0.000 C 
ATOM      3  O   UNL     1       1.882   6.946  21.149  0.00  0.00    +0.000 OA
ATOM      4  N   UNL     1       1.107   8.785  19.965  0.00  0.00    +0.000 N 
ATOM      5  CA  UNL     1       0.261   9.621  20.642  0.00  0.00    +0.000 C 
ATOM      6  C   UNL     1      -0.135  10.789  20.060  0.00  0.00    +0.000 C 
ATOM      7  C   UNL     1       0.313  11.248  18.683  0.00  0.00    +0.000 C 
ATOM      8  S   UNL     1       1.917  10.575  18.185  0.00  0.00    +0.000 S 
ATOM      9  C   UNL     1       1.434   8.880  18.552  0.00  0.00    +0.000 C 
ENDROOT
BRANCH   1  12
ATOM     10  C   UNL     1       3.644   5.663  18.335  0.00  0.00    +0.000 C 
ATOM     11  O   UNL     1       4.329   5.681  19.350  0.00  0.00    +0.000 OA
ATOM     12  N   UNL     1       2.777   6.699  18.015  0.00  0.00    +0.000 N 
ATOM     13  H   UNL     1       2.343   6.674  17.094  0.00  0.00    +0.000 HD
BRANCH  10  15
ATOM     14  N   UNL     1       2.816   3.620  17.090  0.00  0.00    +0.000 NA
ATOM     15  C   UNL     1       3.740   4.515  17.306  0.00  0.00    +0.000 C 
BRANCH  15  16
ATOM     16  C   UNL     1       4.953   4.426  16.520  0.00  0.00    +0.000 A 
ATOM     17  C   UNL     1       5.147   4.362  15.152  0.00  0.00    +0.000 A 
ATOM     18  C   UNL     1       6.544   4.309  14.933  0.00  0.00    +0.000 A 
ATOM     19  C   UNL     1       7.126   4.343  16.176  0.00  0.00    +0.000 A 
ATOM     20  O   UNL     1       6.176   4.414  17.141  0.00  0.00    +0.000 OA
ENDBRANCH  15  16
BRANCH  14  22
ATOM     21  C   UNL     1       1.435   2.550  18.567  0.00  0.00    +0.000 C 
ATOM     22  O   UNL     1       1.690   3.785  17.903  0.00  0.00    +0.000 OA
ENDBRANCH  14  22
ENDBRANCH  10  15
ENDBRANCH   1  12
BRANCH   5  23
ATOM     23  C   UNL     1      -0.159   9.297  22.059  0.00  0.00    +0.000 C 
ATOM     24  O   UNL     1      -0.942   8.401  22.350  0.00  0.00    +0.000 OA
BRANCH  23  25
ATOM     25  OXT UNL     1       0.439  10.020  23.025  0.00  0.00    +0.000 OA
ATOM     26  HXT UNL     1       1.296   9.676  23.353  0.00  0.00    +0.000 HD
ENDBRANCH  23  25
ENDBRANCH   5  23
BRANCH   6  27
ATOM     27  C   UNL     1      -1.025  11.835  20.715  0.00  0.00    +0.000 C 
BRANCH  27  28
ATOM     28  O   UNL     1      -0.266  12.804  21.447  0.00  0.00    +0.000 OA
BRANCH  28  29
ATOM     29  C   UNL     1      -0.755  13.134  22.657  0.00  0.00    +0.000 C 
ATOM     30  N   UNL     1      -0.580  14.453  22.878  0.00  0.00    +0.000 N 
ATOM     31  O   UNL     1      -1.278  12.377  23.459  0.00  0.00    +0.000 OA
ATOM     32  H   UNL     1      -0.167  15.031  22.160  0.00  0.00    +0.000 HD
ATOM     33  H   UNL     1      -0.902  14.856  23.745  0.00  0.00    +0.000 HD
ENDBRANCH  28  29
ENDBRANCH  27  28
ENDBRANCH   6  27
TORSDOF 9
ENDMDL
MODEL 7
REMARK VINA RESULT:      -6.4      1.620      1.743
REMARK  Name = 
REMARK  10 active torsions:
REMARK  status: ('A' for Active; 'I' for Inactive)
REMARK    1  A    between atoms: C_1  and  O_2
REMARK    2  A    between atoms: O_2  and  N_3
REMARK    3  A    between atoms: C_4  and  C_5
REMARK    4  A    between atoms: C_4  and  C_25
REMARK    5  A    between atoms: N_7  and  CA_8
REMARK    6  A    between atoms: CA_12  and  C_13
REMARK    7  A    between atoms: C_13  and  OXT_15
REMARK    8  A    between atoms: C_16  and  C_17
REMARK    9  A    between atoms: C_17  and  O_18
REMARK   10  A    between atoms: O_18  and  C_19
REMARK                            x       y       z     vdW  Elec       q    Type
REMARK                         _______ _______ _______ _____ _____    ______ ____
ROOT
ATOM      1  CA  UNL     1       1.951   7.243  19.014  0.00  0.00    +0.000 C 
ATOM      2  C   UNL     1       1.921   8.621  18.254  0.00  0.00    +0.000 C 
ATOM      3  O   UNL     1       2.116   9.053  17.145  0.00  0.00    +0.000 OA
ATOM      4  N   UNL     1       1.548   9.249  19.386  0.00  0.00    +0.000 N 
ATOM      5  CA  UNL     1       1.024  10.455  19.769  0.00  0.00    +0.000 C 
ATOM      6  C   UNL     1       0.548  10.605  21.037  0.00  0.00    +0.000 C 
ATOM      7  C   UNL     1       0.545   9.503  22.082  0.00  0.00    +0.000 C 
ATOM      8  S   UNL     1       0.505   7.839  21.374  0.00  0.00    +0.000 S 
ATOM      9  C   UNL     1       1.900   8.160  20.282  0.00  0.00    +0.000 C 
ENDROOT
BRANCH   1  12
ATOM     10  C   UNL     1       3.511   5.340  19.575  0.00  0.00    +0.000 C 
ATOM     11  O   UNL     1       2.805   4.965  20.501  0.00  0.00    +0.000 OA
ATOM     12  N   UNL     1       3.171   6.430  18.785  0.00  0.00    +0.000 N 
ATOM     13  H   UNL     1       3.870   6.761  18.122  0.00  0.00    +0.000 HD
BRANCH  10  15
ATOM     14  N   UNL     1       5.111   3.390  19.358  0.00  0.00    +0.000 NA
ATOM     15  C   UNL     1       4.864   4.666  19.255  0.00  0.00    +0.000 C 
BRANCH  15  16
ATOM     16  C   UNL     1       5.943   5.522  18.805  0.00  0.00    +0.000 A 
ATOM     17  C   UNL     1       7.220   5.711  19.303  0.00  0.00    +0.000 A 
ATOM     18  C   UNL     1       7.859   6.649  18.458  0.00  0.00    +0.000 A 
ATOM     19  C   UNL     1       6.940   6.983  17.494  0.00  0.00    +0.000 A 
ATOM     20  O   UNL     1       5.781   6.308  17.693  0.00  0.00    +0.000 OA
ENDBRANCH  15  16
BRANCH  14  22
ATOM     21  C   UNL     1       3.632   1.745  18.776  0.00  0.00    +0.000 C 
ATOM     22  O   UNL     1       4.012   2.652  19.808  0.00  0.00    +0.000 OA
ENDBRANCH  14  22
ENDBRANCH  10  15
ENDBRANCH   1  12
BRANCH   5  23
ATOM     23  C   UNL     1       0.893  11.581  18.768  0.00  0.00    +0.000 C 
ATOM     24  O   UNL     1       1.744  12.446  18.598  0.00  0.00    +0.000 OA
BRANCH  23  25
ATOM     25  OXT UNL     1      -0.211  11.551  17.997  0.00  0.00    +0.000 OA
ATOM     26  HXT UNL     1      -0.591  10.665  17.822  0.00  0.00    +0.000 HD
ENDBRANCH  23  25
ENDBRANCH   5  23
BRANCH   6  27
ATOM     27  C   UNL     1      -0.107  11.867  21.581  0.00  0.00    +0.000 C 
BRANCH  27  28
ATOM     28  O   UNL     1      -1.504  11.924  21.269  0.00  0.00    +0.000 OA
BRANCH  28  29
ATOM     29  C   UNL     1      -1.920  13.051  20.661  0.00  0.00    +0.000 C 
ATOM     30  N   UNL     1      -2.600  12.742  19.538  0.00  0.00    +0.000 N 
ATOM     31  O   UNL     1      -1.722  14.194  21.040  0.00  0.00    +0.000 OA
ATOM     32  H   UNL     1      -2.755  11.774  19.296  0.00  0.00    +0.000 HD
ATOM     33  H   UNL     1      -2.982  13.484  18.972  0.00  0.00    +0.000 HD
ENDBRANCH  28  29
ENDBRANCH  27  28
ENDBRANCH   6  27
TORSDOF 9
ENDMDL
MODEL 8
REMARK VINA RESULT:      -6.4      2.689      3.354
REMARK  Name = 
REMARK  10 active torsions:
REMARK  status: ('A' for Active; 'I' for Inactive)
REMARK    1  A    between atoms: C_1  and  O_2
REMARK    2  A    between atoms: O_2  and  N_3
REMARK    3  A    between atoms: C_4  and  C_5
REMARK    4  A    between atoms: C_4  and  C_25
REMARK    5  A    between atoms: N_7  and  CA_8
REMARK    6  A    between atoms: CA_12  and  C_13
REMARK    7  A    between atoms: C_13  and  OXT_15
REMARK    8  A    between atoms: C_16  and  C_17
REMARK    9  A    between atoms: C_17  and  O_18
REMARK   10  A    between atoms: O_18  and  C_19
REMARK                            x       y       z     vdW  Elec       q    Type
REMARK                         _______ _______ _______ _____ _____    ______ ____
ROOT
ATOM      1  CA  UNL     1       2.385   8.133  19.010  0.00  0.00    +0.000 C 
ATOM      2  C   UNL     1       1.658   7.943  20.393  0.00  0.00    +0.000 C 
ATOM      3  O   UNL     1       1.684   7.197  21.341  0.00  0.00    +0.000 OA
ATOM      4  N   UNL     1       0.903   9.034  20.157  0.00  0.00    +0.000 N 
ATOM      5  CA  UNL     1       0.088   9.890  20.848  0.00  0.00    +0.000 C 
ATOM      6  C   UNL     1      -0.306  11.057  20.264  0.00  0.00    +0.000 C 
ATOM      7  C   UNL     1       0.110  11.494  18.870  0.00  0.00    +0.000 C 
ATOM      8  S   UNL     1       1.690  10.793  18.336  0.00  0.00    +0.000 S 
ATOM      9  C   UNL     1       1.193   9.109  18.735  0.00  0.00    +0.000 C 
ENDROOT
BRANCH   1  12
ATOM     10  C   UNL     1       3.387   5.881  18.465  0.00  0.00    +0.000 C 
ATOM     11  O   UNL     1       4.135   5.921  19.433  0.00  0.00    +0.000 OA
ATOM     12  N   UNL     1       2.489   6.903  18.187  0.00  0.00    +0.000 N 
ATOM     13  H   UNL     1       1.997   6.860  17.296  0.00  0.00    +0.000 HD
BRANCH  10  15
ATOM     14  N   UNL     1       2.536   3.773  17.351  0.00  0.00    +0.000 NA
ATOM     15  C   UNL     1       3.428   4.718  17.449  0.00  0.00    +0.000 C 
BRANCH  15  16
ATOM     16  C   UNL     1       4.550   4.676  16.533  0.00  0.00    +0.000 A 
ATOM     17  C   UNL     1       5.205   5.685  15.851  0.00  0.00    +0.000 A 
ATOM     18  C   UNL     1       6.246   5.077  15.111  0.00  0.00    +0.000 A 
ATOM     19  C   UNL     1       6.170   3.733  15.379  0.00  0.00    +0.000 A 
ATOM     20  O   UNL     1       5.151   3.479  16.236  0.00  0.00    +0.000 OA
ENDBRANCH  15  16
BRANCH  14  22
ATOM     21  C   UNL     1       1.108   2.587  18.690  0.00  0.00    +0.000 C 
ATOM     22  O   UNL     1       1.500   3.896  18.283  0.00  0.00    +0.000 OA
ENDBRANCH  14  22
ENDBRANCH  10  15
ENDBRANCH   1  12
BRANCH   5  23
ATOM     23  C   UNL     1      -0.297   9.587  22.279  0.00  0.00    +0.000 C 
ATOM     24  O   UNL     1      -0.078  10.342  23.219  0.00  0.00    +0.000 OA
BRANCH  23  25
ATOM     25  OXT UNL     1      -0.976   8.439  22.471  0.00  0.00    +0.000 OA
ATOM     26  HXT UNL     1      -1.042   7.844  21.695  0.00  0.00    +0.000 HD
ENDBRANCH  23  25
ENDBRANCH   5  23
BRANCH   6  27
ATOM     27  C   UNL     1      -1.163  12.123  20.931  0.00  0.00    +0.000 C 
BRANCH  27  28
ATOM     28  O   UNL     1      -2.327  12.438  20.157  0.00  0.00    +0.000 OA
BRANCH  28  29
ATOM     29  C   UNL     1      -3.404  12.836  20.860  0.00  0.00    +0.000 C 
ATOM     30  N   UNL     1      -4.234  13.542  20.066  0.00  0.00    +0.000 N 
ATOM     31  O   UNL     1      -3.623  12.614  22.040  0.00  0.00    +0.000 OA
ATOM     32  H   UNL     1      -4.010  13.665  19.089  0.00  0.00    +0.000 HD
ATOM     33  H   UNL     1      -5.094  13.906  20.448  0.00  0.00    +0.000 HD
ENDBRANCH  28  29
ENDBRANCH  27  28
ENDBRANCH   6  27
TORSDOF 9
ENDMDL
MODEL 9
REMARK VINA RESULT:      -6.3      2.899      8.873
REMARK  Name = 
REMARK  10 active torsions:
REMARK  status: ('A' for Active; 'I' for Inactive)
REMARK    1  A    between atoms: C_1  and  O_2
REMARK    2  A    between atoms: O_2  and  N_3
REMARK    3  A    between atoms: C_4  and  C_5
REMARK    4  A    between atoms: C_4  and  C_25
REMARK    5  A    between atoms: N_7  and  CA_8
REMARK    6  A    between atoms: CA_12  and  C_13
REMARK    7  A    between atoms: C_13  and  OXT_15
REMARK    8  A    between atoms: C_16  and  C_17
REMARK    9  A    between atoms: C_17  and  O_18
REMARK   10  A    between atoms: O_18  and  C_19
REMARK                            x       y       z     vdW  Elec       q    Type
REMARK                         _______ _______ _______ _____ _____    ______ ____
ROOT
ATOM      1  CA  UNL     1       2.247   7.025  17.798  0.00  0.00    +0.000 C 
ATOM      2  C   UNL     1       2.413   5.569  18.370  0.00  0.00    +0.000 C 
ATOM      3  O   UNL     1       1.723   4.653  18.745  0.00  0.00    +0.000 OA
ATOM      4  N   UNL     1       3.754   5.679  18.287  0.00  0.00    +0.000 N 
ATOM      5  CA  UNL     1       4.857   4.869  18.326  0.00  0.00    +0.000 C 
ATOM      6  C   UNL     1       6.067   5.368  17.943  0.00  0.00    +0.000 C 
ATOM      7  C   UNL     1       6.287   6.789  17.457  0.00  0.00    +0.000 C 
ATOM      8  S   UNL     1       4.813   7.534  16.717  0.00  0.00    +0.000 S 
ATOM      9  C   UNL     1       3.773   7.124  18.129  0.00  0.00    +0.000 C 
ENDROOT
BRANCH   1  12
ATOM     10  C   UNL     1       1.203   9.257  18.344  0.00  0.00    +0.000 C 
ATOM     11  O   UNL     1       1.866   9.835  17.493  0.00  0.00    +0.000 OA
ATOM     12  N   UNL     1       1.307   7.889  18.555  0.00  0.00    +0.000 N 
ATOM     13  H   UNL     1       0.824   7.506  19.365  0.00  0.00    +0.000 HD
BRANCH  10  15
ATOM     14  N   UNL     1       0.453  10.238  20.554  0.00  0.00    +0.000 NA
ATOM     15  C   UNL     1       0.244  10.019  19.286  0.00  0.00    +0.000 C 
BRANCH  15  16
ATOM     16  C   UNL     1      -0.986  10.528  18.713  0.00  0.00    +0.000 A 
ATOM     17  C   UNL     1      -1.656  10.187  17.552  0.00  0.00    +0.000 A 
ATOM     18  C   UNL     1      -2.820  10.990  17.496  0.00  0.00    +0.000 A 
ATOM     19  C   UNL     1      -2.797  11.775  18.622  0.00  0.00    +0.000 A 
ATOM     20  O   UNL     1      -1.695  11.504  19.364  0.00  0.00    +0.000 OA
ENDBRANCH  15  16
BRANCH  14  22
ATOM     21  C   UNL     1       1.390   8.938  22.187  0.00  0.00    +0.000 C 
ATOM     22  O   UNL     1       1.660   9.701  21.013  0.00  0.00    +0.000 OA
ENDBRANCH  14  22
ENDBRANCH  10  15
ENDBRANCH   1  12
BRANCH   5  23
ATOM     23  C   UNL     1       4.719   3.410  18.701  0.00  0.00    +0.000 C 
ATOM     24  O   UNL     1       4.846   2.985  19.843  0.00  0.00    +0.000 OA
BRANCH  23  25
ATOM     25  OXT UNL     1       4.373   2.579  17.699  0.00  0.00    +0.000 OA
ATOM     26  HXT UNL     1       4.737   2.796  16.815  0.00  0.00    +0.000 HD
ENDBRANCH  23  25
ENDBRANCH   5  23
BRANCH   6  27
ATOM     27  C   UNL     1       7.362   4.570  17.884  0.00  0.00    +0.000 C 
BRANCH  27  28
ATOM     28  O   UNL     1       7.956   4.605  16.581  0.00  0.00    +0.000 OA
BRANCH  28  29
ATOM     29  C   UNL     1       7.125   4.341  15.555  0.00  0.00    +0.000 C 
ATOM     30  N   UNL     1       7.362   5.199  14.542  0.00  0.00    +0.000 N 
ATOM     31  O   UNL     1       6.271   3.470  15.519  0.00  0.00    +0.000 OA
ATOM     32  H   UNL     1       8.104   5.879  14.623  0.00  0.00    +0.000 HD
ATOM     33  H   UNL     1       6.820   5.125  13.694  0.00  0.00    +0.000 HD
ENDBRANCH  28  29
ENDBRANCH  27  28
ENDBRANCH   6  27
TORSDOF 9
ENDMDL
