MODEL 1
REMARK VINA RESULT:      -6.5      0.000      0.000
REMARK  Name = 
REMARK  7 active torsions:
REMARK  status: ('A' for Active; 'I' for Inactive)
REMARK    1  A    between atoms: C_1  and  O_2
REMARK    2  A    between atoms: O_2  and  C_3
REMARK    3  A    between atoms: C_6  and  C_7
REMARK    4  A    between atoms: C_16  and  N_17
REMARK    5  A    between atoms: N_22  and  C_23
REMARK    6  A    between atoms: C_30  and  O_31
REMARK    7  A    between atoms: O_31  and  C_32
REMARK                            x       y       z     vdW  Elec       q    Type
REMARK                         _______ _______ _______ _____ _____    ______ ____
ROOT
ATOM      1  C   UNL     1      -0.519  12.776  21.323  0.00  0.00    +0.000 C 
ATOM      2  C   UNL     1       0.766  13.671  21.347  0.00  0.00    +0.000 C 
ATOM      3  C   UNL     1       0.920  15.157  22.185  0.00  0.00    +0.000 C 
ATOM      4  N   UNL     1       2.076  15.928  21.615  0.00  0.00    +0.000 N 
ATOM      5  C   UNL     1       2.068  15.954  20.169  0.00  0.00    +0.000 A 
ATOM      6  C   UNL     1       1.198  15.097  19.477  0.00  0.00    +0.000 A 
ATOM      7  C   UNL     1       1.747  14.349  18.419  0.00  0.00    +0.000 A 
ATOM      8  C   UNL     1       3.013  14.672  17.892  0.00  0.00    +0.000 A 
ATOM      9  C   UNL     1       3.697  15.793  18.362  0.00  0.00    +0.000 A 
ATOM     10  C   UNL     1       3.186  16.452  19.482  0.00  0.00    +0.000 A 
ATOM     11  C   UNL     1       0.142  14.543  20.335  0.00  0.00    +0.000 C 
ATOM     12  N   UNL     1      -1.148  14.798  20.518  0.00  0.00    +0.000 NA
ATOM     13  N   UNL     1      -1.490  13.819  21.471  0.00  0.00    +0.000 N 
ATOM     14  H   UNL     1       2.937  15.453  21.907  0.00  0.00    +0.000 HD
ENDROOT
BRANCH   1  18
ATOM     15  C   UNL     1      -1.721  10.408  17.771  0.00  0.00    +0.000 A 
ATOM     16  C   UNL     1      -2.625  11.255  18.407  0.00  0.00    +0.000 A 
ATOM     17  C   UNL     1      -2.215  12.007  19.501  0.00  0.00    +0.000 A 
ATOM     18  C   UNL     1      -0.896  11.966  20.031  0.00  0.00    +0.000 A 
ATOM     19  C   UNL     1      -0.002  11.112  19.392  0.00  0.00    +0.000 A 
ATOM     20  C   UNL     1      -0.417  10.312  18.302  0.00  0.00    +0.000 A 
BRANCH  15  22
ATOM     21  C   UNL     1      -2.751  10.398  15.630  0.00  0.00    +0.000 C 
ATOM     22  O   UNL     1      -2.079   9.682  16.669  0.00  0.00    +0.000 OA
ENDBRANCH  15  22
BRANCH  20  23
ATOM     23  O   UNL     1       0.580   9.498  17.823  0.00  0.00    +0.000 OA
ATOM     24  C   UNL     1       1.913   9.918  18.098  0.00  0.00    +0.000 C 
ENDBRANCH  20  23
ENDBRANCH   1  18
BRANCH  13  25
ATOM     25  C   UNL     1      -2.678  13.561  22.167  0.00  0.00    +0.000 A 
ATOM     26  C   UNL     1      -2.693  12.636  23.267  0.00  0.00    +0.000 A 
ATOM     27  C   UNL     1      -3.800  12.402  24.066  0.00  0.00    +0.000 A 
ATOM     28  C   UNL     1      -4.969  13.066  23.812  0.00  0.00    +0.000 A 
ATOM     29  C   UNL     1      -5.024  13.934  22.705  0.00  0.00    +0.000 A 
ATOM     30  C   UNL     1      -3.883  14.192  21.909  0.00  0.00    +0.000 A 
ENDBRANCH  13  25
BRANCH  10  31
ATOM     31  N   UNL     1       3.858  17.642  19.965  0.00  0.00    +0.000 N 
ATOM     32  O   UNL     1       5.084  17.701  19.789  0.00  0.00    +0.000 OA
ATOM     33  O   UNL     1       3.172  18.466  20.584  0.00  0.00    +0.000 OA
ENDBRANCH  10  31
TORSDOF 5
ENDMDL
MODEL 2
REMARK VINA RESULT:      -6.4      0.405      1.079
REMARK  Name = 
REMARK  7 active torsions:
REMARK  status: ('A' for Active; 'I' for Inactive)
REMARK    1  A    between atoms: C_1  and  O_2
REMARK    2  A    between atoms: O_2  and  C_3
REMARK    3  A    between atoms: C_6  and  C_7
REMARK    4  A    between atoms: C_16  and  N_17
REMARK    5  A    between atoms: N_22  and  C_23
REMARK    6  A    between atoms: C_30  and  O_31
REMARK    7  A    between atoms: O_31  and  C_32
REMARK                            x       y       z     vdW  Elec       q    Type
REMARK                         _______ _______ _______ _____ _____    ______ ____
ROOT
ATOM      1  C   UNL     1      -0.132  12.809  21.310  0.00  0.00    +0.000 C 
ATOM      2  C   UNL     1       1.185  13.657  21.286  0.00  0.00    +0.000 C 
ATOM      3  C   UNL     1       1.425  15.134  22.118  0.00  0.00    +0.000 C 
ATOM      4  N   UNL     1       2.585  15.865  21.504  0.00  0.00    +0.000 N 
ATOM      5  C   UNL     1       2.524  15.893  20.060  0.00  0.00    +0.000 A 
ATOM      6  C   UNL     1       1.598  15.069  19.401  0.00  0.00    +0.000 A 
ATOM      7  C   UNL     1       2.078  14.304  18.323  0.00  0.00    +0.000 A 
ATOM      8  C   UNL     1       3.334  14.581  17.748  0.00  0.00    +0.000 A 
ATOM      9  C   UNL     1       4.076  15.676  18.192  0.00  0.00    +0.000 A 
ATOM     10  C   UNL     1       3.632  16.351  19.331  0.00  0.00    +0.000 A 
ATOM     11  C   UNL     1       0.555  14.552  20.298  0.00  0.00    +0.000 C 
ATOM     12  N   UNL     1      -0.717  14.854  20.530  0.00  0.00    +0.000 NA
ATOM     13  N   UNL     1      -1.058  13.887  21.495  0.00  0.00    +0.000 N 
ATOM     14  H   UNL     1       3.439  15.357  21.763  0.00  0.00    +0.000 HD
ENDROOT
BRANCH   1  18
ATOM     15  C   UNL     1      -1.560  10.501  17.802  0.00  0.00    +0.000 A 
ATOM     16  C   UNL     1      -2.384  11.429  18.434  0.00  0.00    +0.000 A 
ATOM     17  C   UNL     1      -1.902  12.159  19.513  0.00  0.00    +0.000 A 
ATOM     18  C   UNL     1      -0.586  12.016  20.033  0.00  0.00    +0.000 A 
ATOM     19  C   UNL     1       0.227  11.081  19.399  0.00  0.00    +0.000 A 
ATOM     20  C   UNL     1      -0.263  10.304  18.324  0.00  0.00    +0.000 A 
BRANCH  15  22
ATOM     21  C   UNL     1      -2.730  10.522  15.736  0.00  0.00    +0.000 C 
ATOM     22  O   UNL     1      -1.986   9.792  16.715  0.00  0.00    +0.000 OA
ENDBRANCH  15  22
BRANCH  20  23
ATOM     23  O   UNL     1       0.658   9.403  17.849  0.00  0.00    +0.000 OA
ATOM     24  C   UNL     1       2.022   9.802  17.938  0.00  0.00    +0.000 C 
ENDBRANCH  20  23
ENDBRANCH   1  18
BRANCH  13  25
ATOM     25  C   UNL     1      -2.227  13.670  22.236  0.00  0.00    +0.000 A 
ATOM     26  C   UNL     1      -3.406  14.453  21.985  0.00  0.00    +0.000 A 
ATOM     27  C   UNL     1      -4.626  14.234  22.602  0.00  0.00    +0.000 A 
ATOM     28  C   UNL     1      -4.747  13.228  23.522  0.00  0.00    +0.000 A 
ATOM     29  C   UNL     1      -3.604  12.475  23.850  0.00  0.00    +0.000 A 
ATOM     30  C   UNL     1      -2.367  12.682  23.197  0.00  0.00    +0.000 A 
ENDBRANCH  13  25
BRANCH  10  31
ATOM     31  N   UNL     1       4.364  17.515  19.789  0.00  0.00    +0.000 N 
ATOM     32  O   UNL     1       3.764  18.285  20.554  0.00  0.00    +0.000 OA
ATOM     33  O   UNL     1       5.496  17.692  19.321  0.00  0.00    +0.000 OA
ENDBRANCH  10  31
TORSDOF 5
ENDMDL
MODEL 3
REMARK VINA RESULT:      -6.4      1.243      2.128
REMARK  Name = 
REMARK  7 active torsions:
REMARK  status: ('A' for Active; 'I' for Inactive)
REMARK    1  A    between atoms: C_1  and  O_2
REMARK    2  A    between atoms: O_2  and  C_3
REMARK    3  A    between atoms: C_6  and  C_7
REMARK    4  A    between atoms: C_16  and  N_17
REMARK    5  A    between atoms: N_22  and  C_23
REMARK    6  A    between atoms: C_30  and  O_31
REMARK    7  A    between atoms: O_31  and  C_32
REMARK                            x       y       z     vdW  Elec       q    Type
REMARK                         _______ _______ _______ _____ _____    ______ ____
ROOT
ATOM      1  C   UNL     1      -1.190  12.461  21.247  0.00  0.00    +0.000 C 
ATOM      2  C   UNL     1       0.252  13.072  21.270  0.00  0.00    +0.000 C 
ATOM      3  C   UNL     1       0.701  14.518  22.071  0.00  0.00    +0.000 C 
ATOM      4  N   UNL     1       1.998  15.017  21.501  0.00  0.00    +0.000 N 
ATOM      5  C   UNL     1       2.013  15.001  20.055  0.00  0.00    +0.000 A 
ATOM      6  C   UNL     1       0.993  14.321  19.371  0.00  0.00    +0.000 A 
ATOM      7  C   UNL     1       1.388  13.445  18.343  0.00  0.00    +0.000 A 
ATOM      8  C   UNL     1       2.700  13.483  17.831  0.00  0.00    +0.000 A 
ATOM      9  C   UNL     1       3.596  14.452  18.283  0.00  0.00    +0.000 A 
ATOM     10  C   UNL     1       3.218  15.236  19.375  0.00  0.00    +0.000 A 
ATOM     11  C   UNL     1      -0.165  14.023  20.224  0.00  0.00    +0.000 C 
ATOM     12  N   UNL     1      -1.377  14.545  20.377  0.00  0.00    +0.000 NA
ATOM     13  N   UNL     1      -1.926  13.687  21.349  0.00  0.00    +0.000 N 
ATOM     14  H   UNL     1       2.738  14.383  21.821  0.00  0.00    +0.000 HD
ENDROOT
BRANCH   1  18
ATOM     15  C   UNL     1      -2.510  10.401  17.548  0.00  0.00    +0.000 A 
ATOM     16  C   UNL     1      -1.262  10.140  18.107  0.00  0.00    +0.000 A 
ATOM     17  C   UNL     1      -0.884  10.778  19.282  0.00  0.00    +0.000 A 
ATOM     18  C   UNL     1      -1.710  11.709  19.970  0.00  0.00    +0.000 A 
ATOM     19  C   UNL     1      -2.952  11.968  19.399  0.00  0.00    +0.000 A 
ATOM     20  C   UNL     1      -3.334  11.355  18.183  0.00  0.00    +0.000 A 
BRANCH  15  22
ATOM     21  C   UNL     1      -2.814  10.500  15.194  0.00  0.00    +0.000 C 
ATOM     22  O   UNL     1      -2.931   9.764  16.414  0.00  0.00    +0.000 OA
ENDBRANCH  15  22
BRANCH  20  23
ATOM     23  O   UNL     1      -4.571  11.758  17.742  0.00  0.00    +0.000 OA
ATOM     24  C   UNL     1      -5.666  11.459  18.603  0.00  0.00    +0.000 C 
ENDBRANCH  20  23
ENDBRANCH   1  18
BRANCH  13  25
ATOM     25  C   UNL     1      -3.150  13.701  22.030  0.00  0.00    +0.000 A 
ATOM     26  C   UNL     1      -3.376  12.820  23.143  0.00  0.00    +0.000 A 
ATOM     27  C   UNL     1      -4.516  12.842  23.928  0.00  0.00    +0.000 A 
ATOM     28  C   UNL     1      -5.513  13.736  23.646  0.00  0.00    +0.000 A 
ATOM     29  C   UNL     1      -5.368  14.576  22.526  0.00  0.00    +0.000 A 
ATOM     30  C   UNL     1      -4.189  14.571  21.744  0.00  0.00    +0.000 A 
ENDBRANCH  13  25
BRANCH  10  31
ATOM     31  N   UNL     1       4.116  16.275  19.839  0.00  0.00    +0.000 N 
ATOM     32  O   UNL     1       4.270  17.253  19.091  0.00  0.00    +0.000 OA
ATOM     33  O   UNL     1       4.717  16.071  20.901  0.00  0.00    +0.000 OA
ENDBRANCH  10  31
TORSDOF 5
ENDMDL
MODEL 4
REMARK VINA RESULT:      -6.4      1.212      2.262
REMARK  Name = 
REMARK  7 active torsions:
REMARK  status: ('A' for Active; 'I' for Inactive)
REMARK    1  A    between atoms: C_1  and  O_2
REMARK    2  A    between atoms: O_2  and  C_3
REMARK    3  A    between atoms: C_6  and  C_7
REMARK    4  A    between atoms: C_16  and  N_17
REMARK    5  A    between atoms: N_22  and  C_23
REMARK    6  A    between atoms: C_30  and  O_31
REMARK    7  A    between atoms: O_31  and  C_32
REMARK                            x       y       z     vdW  Elec       q    Type
REMARK                         _______ _______ _______ _____ _____    ______ ____
ROOT
ATOM      1  C   UNL     1      -1.116  12.439  21.270  0.00  0.00    +0.000 C 
ATOM      2  C   UNL     1       0.323  13.057  21.278  0.00  0.00    +0.000 C 
ATOM      3  C   UNL     1       0.775  14.497  22.087  0.00  0.00    +0.000 C 
ATOM      4  N   UNL     1       2.061  15.009  21.504  0.00  0.00    +0.000 N 
ATOM      5  C   UNL     1       2.055  15.008  20.058  0.00  0.00    +0.000 A 
ATOM      6  C   UNL     1       1.029  14.330  19.381  0.00  0.00    +0.000 A 
ATOM      7  C   UNL     1       1.412  13.466  18.339  0.00  0.00    +0.000 A 
ATOM      8  C   UNL     1       2.717  13.517  17.808  0.00  0.00    +0.000 A 
ATOM      9  C   UNL     1       3.614  14.486  18.257  0.00  0.00    +0.000 A 
ATOM     10  C   UNL     1       3.249  15.257  19.362  0.00  0.00    +0.000 A 
ATOM     11  C   UNL     1      -0.116  14.017  20.248  0.00  0.00    +0.000 C 
ATOM     12  N   UNL     1      -1.327  14.530  20.425  0.00  0.00    +0.000 NA
ATOM     13  N   UNL     1      -1.857  13.659  21.396  0.00  0.00    +0.000 N 
ATOM     14  H   UNL     1       2.809  14.375  21.806  0.00  0.00    +0.000 HD
ENDROOT
BRANCH   1  18
ATOM     15  C   UNL     1      -2.478  10.406  17.571  0.00  0.00    +0.000 A 
ATOM     16  C   UNL     1      -1.234  10.122  18.128  0.00  0.00    +0.000 A 
ATOM     17  C   UNL     1      -0.843  10.753  19.302  0.00  0.00    +0.000 A 
ATOM     18  C   UNL     1      -1.652  11.697  19.993  0.00  0.00    +0.000 A 
ATOM     19  C   UNL     1      -2.890  11.977  19.425  0.00  0.00    +0.000 A 
ATOM     20  C   UNL     1      -3.285  11.372  18.209  0.00  0.00    +0.000 A 
BRANCH  15  22
ATOM     21  C   UNL     1      -2.773  10.508  15.216  0.00  0.00    +0.000 C 
ATOM     22  O   UNL     1      -2.911   9.777  16.437  0.00  0.00    +0.000 OA
ENDBRANCH  15  22
BRANCH  20  23
ATOM     23  O   UNL     1      -4.515  11.797  17.771  0.00  0.00    +0.000 OA
ATOM     24  C   UNL     1      -5.455  12.132  18.787  0.00  0.00    +0.000 C 
ENDBRANCH  20  23
ENDBRANCH   1  18
BRANCH  13  25
ATOM     25  C   UNL     1      -3.071  13.659  22.095  0.00  0.00    +0.000 A 
ATOM     26  C   UNL     1      -4.170  14.471  21.651  0.00  0.00    +0.000 A 
ATOM     27  C   UNL     1      -5.429  14.451  22.226  0.00  0.00    +0.000 A 
ATOM     28  C   UNL     1      -5.672  13.629  23.293  0.00  0.00    +0.000 A 
ATOM     29  C   UNL     1      -4.609  12.862  23.807  0.00  0.00    +0.000 A 
ATOM     30  C   UNL     1      -3.333  12.863  23.198  0.00  0.00    +0.000 A 
ENDBRANCH  13  25
BRANCH  10  31
ATOM     31  N   UNL     1       4.147  16.296  19.824  0.00  0.00    +0.000 N 
ATOM     32  O   UNL     1       4.875  16.016  20.788  0.00  0.00    +0.000 OA
ATOM     33  O   UNL     1       4.062  17.402  19.274  0.00  0.00    +0.000 OA
ENDBRANCH  10  31
TORSDOF 5
ENDMDL
MODEL 5
REMARK VINA RESULT:      -6.3      6.102      9.740
REMARK  Name = 
REMARK  7 active torsions:
REMARK  status: ('A' for Active; 'I' for Inactive)
REMARK    1  A    between atoms: C_1  and  O_2
REMARK    2  A    between atoms: O_2  and  C_3
REMARK    3  A    between atoms: C_6  and  C_7
REMARK    4  A    between atoms: C_16  and  N_17
REMARK    5  A    between atoms: N_22  and  C_23
REMARK    6  A    between atoms: C_30  and  O_31
REMARK    7  A    between atoms: O_31  and  C_32
REMARK                            x       y       z     vdW  Elec       q    Type
REMARK                         _______ _______ _______ _____ _____    ______ ____
ROOT
ATOM      1  C   UNL     1       2.534   5.823  17.902  0.00  0.00    +0.000 C 
ATOM      2  C   UNL     1       1.750   7.168  18.068  0.00  0.00    +0.000 C 
ATOM      3  C   UNL     1       2.308   8.707  17.564  0.00  0.00    +0.000 C 
ATOM      4  N   UNL     1       1.535   9.774  18.284  0.00  0.00    +0.000 N 
ATOM      5  C   UNL     1       1.422   9.517  19.703  0.00  0.00    +0.000 A 
ATOM      6  C   UNL     1       1.786   8.255  20.198  0.00  0.00    +0.000 A 
ATOM      7  C   UNL     1       0.881   7.627  21.073  0.00  0.00    +0.000 A 
ATOM      8  C   UNL     1      -0.176   8.354  21.657  0.00  0.00    +0.000 A 
ATOM      9  C   UNL     1      -0.282   9.726  21.435  0.00  0.00    +0.000 A 
ATOM     10  C   UNL     1       0.557  10.304  20.480  0.00  0.00    +0.000 A 
ATOM     11  C   UNL     1       2.587   7.477  19.242  0.00  0.00    +0.000 C 
ATOM     12  N   UNL     1       3.875   7.185  19.117  0.00  0.00    +0.000 NA
ATOM     13  N   UNL     1       3.862   6.357  17.979  0.00  0.00    +0.000 N 
ATOM     14  H   UNL     1       0.584   9.778  17.898  0.00  0.00    +0.000 HD
ENDROOT
BRANCH   1  18
ATOM     15  C   UNL     1       2.165   2.783  21.111  0.00  0.00    +0.000 A 
ATOM     16  C   UNL     1       1.102   3.625  20.795  0.00  0.00    +0.000 A 
ATOM     17  C   UNL     1       1.234   4.549  19.767  0.00  0.00    +0.000 A 
ATOM     18  C   UNL     1       2.418   4.699  18.994  0.00  0.00    +0.000 A 
ATOM     19  C   UNL     1       3.477   3.858  19.321  0.00  0.00    +0.000 A 
ATOM     20  C   UNL     1       3.369   2.939  20.391  0.00  0.00    +0.000 A 
BRANCH  15  22
ATOM     21  C   UNL     1       0.830   1.818  22.822  0.00  0.00    +0.000 C 
ATOM     22  O   UNL     1       2.058   1.836  22.090  0.00  0.00    +0.000 OA
ENDBRANCH  15  22
BRANCH  20  23
ATOM     23  O   UNL     1       4.522   2.222  20.602  0.00  0.00    +0.000 OA
ATOM     24  C   UNL     1       4.796   1.192  19.657  0.00  0.00    +0.000 C 
ENDBRANCH  20  23
ENDBRANCH   1  18
BRANCH  13  25
ATOM     25  C   UNL     1       4.890   5.753  17.244  0.00  0.00    +0.000 A 
ATOM     26  C   UNL     1       6.240   5.759  17.736  0.00  0.00    +0.000 A 
ATOM     27  C   UNL     1       7.291   5.100  17.121  0.00  0.00    +0.000 A 
ATOM     28  C   UNL     1       7.068   4.402  15.965  0.00  0.00    +0.000 A 
ATOM     29  C   UNL     1       5.775   4.421  15.407  0.00  0.00    +0.000 A 
ATOM     30  C   UNL     1       4.698   5.071  16.054  0.00  0.00    +0.000 A 
ENDBRANCH  13  25
BRANCH  10  31
ATOM     31  N   UNL     1       0.492  11.735  20.259  0.00  0.00    +0.000 N 
ATOM     32  O   UNL     1      -0.061  12.113  19.216  0.00  0.00    +0.000 OA
ATOM     33  O   UNL     1       1.062  12.461  21.084  0.00  0.00    +0.000 OA
ENDBRANCH  10  31
TORSDOF 5
ENDMDL
MODEL 6
REMARK VINA RESULT:      -6.2      3.171      7.147
REMARK  Name = 
REMARK  7 active torsions:
REMARK  status: ('A' for Active; 'I' for Inactive)
REMARK    1  A    between atoms: C_1  and  O_2
REMARK    2  A    between atoms: O_2  and  C_3
REMARK    3  A    between atoms: C_6  and  C_7
REMARK    4  A    between atoms: C_16  and  N_17
REMARK    5  A    between atoms: N_22  and  C_23
REMARK    6  A    between atoms: C_30  and  O_31
REMARK    7  A    between atoms: O_31  and  C_32
REMARK                            x       y       z     vdW  Elec       q    Type
REMARK                         _______ _______ _______ _____ _____    ______ ____
ROOT
ATOM      1  C   UNL     1       0.845  11.531  21.258  0.00  0.00    +0.000 C 
ATOM      2  C   UNL     1      -0.283  11.802  22.310  0.00  0.00    +0.000 C 
ATOM      3  C   UNL     1      -1.479  10.675  22.790  0.00  0.00    +0.000 C 
ATOM      4  N   UNL     1      -2.623  11.410  23.428  0.00  0.00    +0.000 N 
ATOM      5  C   UNL     1      -3.037  12.566  22.666  0.00  0.00    +0.000 A 
ATOM      6  C   UNL     1      -2.222  13.017  21.616  0.00  0.00    +0.000 A 
ATOM      7  C   UNL     1      -1.938  14.394  21.574  0.00  0.00    +0.000 A 
ATOM      8  C   UNL     1      -2.676  15.304  22.357  0.00  0.00    +0.000 A 
ATOM      9  C   UNL     1      -3.755  14.852  23.118  0.00  0.00    +0.000 A 
ATOM     10  C   UNL     1      -3.948  13.474  23.228  0.00  0.00    +0.000 A 
ATOM     11  C   UNL     1      -1.227  12.020  21.198  0.00  0.00    +0.000 C 
ATOM     12  N   UNL     1      -1.116  11.174  20.181  0.00  0.00    +0.000 NA
ATOM     13  N   UNL     1       0.136  10.586  20.446  0.00  0.00    +0.000 N 
ATOM     14  H   UNL     1      -2.299  11.747  24.342  0.00  0.00    +0.000 HD
ENDROOT
BRANCH   1  18
ATOM     15  C   UNL     1       2.404  14.697  18.570  0.00  0.00    +0.000 A 
ATOM     16  C   UNL     1       2.370  13.365  18.165  0.00  0.00    +0.000 A 
ATOM     17  C   UNL     1       1.851  12.397  19.016  0.00  0.00    +0.000 A 
ATOM     18  C   UNL     1       1.339  12.684  20.311  0.00  0.00    +0.000 A 
ATOM     19  C   UNL     1       1.383  14.016  20.709  0.00  0.00    +0.000 A 
ATOM     20  C   UNL     1       1.944  15.006  19.868  0.00  0.00    +0.000 A 
BRANCH  15  22
ATOM     21  C   UNL     1       4.268  15.640  17.440  0.00  0.00    +0.000 C 
ATOM     22  O   UNL     1       2.872  15.681  17.746  0.00  0.00    +0.000 OA
ENDBRANCH  15  22
BRANCH  20  23
ATOM     23  O   UNL     1       1.946  16.256  20.437  0.00  0.00    +0.000 OA
ATOM     24  C   UNL     1       0.739  17.001  20.306  0.00  0.00    +0.000 C 
ENDBRANCH  20  23
ENDBRANCH   1  18
BRANCH  13  25
ATOM     25  C   UNL     1       0.842   9.554  19.815  0.00  0.00    +0.000 A 
ATOM     26  C   UNL     1       1.062   9.582  18.395  0.00  0.00    +0.000 A 
ATOM     27  C   UNL     1       1.832   8.656  17.713  0.00  0.00    +0.000 A 
ATOM     28  C   UNL     1       2.424   7.631  18.400  0.00  0.00    +0.000 A 
ATOM     29  C   UNL     1       2.185   7.523  19.783  0.00  0.00    +0.000 A 
ATOM     30  C   UNL     1       1.421   8.487  20.481  0.00  0.00    +0.000 A 
ENDBRANCH  13  25
BRANCH  10  31
ATOM     31  N   UNL     1      -5.085  12.981  23.980  0.00  0.00    +0.000 N 
ATOM     32  O   UNL     1      -4.848  12.141  24.862  0.00  0.00    +0.000 OA
ATOM     33  O   UNL     1      -6.206  13.374  23.633  0.00  0.00    +0.000 OA
ENDBRANCH  10  31
TORSDOF 5
ENDMDL
MODEL 7
REMARK VINA RESULT:      -6.2      2.803      6.232
REMARK  Name = 
REMARK  7 active torsions:
REMARK  status: ('A' for Active; 'I' for Inactive)
REMARK    1  A    between atoms: C_1  and  O_2
REMARK    2  A    between atoms: O_2  and  C_3
REMARK    3  A    between atoms: C_6  and  C_7
REMARK    4  A    between atoms: C_16  and  N_17
REMARK    5  A    between atoms: N_22  and  C_23
REMARK    6  A    between atoms: C_30  and  O_31
REMARK    7  A    between atoms: O_31  and  C_32
REMARK                            x       y       z     vdW  Elec       q    Type
REMARK                         _______ _______ _______ _____ _____    ______ ____
ROOT
ATOM      1  C   UNL     1       0.535  14.295  19.486  0.00  0.00    +0.000 C 
ATOM      2  C   UNL     1      -0.545  14.767  20.518  0.00  0.00    +0.000 C 
ATOM      3  C   UNL     1      -0.341  16.031  21.655  0.00  0.00    +0.000 C 
ATOM      4  N   UNL     1      -1.365  15.886  22.744  0.00  0.00    +0.000 N 
ATOM      5  C   UNL     1      -1.466  14.531  23.236  0.00  0.00    +0.000 A 
ATOM      6  C   UNL     1      -0.837  13.498  22.524  0.00  0.00    +0.000 A 
ATOM      7  C   UNL     1      -1.602  12.348  22.257  0.00  0.00    +0.000 A 
ATOM      8  C   UNL     1      -2.819  12.122  22.932  0.00  0.00    +0.000 A 
ATOM      9  C   UNL     1      -3.233  13.001  23.933  0.00  0.00    +0.000 A 
ATOM     10  C   UNL     1      -2.517  14.187  24.102  0.00  0.00    +0.000 A 
ATOM     11  C   UNL     1       0.155  13.993  21.560  0.00  0.00    +0.000 C 
ATOM     12  N   UNL     1       1.480  14.068  21.532  0.00  0.00    +0.000 NA
ATOM     13  N   UNL     1       1.700  14.621  20.256  0.00  0.00    +0.000 N 
ATOM     14  H   UNL     1      -2.277  16.134  22.343  0.00  0.00    +0.000 HD
ENDROOT
BRANCH   1  18
ATOM     15  C   UNL     1       0.928  10.065  18.212  0.00  0.00    +0.000 A 
ATOM     16  C   UNL     1       2.048  10.884  18.335  0.00  0.00    +0.000 A 
ATOM     17  C   UNL     1       1.900  12.197  18.763  0.00  0.00    +0.000 A 
ATOM     18  C   UNL     1       0.644  12.779  19.091  0.00  0.00    +0.000 A 
ATOM     19  C   UNL     1      -0.469  11.954  18.959  0.00  0.00    +0.000 A 
ATOM     20  C   UNL     1      -0.337  10.628  18.488  0.00  0.00    +0.000 A 
BRANCH  15  22
ATOM     21  C   UNL     1       2.273   8.109  18.146  0.00  0.00    +0.000 C 
ATOM     22  O   UNL     1       1.039   8.758  17.830  0.00  0.00    +0.000 OA
ENDBRANCH  15  22
BRANCH  20  23
ATOM     23  O   UNL     1      -1.540   9.974  18.377  0.00  0.00    +0.000 OA
ATOM     24  C   UNL     1      -2.169  10.042  17.100  0.00  0.00    +0.000 C 
ENDBRANCH  20  23
ENDBRANCH   1  18
BRANCH  13  25
ATOM     25  C   UNL     1       2.865  15.036  19.599  0.00  0.00    +0.000 A 
ATOM     26  C   UNL     1       4.155  14.816  20.193  0.00  0.00    +0.000 A 
ATOM     27  C   UNL     1       5.355  15.105  19.566  0.00  0.00    +0.000 A 
ATOM     28  C   UNL     1       5.348  15.646  18.309  0.00  0.00    +0.000 A 
ATOM     29  C   UNL     1       4.108  15.941  17.710  0.00  0.00    +0.000 A 
ATOM     30  C   UNL     1       2.885  15.617  18.342  0.00  0.00    +0.000 A 
ENDBRANCH  13  25
BRANCH  10  31
ATOM     31  N   UNL     1      -2.903  15.098  25.161  0.00  0.00    +0.000 N 
ATOM     32  O   UNL     1      -3.884  15.825  24.941  0.00  0.00    +0.000 OA
ATOM     33  O   UNL     1      -2.182  15.136  26.166  0.00  0.00    +0.000 OA
ENDBRANCH  10  31
TORSDOF 5
ENDMDL
MODEL 8
REMARK VINA RESULT:      -6.2      0.907      1.319
REMARK  Name = 
REMARK  7 active torsions:
REMARK  status: ('A' for Active; 'I' for Inactive)
REMARK    1  A    between atoms: C_1  and  O_2
REMARK    2  A    between atoms: O_2  and  C_3
REMARK    3  A    between atoms: C_6  and  C_7
REMARK    4  A    between atoms: C_16  and  N_17
REMARK    5  A    between atoms: N_22  and  C_23
REMARK    6  A    between atoms: C_30  and  O_31
REMARK    7  A    between atoms: O_31  and  C_32
REMARK                            x       y       z     vdW  Elec       q    Type
REMARK                         _______ _______ _______ _____ _____    ______ ____
ROOT
ATOM      1  C   UNL     1      -1.253  12.714  21.116  0.00  0.00    +0.000 C 
ATOM      2  C   UNL     1       0.157  13.361  21.336  0.00  0.00    +0.000 C 
ATOM      3  C   UNL     1       0.452  14.829  22.166  0.00  0.00    +0.000 C 
ATOM      4  N   UNL     1       1.806  15.351  21.781  0.00  0.00    +0.000 N 
ATOM      5  C   UNL     1       2.031  15.314  20.353  0.00  0.00    +0.000 A 
ATOM      6  C   UNL     1       1.136  14.599  19.541  0.00  0.00    +0.000 A 
ATOM      7  C   UNL     1       1.695  13.717  18.597  0.00  0.00    +0.000 A 
ATOM      8  C   UNL     1       3.066  13.781  18.279  0.00  0.00    +0.000 A 
ATOM      9  C   UNL     1       3.865  14.778  18.838  0.00  0.00    +0.000 A 
ATOM     10  C   UNL     1       3.316  15.569  19.849  0.00  0.00    +0.000 A 
ATOM     11  C   UNL     1      -0.126  14.285  20.223  0.00  0.00    +0.000 C 
ATOM     12  N   UNL     1      -1.358  14.778  20.190  0.00  0.00    +0.000 NA
ATOM     13  N   UNL     1      -2.023  13.922  21.089  0.00  0.00    +0.000 N 
ATOM     14  H   UNL     1       2.506  14.740  22.215  0.00  0.00    +0.000 HD
ENDROOT
BRANCH   1  18
ATOM     15  C   UNL     1      -2.281  10.416  17.464  0.00  0.00    +0.000 A 
ATOM     16  C   UNL     1      -3.213  11.254  18.070  0.00  0.00    +0.000 A 
ATOM     17  C   UNL     1      -2.857  11.984  19.197  0.00  0.00    +0.000 A 
ATOM     18  C   UNL     1      -1.566  11.929  19.792  0.00  0.00    +0.000 A 
ATOM     19  C   UNL     1      -0.644  11.084  19.182  0.00  0.00    +0.000 A 
ATOM     20  C   UNL     1      -1.004  10.306  18.058  0.00  0.00    +0.000 A 
BRANCH  15  22
ATOM     21  C   UNL     1      -2.886  10.484  15.169  0.00  0.00    +0.000 C 
ATOM     22  O   UNL     1      -2.584   9.712  16.333  0.00  0.00    +0.000 OA
ENDBRANCH  15  22
BRANCH  20  23
ATOM     23  O   UNL     1       0.013   9.498  17.614  0.00  0.00    +0.000 OA
ATOM     24  C   UNL     1       1.283   9.703  18.227  0.00  0.00    +0.000 C 
ENDBRANCH  20  23
ENDBRANCH   1  18
BRANCH  13  25
ATOM     25  C   UNL     1      -3.333  13.915  21.586  0.00  0.00    +0.000 A 
ATOM     26  C   UNL     1      -4.333  14.777  21.019  0.00  0.00    +0.000 A 
ATOM     27  C   UNL     1      -5.668  14.758  21.386  0.00  0.00    +0.000 A 
ATOM     28  C   UNL     1      -6.092  13.887  22.353  0.00  0.00    +0.000 A 
ATOM     29  C   UNL     1      -5.137  13.068  22.985  0.00  0.00    +0.000 A 
ATOM     30  C   UNL     1      -3.780  13.069  22.587  0.00  0.00    +0.000 A 
ENDBRANCH  13  25
BRANCH  10  31
ATOM     31  N   UNL     1       4.114  16.637  20.418  0.00  0.00    +0.000 N 
ATOM     32  O   UNL     1       4.575  16.445  21.554  0.00  0.00    +0.000 OA
ATOM     33  O   UNL     1       4.205  17.684  19.765  0.00  0.00    +0.000 OA
ENDBRANCH  10  31
TORSDOF 5
ENDMDL
MODEL 9
REMARK VINA RESULT:      -6.1      3.169      7.148
REMARK  Name = 
REMARK  7 active torsions:
REMARK  status: ('A' for Active; 'I' for Inactive)
REMARK    1  A    between atoms: C_1  and  O_2
REMARK    2  A    between atoms: O_2  and  C_3
REMARK    3  A    between atoms: C_6  and  C_7
REMARK    4  A    between atoms: C_16  and  N_17
REMARK    5  A    between atoms: N_22  and  C_23
REMARK    6  A    between atoms: C_30  and  O_31
REMARK    7  A    between atoms: O_31  and  C_32
REMARK                            x       y       z     vdW  Elec       q    Type
REMARK                         _______ _______ _______ _____ _____    ______ ____
ROOT
ATOM      1  C   UNL     1       0.887  11.604  21.244  0.00  0.00    +0.000 C 
ATOM      2  C   UNL     1      -0.235  11.817  22.315  0.00  0.00    +0.000 C 
ATOM      3  C   UNL     1      -1.382  10.639  22.794  0.00  0.00    +0.000 C 
ATOM      4  N   UNL     1      -2.543  11.321  23.460  0.00  0.00    +0.000 N 
ATOM      5  C   UNL     1      -3.010  12.473  22.721  0.00  0.00    +0.000 A 
ATOM      6  C   UNL     1      -2.227  12.970  21.667  0.00  0.00    +0.000 A 
ATOM      7  C   UNL     1      -1.994  14.357  21.644  0.00  0.00    +0.000 A 
ATOM      8  C   UNL     1      -2.754  15.227  22.451  0.00  0.00    +0.000 A 
ATOM      9  C   UNL     1      -3.804  14.724  23.219  0.00  0.00    +0.000 A 
ATOM     10  C   UNL     1      -3.945  13.338  23.311  0.00  0.00    +0.000 A 
ATOM     11  C   UNL     1      -1.202  12.017  21.220  0.00  0.00    +0.000 C 
ATOM     12  N   UNL     1      -1.075  11.191  20.189  0.00  0.00    +0.000 NA
ATOM     13  N   UNL     1       0.201  10.646  20.427  0.00  0.00    +0.000 N 
ATOM     14  H   UNL     1      -2.218  11.656  24.374  0.00  0.00    +0.000 HD
ENDROOT
BRANCH   1  18
ATOM     15  C   UNL     1       2.289  14.866  18.585  0.00  0.00    +0.000 A 
ATOM     16  C   UNL     1       2.308  13.539  18.163  0.00  0.00    +0.000 A 
ATOM     17  C   UNL     1       1.837  12.539  19.005  0.00  0.00    +0.000 A 
ATOM     18  C   UNL     1       1.324  12.788  20.308  0.00  0.00    +0.000 A 
ATOM     19  C   UNL     1       1.316  14.116  20.723  0.00  0.00    +0.000 A 
ATOM     20  C   UNL     1       1.828  15.139  19.891  0.00  0.00    +0.000 A 
BRANCH  15  22
ATOM     21  C   UNL     1       4.097  15.881  17.427  0.00  0.00    +0.000 C 
ATOM     22  O   UNL     1       2.709  15.879  17.771  0.00  0.00    +0.000 OA
ENDBRANCH  15  22
BRANCH  20  23
ATOM     23  O   UNL     1       1.782  16.381  20.476  0.00  0.00    +0.000 OA
ATOM     24  C   UNL     1       1.282  16.422  21.809  0.00  0.00    +0.000 C 
ENDBRANCH  20  23
ENDBRANCH   1  18
BRANCH  13  25
ATOM     25  C   UNL     1       0.936   9.650  19.770  0.00  0.00    +0.000 A 
ATOM     26  C   UNL     1       1.472   8.536  20.501  0.00  0.00    +0.000 A 
ATOM     27  C   UNL     1       2.121   7.464  19.912  0.00  0.00    +0.000 A 
ATOM     28  C   UNL     1       2.289   7.439  18.554  0.00  0.00    +0.000 A 
ATOM     29  C   UNL     1       1.839   8.539  17.800  0.00  0.00    +0.000 A 
ATOM     30  C   UNL     1       1.151   9.618  18.402  0.00  0.00    +0.000 A 
ENDBRANCH  13  25
BRANCH  10  31
ATOM     31  N   UNL     1      -5.052  12.791  24.071  0.00  0.00    +0.000 N 
ATOM     32  O   UNL     1      -6.186  13.197  23.775  0.00  0.00    +0.000 OA
ATOM     33  O   UNL     1      -4.774  12.027  25.004  0.00  0.00    +0.000 OA
ENDBRANCH  10  31
TORSDOF 5
ENDMDL
