MODEL 1
REMARK VINA RESULT:      -7.7      0.000      0.000
REMARK  Name = 
REMARK  6 active torsions:
REMARK  status: ('A' for Active; 'I' for Inactive)
REMARK    1  A    between atoms: C_1  and  N_2
REMARK    2  A    between atoms: C_3  and  C_5
REMARK    3  A    between atoms: C_5  and  O_6
REMARK    4  A    between atoms: O_6  and  C_7
REMARK    5  A    between atoms: C_14  and  O_15
REMARK    6  A    between atoms: C_14  and  C_16
REMARK                            x       y       z     vdW  Elec       q    Type
REMARK                         _______ _______ _______ _____ _____    ______ ____
ROOT
ATOM      1  C   UNL     1       5.846   4.202  15.461  0.00  0.00    +0.000 A 
ATOM      2  C   UNL     1       6.055   5.510  15.911  0.00  0.00    +0.000 A 
ATOM      3  C   UNL     1       5.267   6.060  16.940  0.00  0.00    +0.000 A 
ATOM      4 BR   UNL     1       5.654   7.851  17.421  0.00  0.00    +0.000 Br
ATOM      5  C   UNL     1       4.271   5.290  17.531  0.00  0.00    +0.000 A 
ATOM      6  C   UNL     1       4.074   3.967  17.063  0.00  0.00    +0.000 A 
ATOM      7  C   UNL     1       4.835   3.428  16.025  0.00  0.00    +0.000 A 
ATOM      8  C   UNL     1       2.961   3.270  17.844  0.00  0.00    +0.000 C 
ATOM      9  C   UNL     1       2.512   4.383  18.782  0.00  0.00    +0.000 A 
ATOM     10  C   UNL     1       1.494   4.328  19.733  0.00  0.00    +0.000 A 
ATOM     11  C   UNL     1       1.279   5.444  20.536  0.00  0.00    +0.000 A 
ATOM     12  C   UNL     1       2.059   6.593  20.370  0.00  0.00    +0.000 A 
ATOM     13  C   UNL     1       3.067   6.646  19.398  0.00  0.00    +0.000 A 
ATOM     14  C   UNL     1       3.303   5.539  18.596  0.00  0.00    +0.000 A 
ENDROOT
BRANCH   8  15
ATOM     15  C   UNL     1       3.446   1.997  18.612  0.00  0.00    +0.000 C 
ATOM     16  F   UNL     1       3.921   1.033  17.786  0.00  0.00    +0.000 F 
ATOM     17  F   UNL     1       4.414   2.240  19.524  0.00  0.00    +0.000 F 
ATOM     18  F   UNL     1       2.404   1.436  19.286  0.00  0.00    +0.000 F 
ENDBRANCH   8  15
BRANCH   8  19
ATOM     19  O   UNL     1       1.883   3.023  16.922  0.00  0.00    +0.000 OA
ATOM     20  H   UNL     1       2.096   3.497  16.099  0.00  0.00    +0.000 HD
ENDBRANCH   8  19
BRANCH   1  21
ATOM     21  O   UNL     1       6.530   3.601  14.441  0.00  0.00    +0.000 OA
BRANCH  21  22
ATOM     22  C   UNL     1       6.398   4.183  13.144  0.00  0.00    +0.000 C 
BRANCH  22  25
ATOM     23  C   UNL     1       6.172   1.109  10.904  0.00  0.00    +0.000 C 
ATOM     24  N   UNL     1       6.603   2.132  11.816  0.00  0.00    +0.000 N 
ATOM     25  C   UNL     1       5.779   3.181  12.169  0.00  0.00    +0.000 C 
ATOM     26  O   UNL     1       4.631   3.304  11.748  0.00  0.00    +0.000 OA
ATOM     27  H   UNL     1       7.531   2.110  12.225  0.00  0.00    +0.000 HD
ENDBRANCH  22  25
ENDBRANCH  21  22
ENDBRANCH   1  21
TORSDOF 5
ENDMDL
MODEL 2
REMARK VINA RESULT:      -7.2      0.883      1.243
REMARK  Name = 
REMARK  6 active torsions:
REMARK  status: ('A' for Active; 'I' for Inactive)
REMARK    1  A    between atoms: C_1  and  N_2
REMARK    2  A    between atoms: C_3  and  C_5
REMARK    3  A    between atoms: C_5  and  O_6
REMARK    4  A    between atoms: O_6  and  C_7
REMARK    5  A    between atoms: C_14  and  O_15
REMARK    6  A    between atoms: C_14  and  C_16
REMARK                            x       y       z     vdW  Elec       q    Type
REMARK                         _______ _______ _______ _____ _____    ______ ____
ROOT
ATOM      1  C   UNL     1       5.665   4.057  15.502  0.00  0.00    +0.000 A 
ATOM      2  C   UNL     1       5.830   5.414  15.801  0.00  0.00    +0.000 A 
ATOM      3  C   UNL     1       5.063   6.036  16.805  0.00  0.00    +0.000 A 
ATOM      4 BR   UNL     1       5.383   7.884  17.076  0.00  0.00    +0.000 Br
ATOM      5  C   UNL     1       4.132   5.291  17.521  0.00  0.00    +0.000 A 
ATOM      6  C   UNL     1       3.979   3.918  17.204  0.00  0.00    +0.000 A 
ATOM      7  C   UNL     1       4.718   3.305  16.193  0.00  0.00    +0.000 A 
ATOM      8  C   UNL     1       2.936   3.261  18.109  0.00  0.00    +0.000 C 
ATOM      9  C   UNL     1       2.477   4.447  18.946  0.00  0.00    +0.000 A 
ATOM     10  C   UNL     1       1.506   4.450  19.946  0.00  0.00    +0.000 A 
ATOM     11  C   UNL     1       1.272   5.635  20.637  0.00  0.00    +0.000 A 
ATOM     12  C   UNL     1       1.987   6.793  20.313  0.00  0.00    +0.000 A 
ATOM     13  C   UNL     1       2.947   6.785  19.292  0.00  0.00    +0.000 A 
ATOM     14  C   UNL     1       3.202   5.610  18.601  0.00  0.00    +0.000 A 
ENDROOT
BRANCH   8  15
ATOM     15  C   UNL     1       3.517   2.100  18.981  0.00  0.00    +0.000 C 
ATOM     16  F   UNL     1       2.703   1.757  20.009  0.00  0.00    +0.000 F 
ATOM     17  F   UNL     1       3.771   0.967  18.289  0.00  0.00    +0.000 F 
ATOM     18  F   UNL     1       4.694   2.487  19.545  0.00  0.00    +0.000 F 
ENDBRANCH   8  15
BRANCH   8  19
ATOM     19  O   UNL     1       1.832   2.870  17.271  0.00  0.00    +0.000 OA
ATOM     20  H   UNL     1       2.208   2.438  16.485  0.00  0.00    +0.000 HD
ENDBRANCH   8  19
BRANCH   1  21
ATOM     21  O   UNL     1       6.332   3.381  14.518  0.00  0.00    +0.000 OA
BRANCH  21  22
ATOM     22  C   UNL     1       6.400   4.007  13.237  0.00  0.00    +0.000 C 
BRANCH  22  25
ATOM     23  C   UNL     1       3.639   2.946  10.835  0.00  0.00    +0.000 C 
ATOM     24  N   UNL     1       4.444   3.633  11.807  0.00  0.00    +0.000 N 
ATOM     25  C   UNL     1       5.682   3.158  12.188  0.00  0.00    +0.000 C 
ATOM     26  O   UNL     1       6.183   2.139  11.719  0.00  0.00    +0.000 OA
ATOM     27  H   UNL     1       4.119   4.490  12.242  0.00  0.00    +0.000 HD
ENDBRANCH  22  25
ENDBRANCH  21  22
ENDBRANCH   1  21
TORSDOF 5
ENDMDL
MODEL 3
REMARK VINA RESULT:      -7.1      5.138      8.393
REMARK  Name = 
REMARK  6 active torsions:
REMARK  status: ('A' for Active; 'I' for Inactive)
REMARK    1  A    between atoms: C_1  and  N_2
REMARK    2  A    between atoms: C_3  and  C_5
REMARK    3  A    between atoms: C_5  and  O_6
REMARK    4  A    between atoms: O_6  and  C_7
REMARK    5  A    between atoms: C_14  and  O_15
REMARK    6  A    between atoms: C_14  and  C_16
REMARK                            x       y       z     vdW  Elec       q    Type
REMARK                         _______ _______ _______ _____ _____    ______ ____
ROOT
ATOM      1  C   UNL     1       0.480   8.278  21.034  0.00  0.00    +0.000 A 
ATOM      2  C   UNL     1       0.890   9.197  20.062  0.00  0.00    +0.000 A 
ATOM      3  C   UNL     1       1.819   8.837  19.067  0.00  0.00    +0.000 A 
ATOM      4 BR   UNL     1       2.294  10.197  17.837  0.00  0.00    +0.000 Br
ATOM      5  C   UNL     1       2.333   7.544  19.040  0.00  0.00    +0.000 A 
ATOM      6  C   UNL     1       1.907   6.628  20.033  0.00  0.00    +0.000 A 
ATOM      7  C   UNL     1       1.006   6.988  21.035  0.00  0.00    +0.000 A 
ATOM      8  C   UNL     1       2.554   5.258  19.828  0.00  0.00    +0.000 C 
ATOM      9  C   UNL     1       3.445   5.527  18.622  0.00  0.00    +0.000 A 
ATOM     10  C   UNL     1       4.301   4.629  17.987  0.00  0.00    +0.000 A 
ATOM     11  C   UNL     1       4.990   5.059  16.857  0.00  0.00    +0.000 A 
ATOM     12  C   UNL     1       4.834   6.368  16.392  0.00  0.00    +0.000 A 
ATOM     13  C   UNL     1       3.986   7.270  17.049  0.00  0.00    +0.000 A 
ATOM     14  C   UNL     1       3.282   6.855  18.170  0.00  0.00    +0.000 A 
ENDROOT
BRANCH   8  15
ATOM     15  C   UNL     1       1.518   4.117  19.566  0.00  0.00    +0.000 C 
ATOM     16  F   UNL     1       0.448   4.176  20.395  0.00  0.00    +0.000 F 
ATOM     17  F   UNL     1       1.033   4.093  18.304  0.00  0.00    +0.000 F 
ATOM     18  F   UNL     1       2.098   2.904  19.785  0.00  0.00    +0.000 F 
ENDBRANCH   8  15
BRANCH   8  19
ATOM     19  O   UNL     1       3.416   5.021  20.956  0.00  0.00    +0.000 OA
ATOM     20  H   UNL     1       4.254   5.483  20.778  0.00  0.00    +0.000 HD
ENDBRANCH   8  19
BRANCH   1  21
ATOM     21  O   UNL     1      -0.382   8.549  22.061  0.00  0.00    +0.000 OA
BRANCH  21  22
ATOM     22  C   UNL     1       0.058   9.488  23.042  0.00  0.00    +0.000 C 
BRANCH  22  25
ATOM     23  C   UNL     1      -2.544  12.269  23.139  0.00  0.00    +0.000 C 
ATOM     24  N   UNL     1      -1.825  11.036  23.302  0.00  0.00    +0.000 N 
ATOM     25  C   UNL     1      -0.559  10.862  22.781  0.00  0.00    +0.000 C 
ATOM     26  O   UNL     1       0.040  11.740  22.164  0.00  0.00    +0.000 OA
ATOM     27  H   UNL     1      -2.233  10.257  23.807  0.00  0.00    +0.000 HD
ENDBRANCH  22  25
ENDBRANCH  21  22
ENDBRANCH   1  21
TORSDOF 5
ENDMDL
MODEL 4
REMARK VINA RESULT:      -7.0      4.421      5.987
REMARK  Name = 
REMARK  6 active torsions:
REMARK  status: ('A' for Active; 'I' for Inactive)
REMARK    1  A    between atoms: C_1  and  N_2
REMARK    2  A    between atoms: C_3  and  C_5
REMARK    3  A    between atoms: C_5  and  O_6
REMARK    4  A    between atoms: O_6  and  C_7
REMARK    5  A    between atoms: C_14  and  O_15
REMARK    6  A    between atoms: C_14  and  C_16
REMARK                            x       y       z     vdW  Elec       q    Type
REMARK                         _______ _______ _______ _____ _____    ______ ____
ROOT
ATOM      1  C   UNL     1       6.622   6.980  16.949  0.00  0.00    +0.000 A 
ATOM      2  C   UNL     1       6.676   5.858  16.114  0.00  0.00    +0.000 A 
ATOM      3  C   UNL     1       5.708   4.840  16.201  0.00  0.00    +0.000 A 
ATOM      4 BR   UNL     1       5.931   3.374  15.022  0.00  0.00    +0.000 Br
ATOM      5  C   UNL     1       4.673   4.950  17.124  0.00  0.00    +0.000 A 
ATOM      6  C   UNL     1       4.635   6.093  17.961  0.00  0.00    +0.000 A 
ATOM      7  C   UNL     1       5.606   7.092  17.895  0.00  0.00    +0.000 A 
ATOM      8  C   UNL     1       3.418   6.053  18.885  0.00  0.00    +0.000 C 
ATOM      9  C   UNL     1       2.797   4.716  18.505  0.00  0.00    +0.000 A 
ATOM     10  C   UNL     1       1.653   4.131  19.045  0.00  0.00    +0.000 A 
ATOM     11  C   UNL     1       1.216   2.921  18.514  0.00  0.00    +0.000 A 
ATOM     12  C   UNL     1       1.928   2.307  17.478  0.00  0.00    +0.000 A 
ATOM     13  C   UNL     1       3.088   2.892  16.956  0.00  0.00    +0.000 A 
ATOM     14  C   UNL     1       3.532   4.105  17.464  0.00  0.00    +0.000 A 
ENDROOT
BRANCH   8  15
ATOM     15  C   UNL     1       2.437   7.253  18.671  0.00  0.00    +0.000 C 
ATOM     16  F   UNL     1       3.076   8.403  18.346  0.00  0.00    +0.000 F 
ATOM     17  F   UNL     1       1.508   7.038  17.713  0.00  0.00    +0.000 F 
ATOM     18  F   UNL     1       1.760   7.510  19.824  0.00  0.00    +0.000 F 
ENDBRANCH   8  15
BRANCH   8  19
ATOM     19  O   UNL     1       3.911   5.932  20.233  0.00  0.00    +0.000 OA
ATOM     20  H   UNL     1       3.836   4.994  20.482  0.00  0.00    +0.000 HD
ENDBRANCH   8  19
BRANCH   1  21
ATOM     21  O   UNL     1       7.539   7.994  16.966  0.00  0.00    +0.000 OA
BRANCH  21  22
ATOM     22  C   UNL     1       8.290   8.165  18.168  0.00  0.00    +0.000 C 
BRANCH  22  25
ATOM     23  C   UNL     1       9.728  11.251  19.880  0.00  0.00    +0.000 C 
ATOM     24  N   UNL     1       9.365   9.909  19.515  0.00  0.00    +0.000 N 
ATOM     25  C   UNL     1       8.586   9.646  18.407  0.00  0.00    +0.000 C 
ATOM     26  O   UNL     1       8.167  10.525  17.657  0.00  0.00    +0.000 OA
ATOM     27  H   UNL     1       9.674   9.116  20.068  0.00  0.00    +0.000 HD
ENDBRANCH  22  25
ENDBRANCH  21  22
ENDBRANCH   1  21
TORSDOF 5
ENDMDL
MODEL 5
REMARK VINA RESULT:      -6.8     10.080     11.661
REMARK  Name = 
REMARK  6 active torsions:
REMARK  status: ('A' for Active; 'I' for Inactive)
REMARK    1  A    between atoms: C_1  and  N_2
REMARK    2  A    between atoms: C_3  and  C_5
REMARK    3  A    between atoms: C_5  and  O_6
REMARK    4  A    between atoms: O_6  and  C_7
REMARK    5  A    between atoms: C_14  and  O_15
REMARK    6  A    between atoms: C_14  and  C_16
REMARK                            x       y       z     vdW  Elec       q    Type
REMARK                         _______ _______ _______ _____ _____    ______ ____
ROOT
ATOM      1  C   UNL     1      -3.260  10.180  16.396  0.00  0.00    +0.000 A 
ATOM      2  C   UNL     1      -2.095  10.236  17.170  0.00  0.00    +0.000 A 
ATOM      3  C   UNL     1      -2.053  10.971  18.370  0.00  0.00    +0.000 A 
ATOM      4 BR   UNL     1      -0.398  10.971  19.291  0.00  0.00    +0.000 Br
ATOM      5  C   UNL     1      -3.189  11.646  18.804  0.00  0.00    +0.000 A 
ATOM      6  C   UNL     1      -4.360  11.578  18.008  0.00  0.00    +0.000 A 
ATOM      7  C   UNL     1      -4.398  10.872  16.806  0.00  0.00    +0.000 A 
ATOM      8  C   UNL     1      -5.507  12.354  18.654  0.00  0.00    +0.000 C 
ATOM      9  C   UNL     1      -4.825  12.917  19.894  0.00  0.00    +0.000 A 
ATOM     10  C   UNL     1      -5.390  13.735  20.871  0.00  0.00    +0.000 A 
ATOM     11  C   UNL     1      -4.608  14.096  21.964  0.00  0.00    +0.000 A 
ATOM     12  C   UNL     1      -3.282  13.659  22.058  0.00  0.00    +0.000 A 
ATOM     13  C   UNL     1      -2.717  12.853  21.061  0.00  0.00    +0.000 A 
ATOM     14  C   UNL     1      -3.486  12.473  19.970  0.00  0.00    +0.000 A 
ENDROOT
BRANCH   8  15
ATOM     15  C   UNL     1      -6.742  11.459  19.002  0.00  0.00    +0.000 C 
ATOM     16  F   UNL     1      -7.068  10.602  18.005  0.00  0.00    +0.000 F 
ATOM     17  F   UNL     1      -6.585  10.716  20.120  0.00  0.00    +0.000 F 
ATOM     18  F   UNL     1      -7.839  12.241  19.203  0.00  0.00    +0.000 F 
ENDBRANCH   8  15
BRANCH   8  19
ATOM     19  O   UNL     1      -5.812  13.463  17.789  0.00  0.00    +0.000 OA
ATOM     20  H   UNL     1      -4.966  13.791  17.435  0.00  0.00    +0.000 HD
ENDBRANCH   8  19
BRANCH   1  21
ATOM     21  O   UNL     1      -3.381   9.530  15.199  0.00  0.00    +0.000 OA
BRANCH  21  22
ATOM     22  C   UNL     1      -3.145  10.300  14.020  0.00  0.00    +0.000 C 
BRANCH  22  25
ATOM     23  C   UNL     1      -6.165   9.073  12.046  0.00  0.00    +0.000 C 
ATOM     24  N   UNL     1      -5.288   9.602  13.055  0.00  0.00    +0.000 N 
ATOM     25  C   UNL     1      -3.930   9.725  12.841  0.00  0.00    +0.000 C 
ATOM     26  O   UNL     1      -3.385   9.412  11.785  0.00  0.00    +0.000 OA
ATOM     27  H   UNL     1      -5.648   9.898  13.955  0.00  0.00    +0.000 HD
ENDBRANCH  22  25
ENDBRANCH  21  22
ENDBRANCH   1  21
TORSDOF 5
ENDMDL
MODEL 6
REMARK VINA RESULT:      -6.8      6.444      8.285
REMARK  Name = 
REMARK  6 active torsions:
REMARK  status: ('A' for Active; 'I' for Inactive)
REMARK    1  A    between atoms: C_1  and  N_2
REMARK    2  A    between atoms: C_3  and  C_5
REMARK    3  A    between atoms: C_5  and  O_6
REMARK    4  A    between atoms: O_6  and  C_7
REMARK    5  A    between atoms: C_14  and  O_15
REMARK    6  A    between atoms: C_14  and  C_16
REMARK                            x       y       z     vdW  Elec       q    Type
REMARK                         _______ _______ _______ _____ _____    ______ ____
ROOT
ATOM      1  C   UNL     1       1.568   8.798  18.384  0.00  0.00    +0.000 A 
ATOM      2  C   UNL     1       1.687   8.667  19.772  0.00  0.00    +0.000 A 
ATOM      3  C   UNL     1       0.880   9.420  20.646  0.00  0.00    +0.000 A 
ATOM      4 BR   UNL     1       1.177   9.151  22.498  0.00  0.00    +0.000 Br
ATOM      5  C   UNL     1      -0.062  10.302  20.126  0.00  0.00    +0.000 A 
ATOM      6  C   UNL     1      -0.168  10.421  18.718  0.00  0.00    +0.000 A 
ATOM      7  C   UNL     1       0.647   9.697  17.849  0.00  0.00    +0.000 A 
ATOM      8  C   UNL     1      -1.268  11.411  18.334  0.00  0.00    +0.000 C 
ATOM      9  C   UNL     1      -1.738  11.881  19.705  0.00  0.00    +0.000 A 
ATOM     10  C   UNL     1      -2.732  12.818  19.982  0.00  0.00    +0.000 A 
ATOM     11  C   UNL     1      -3.054  13.066  21.313  0.00  0.00    +0.000 A 
ATOM     12  C   UNL     1      -2.375  12.400  22.339  0.00  0.00    +0.000 A 
ATOM     13  C   UNL     1      -1.363  11.475  22.051  0.00  0.00    +0.000 A 
ATOM     14  C   UNL     1      -1.038  11.206  20.729  0.00  0.00    +0.000 A 
ENDROOT
BRANCH   8  15
ATOM     15  C   UNL     1      -2.418  10.765  17.494  0.00  0.00    +0.000 C 
ATOM     16  F   UNL     1      -3.497  11.576  17.369  0.00  0.00    +0.000 F 
ATOM     17  F   UNL     1      -2.052  10.407  16.244  0.00  0.00    +0.000 F 
ATOM     18  F   UNL     1      -2.864   9.636  18.111  0.00  0.00    +0.000 F 
ENDBRANCH   8  15
BRANCH   8  19
ATOM     19  O   UNL     1      -0.629  12.530  17.691  0.00  0.00    +0.000 OA
ATOM     20  H   UNL     1       0.150  12.183  17.222  0.00  0.00    +0.000 HD
ENDBRANCH   8  19
BRANCH   1  21
ATOM     21  O   UNL     1       2.336   8.143  17.462  0.00  0.00    +0.000 OA
BRANCH  21  22
ATOM     22  C   UNL     1       3.451   7.403  17.960  0.00  0.00    +0.000 C 
BRANCH  22  25
ATOM     23  C   UNL     1       4.231   3.807  16.969  0.00  0.00    +0.000 C 
ATOM     24  N   UNL     1       4.288   5.222  17.216  0.00  0.00    +0.000 N 
ATOM     25  C   UNL     1       3.224   5.903  17.771  0.00  0.00    +0.000 C 
ATOM     26  O   UNL     1       2.176   5.355  18.104  0.00  0.00    +0.000 OA
ATOM     27  H   UNL     1       5.117   5.759  16.985  0.00  0.00    +0.000 HD
ENDBRANCH  22  25
ENDBRANCH  21  22
ENDBRANCH   1  21
TORSDOF 5
ENDMDL
MODEL 7
REMARK VINA RESULT:      -6.8     10.237     12.602
REMARK  Name = 
REMARK  6 active torsions:
REMARK  status: ('A' for Active; 'I' for Inactive)
REMARK    1  A    between atoms: C_1  and  N_2
REMARK    2  A    between atoms: C_3  and  C_5
REMARK    3  A    between atoms: C_5  and  O_6
REMARK    4  A    between atoms: O_6  and  C_7
REMARK    5  A    between atoms: C_14  and  O_15
REMARK    6  A    between atoms: C_14  and  C_16
REMARK                            x       y       z     vdW  Elec       q    Type
REMARK                         _______ _______ _______ _____ _____    ______ ____
ROOT
ATOM      1  C   UNL     1       8.238  12.102  22.612  0.00  0.00    +0.000 A 
ATOM      2  C   UNL     1       7.869  13.452  22.626  0.00  0.00    +0.000 A 
ATOM      3  C   UNL     1       8.307  14.335  21.621  0.00  0.00    +0.000 A 
ATOM      4 BR   UNL     1       7.745  16.137  21.791  0.00  0.00    +0.000 Br
ATOM      5  C   UNL     1       9.111  13.861  20.590  0.00  0.00    +0.000 A 
ATOM      6  C   UNL     1       9.475  12.492  20.593  0.00  0.00    +0.000 A 
ATOM      7  C   UNL     1       9.064  11.619  21.600  0.00  0.00    +0.000 A 
ATOM      8  C   UNL     1      10.333  12.151  19.375  0.00  0.00    +0.000 C 
ATOM      9  C   UNL     1      10.456  13.513  18.705  0.00  0.00    +0.000 A 
ATOM     10  C   UNL     1      11.155  13.822  17.540  0.00  0.00    +0.000 A 
ATOM     11  C   UNL     1      11.095  15.126  17.059  0.00  0.00    +0.000 A 
ATOM     12  C   UNL     1      10.364  16.099  17.748  0.00  0.00    +0.000 A 
ATOM     13  C   UNL     1       9.680  15.784  18.930  0.00  0.00    +0.000 A 
ATOM     14  C   UNL     1       9.720  14.486  19.418  0.00  0.00    +0.000 A 
ENDROOT
BRANCH   8  15
ATOM     15  C   UNL     1       9.683  11.079  18.439  0.00  0.00    +0.000 C 
ATOM     16  F   UNL     1       9.466   9.897  19.065  0.00  0.00    +0.000 F 
ATOM     17  F   UNL     1       8.502  11.460  17.904  0.00  0.00    +0.000 F 
ATOM     18  F   UNL     1      10.515  10.807  17.397  0.00  0.00    +0.000 F 
ENDBRANCH   8  15
BRANCH   8  19
ATOM     19  O   UNL     1      11.639  11.790  19.861  0.00  0.00    +0.000 OA
ATOM     20  H   UNL     1      11.864  10.929  19.466  0.00  0.00    +0.000 HD
ENDBRANCH   8  19
BRANCH   1  21
ATOM     21  O   UNL     1       7.897  11.183  23.566  0.00  0.00    +0.000 OA
BRANCH  21  22
ATOM     22  C   UNL     1       7.651  11.679  24.882  0.00  0.00    +0.000 C 
BRANCH  22  25
ATOM     23  C   UNL     1       4.598  10.439  26.794  0.00  0.00    +0.000 C 
ATOM     24  N   UNL     1       5.933  10.697  26.329  0.00  0.00    +0.000 N 
ATOM     25  C   UNL     1       6.175  11.518  25.246  0.00  0.00    +0.000 C 
ATOM     26  O   UNL     1       5.283  12.089  24.623  0.00  0.00    +0.000 OA
ATOM     27  H   UNL     1       6.735  10.279  26.786  0.00  0.00    +0.000 HD
ENDBRANCH  22  25
ENDBRANCH  21  22
ENDBRANCH   1  21
TORSDOF 5
ENDMDL
MODEL 8
REMARK VINA RESULT:      -6.8      6.630      8.485
REMARK  Name = 
REMARK  6 active torsions:
REMARK  status: ('A' for Active; 'I' for Inactive)
REMARK    1  A    between atoms: C_1  and  N_2
REMARK    2  A    between atoms: C_3  and  C_5
REMARK    3  A    between atoms: C_5  and  O_6
REMARK    4  A    between atoms: O_6  and  C_7
REMARK    5  A    between atoms: C_14  and  O_15
REMARK    6  A    between atoms: C_14  and  C_16
REMARK                            x       y       z     vdW  Elec       q    Type
REMARK                         _______ _______ _______ _____ _____    ______ ____
ROOT
ATOM      1  C   UNL     1       1.541   8.787  18.650  0.00  0.00    +0.000 A 
ATOM      2  C   UNL     1       1.569   8.704  20.047  0.00  0.00    +0.000 A 
ATOM      3  C   UNL     1       0.722   9.501  20.840  0.00  0.00    +0.000 A 
ATOM      4 BR   UNL     1       0.895   9.294  22.715  0.00  0.00    +0.000 Br
ATOM      5  C   UNL     1      -0.167  10.380  20.229  0.00  0.00    +0.000 A 
ATOM      6  C   UNL     1      -0.181  10.450  18.814  0.00  0.00    +0.000 A 
ATOM      7  C   UNL     1       0.674   9.681  18.026  0.00  0.00    +0.000 A 
ATOM      8  C   UNL     1      -1.235  11.445  18.326  0.00  0.00    +0.000 C 
ATOM      9  C   UNL     1      -1.782  11.971  19.646  0.00  0.00    +0.000 A 
ATOM     10  C   UNL     1      -2.774  12.934  19.826  0.00  0.00    +0.000 A 
ATOM     11  C   UNL     1      -3.175  13.235  21.124  0.00  0.00    +0.000 A 
ATOM     12  C   UNL     1      -2.576  12.595  22.214  0.00  0.00    +0.000 A 
ATOM     13  C   UNL     1      -1.566  11.643  22.024  0.00  0.00    +0.000 A 
ATOM     14  C   UNL     1      -1.162  11.321  20.737  0.00  0.00    +0.000 A 
ENDROOT
BRANCH   8  15
ATOM     15  C   UNL     1      -2.341  10.788  17.437  0.00  0.00    +0.000 C 
ATOM     16  F   UNL     1      -3.327  11.655  17.100  0.00  0.00    +0.000 F 
ATOM     17  F   UNL     1      -1.877  10.258  16.284  0.00  0.00    +0.000 F 
ATOM     18  F   UNL     1      -2.944   9.776  18.119  0.00  0.00    +0.000 F 
ENDBRANCH   8  15
BRANCH   8  19
ATOM     19  O   UNL     1      -0.534  12.528  17.688  0.00  0.00    +0.000 OA
ATOM     20  H   UNL     1       0.354  12.201  17.461  0.00  0.00    +0.000 HD
ENDBRANCH   8  19
BRANCH   1  21
ATOM     21  O   UNL     1       2.354   8.086  17.803  0.00  0.00    +0.000 OA
BRANCH  21  22
ATOM     22  C   UNL     1       2.595   6.716  18.126  0.00  0.00    +0.000 C 
BRANCH  22  25
ATOM     23  C   UNL     1       5.960   5.134  18.961  0.00  0.00    +0.000 C 
ATOM     24  N   UNL     1       4.580   5.536  18.950  0.00  0.00    +0.000 N 
ATOM     25  C   UNL     1       4.082   6.388  17.986  0.00  0.00    +0.000 C 
ATOM     26  O   UNL     1       4.767   6.844  17.074  0.00  0.00    +0.000 OA
ATOM     27  H   UNL     1       3.934   5.202  19.657  0.00  0.00    +0.000 HD
ENDBRANCH  22  25
ENDBRANCH  21  22
ENDBRANCH   1  21
TORSDOF 5
ENDMDL
MODEL 9
REMARK VINA RESULT:      -6.7      4.635      7.892
REMARK  Name = 
REMARK  6 active torsions:
REMARK  status: ('A' for Active; 'I' for Inactive)
REMARK    1  A    between atoms: C_1  and  N_2
REMARK    2  A    between atoms: C_3  and  C_5
REMARK    3  A    between atoms: C_5  and  O_6
REMARK    4  A    between atoms: O_6  and  C_7
REMARK    5  A    between atoms: C_14  and  O_15
REMARK    6  A    between atoms: C_14  and  C_16
REMARK                            x       y       z     vdW  Elec       q    Type
REMARK                         _______ _______ _______ _____ _____    ______ ____
ROOT
ATOM      1  C   UNL     1       1.152   7.396  20.861  0.00  0.00    +0.000 A 
ATOM      2  C   UNL     1       1.661   8.243  19.870  0.00  0.00    +0.000 A 
ATOM      3  C   UNL     1       2.475   7.744  18.835  0.00  0.00    +0.000 A 
ATOM      4 BR   UNL     1       3.109   9.017  17.584  0.00  0.00    +0.000 Br
ATOM      5  C   UNL     1       2.773   6.386  18.787  0.00  0.00    +0.000 A 
ATOM      6  C   UNL     1       2.249   5.544  19.799  0.00  0.00    +0.000 A 
ATOM      7  C   UNL     1       1.463   6.039  20.840  0.00  0.00    +0.000 A 
ATOM      8  C   UNL     1       2.657   4.089  19.568  0.00  0.00    +0.000 C 
ATOM      9  C   UNL     1       3.525   4.218  18.323  0.00  0.00    +0.000 A 
ATOM     10  C   UNL     1       4.197   3.197  17.652  0.00  0.00    +0.000 A 
ATOM     11  C   UNL     1       4.895   3.517  16.492  0.00  0.00    +0.000 A 
ATOM     12  C   UNL     1       4.932   4.838  16.032  0.00  0.00    +0.000 A 
ATOM     13  C   UNL     1       4.271   5.861  16.725  0.00  0.00    +0.000 A 
ATOM     14  C   UNL     1       3.559   5.558  17.877  0.00  0.00    +0.000 A 
ENDROOT
BRANCH   8  15
ATOM     15  C   UNL     1       1.440   3.131  19.353  0.00  0.00    +0.000 C 
ATOM     16  F   UNL     1       1.790   1.822  19.378  0.00  0.00    +0.000 F 
ATOM     17  F   UNL     1       0.450   3.287  20.260  0.00  0.00    +0.000 F 
ATOM     18  F   UNL     1       0.887   3.350  18.129  0.00  0.00    +0.000 F 
ENDBRANCH   8  15
BRANCH   8  19
ATOM     19  O   UNL     1       3.518   3.710  20.657  0.00  0.00    +0.000 OA
ATOM     20  H   UNL     1       2.955   3.605  21.444  0.00  0.00    +0.000 HD
ENDBRANCH   8  19
BRANCH   1  21
ATOM     21  O   UNL     1       0.391   7.797  21.924  0.00  0.00    +0.000 OA
BRANCH  21  22
ATOM     22  C   UNL     1      -0.634   8.755  21.660  0.00  0.00    +0.000 C 
BRANCH  22  25
ATOM     23  C   UNL     1      -1.111  12.310  22.946  0.00  0.00    +0.000 C 
ATOM     24  N   UNL     1      -1.145  11.097  22.176  0.00  0.00    +0.000 N 
ATOM     25  C   UNL     1      -0.502   9.952  22.602  0.00  0.00    +0.000 C 
ATOM     26  O   UNL     1       0.120   9.885  23.659  0.00  0.00    +0.000 OA
ATOM     27  H   UNL     1      -1.643  11.052  21.294  0.00  0.00    +0.000 HD
ENDBRANCH  22  25
ENDBRANCH  21  22
ENDBRANCH   1  21
TORSDOF 5
ENDMDL
