MODEL 1
REMARK VINA RESULT:      -7.9      0.000      0.000
REMARK  Name = 
REMARK  4 active torsions:
REMARK  status: ('A' for Active; 'I' for Inactive)
REMARK    1  A    between atoms: C_1  and  C_2
REMARK    2  A    between atoms: C_5  and  S_6
REMARK    3  A    between atoms: S_6  and  C_7
REMARK    4  A    between atoms: C_26  and  C_27
REMARK                            x       y       z     vdW  Elec       q    Type
REMARK                         _______ _______ _______ _____ _____    ______ ____
ROOT
ATOM      1  C   UNL     1       0.882  10.307  19.095  0.00  0.00    +0.000 A 
ATOM      2  C   UNL     1       1.718   9.549  18.252  0.00  0.00    +0.000 A 
ATOM      3  C   UNL     1       2.203   8.253  18.590  0.00  0.00    +0.000 A 
ATOM      4  C   UNL     1       1.899   7.614  19.806  0.00  0.00    +0.000 A 
ATOM      5  C   UNL     1       1.070   8.334  20.710  0.00  0.00    +0.000 A 
ATOM      6  N   UNL     1       0.652   7.948  21.926  0.00  0.00    +0.000 NA
ATOM      7  S   UNL     1      -0.272   9.163  22.555  0.00  0.00    +0.000 S 
ATOM      8  N   UNL     1      -0.211  10.255  21.316  0.00  0.00    +0.000 NA
ATOM      9  C   UNL     1       0.550   9.715  20.347  0.00  0.00    +0.000 A 
ATOM     10  C   UNL     1       2.426   6.271  20.115  0.00  0.00    +0.000 C 
ATOM     11  O   UNL     1       2.182   5.704  21.171  0.00  0.00    +0.000 OA
ATOM     12  C   UNL     1       3.277   5.589  19.122  0.00  0.00    +0.000 A 
ATOM     13  C   UNL     1       3.771   4.306  19.400  0.00  0.00    +0.000 A 
ATOM     14  C   UNL     1       4.572   3.645  18.468  0.00  0.00    +0.000 A 
ATOM     15  C   UNL     1       4.883   4.262  17.257  0.00  0.00    +0.000 A 
ATOM     16  C   UNL     1       4.394   5.540  16.978  0.00  0.00    +0.000 A 
ATOM     17  C   UNL     1       3.588   6.206  17.913  0.00  0.00    +0.000 A 
ATOM     18  C   UNL     1       3.073   7.557  17.610  0.00  0.00    +0.000 C 
ATOM     19  O   UNL     1       3.361   8.101  16.550  0.00  0.00    +0.000 OA
ENDROOT
BRANCH   1  20
ATOM     20  S   UNL     1       0.357  11.951  18.717  0.00  0.00    +0.000 S 
BRANCH  20  25
ATOM     21  C   UNL     1      -5.658  11.076  17.978  0.00  0.00    +0.000 C 
ATOM     22  C   UNL     1      -4.184  11.314  18.137  0.00  0.00    +0.000 A 
ATOM     23  C   UNL     1      -3.255  10.696  17.301  0.00  0.00    +0.000 A 
ATOM     24  C   UNL     1      -1.884  10.921  17.479  0.00  0.00    +0.000 A 
ATOM     25  C   UNL     1      -1.412  11.777  18.487  0.00  0.00    +0.000 A 
ATOM     26  C   UNL     1      -2.342  12.397  19.344  0.00  0.00    +0.000 A 
ATOM     27  C   UNL     1      -1.967  13.289  20.496  0.00  0.00    +0.000 C 
ATOM     28  C   UNL     1      -3.720  12.156  19.153  0.00  0.00    +0.000 A 
ENDBRANCH  20  25
ENDBRANCH   1  20
TORSDOF 2
ENDMDL
MODEL 2
REMARK VINA RESULT:      -7.7      3.622      8.185
REMARK  Name = 
REMARK  4 active torsions:
REMARK  status: ('A' for Active; 'I' for Inactive)
REMARK    1  A    between atoms: C_1  and  C_2
REMARK    2  A    between atoms: C_5  and  S_6
REMARK    3  A    between atoms: S_6  and  C_7
REMARK    4  A    between atoms: C_26  and  C_27
REMARK                            x       y       z     vdW  Elec       q    Type
REMARK                         _______ _______ _______ _____ _____    ______ ____
ROOT
ATOM      1  C   UNL     1       3.752   4.110  18.253  0.00  0.00    +0.000 A 
ATOM      2  C   UNL     1       3.622   5.408  17.722  0.00  0.00    +0.000 A 
ATOM      3  C   UNL     1       2.942   6.464  18.393  0.00  0.00    +0.000 A 
ATOM      4  C   UNL     1       2.327   6.305  19.648  0.00  0.00    +0.000 A 
ATOM      5  C   UNL     1       2.410   5.010  20.234  0.00  0.00    +0.000 A 
ATOM      6  N   UNL     1       1.900   4.607  21.408  0.00  0.00    +0.000 NA
ATOM      7  S   UNL     1       2.270   3.010  21.600  0.00  0.00    +0.000 S 
ATOM      8  N   UNL     1       3.114   2.730  20.208  0.00  0.00    +0.000 NA
ATOM      9  C   UNL     1       3.139   3.885  19.518  0.00  0.00    +0.000 A 
ATOM     10  C   UNL     1       1.632   7.427  20.306  0.00  0.00    +0.000 C 
ATOM     11  O   UNL     1       1.082   7.304  21.391  0.00  0.00    +0.000 OA
ATOM     12  C   UNL     1       1.594   8.740  19.634  0.00  0.00    +0.000 A 
ATOM     13  C   UNL     1       0.947   9.817  20.257  0.00  0.00    +0.000 A 
ATOM     14  C   UNL     1       0.909  11.067  19.637  0.00  0.00    +0.000 A 
ATOM     15  C   UNL     1       1.513  11.244  18.393  0.00  0.00    +0.000 A 
ATOM     16  C   UNL     1       2.155  10.172  17.769  0.00  0.00    +0.000 A 
ATOM     17  C   UNL     1       2.196   8.916  18.391  0.00  0.00    +0.000 A 
ATOM     18  C   UNL     1       2.881   7.788  17.725  0.00  0.00    +0.000 C 
ATOM     19  O   UNL     1       3.398   7.946  16.626  0.00  0.00    +0.000 OA
ENDROOT
BRANCH   1  20
ATOM     20  S   UNL     1       4.513   2.776  17.380  0.00  0.00    +0.000 S 
BRANCH  20  25
ATOM     21  C   UNL     1       7.890   5.774  13.245  0.00  0.00    +0.000 C 
ATOM     22  C   UNL     1       7.079   5.013  14.253  0.00  0.00    +0.000 A 
ATOM     23  C   UNL     1       5.976   4.252  13.871  0.00  0.00    +0.000 A 
ATOM     24  C   UNL     1       5.225   3.562  14.832  0.00  0.00    +0.000 A 
ATOM     25  C   UNL     1       5.568   3.608  16.193  0.00  0.00    +0.000 A 
ATOM     26  C   UNL     1       6.674   4.384  16.590  0.00  0.00    +0.000 A 
ATOM     27  C   UNL     1       7.112   4.563  18.019  0.00  0.00    +0.000 C 
ATOM     28  C   UNL     1       7.417   5.075  15.609  0.00  0.00    +0.000 A 
ENDBRANCH  20  25
ENDBRANCH   1  20
TORSDOF 2
ENDMDL
MODEL 3
REMARK VINA RESULT:      -7.6      3.922      8.950
REMARK  Name = 
REMARK  4 active torsions:
REMARK  status: ('A' for Active; 'I' for Inactive)
REMARK    1  A    between atoms: C_1  and  C_2
REMARK    2  A    between atoms: C_5  and  S_6
REMARK    3  A    between atoms: S_6  and  C_7
REMARK    4  A    between atoms: C_26  and  C_27
REMARK                            x       y       z     vdW  Elec       q    Type
REMARK                         _______ _______ _______ _____ _____    ______ ____
ROOT
ATOM      1  C   UNL     1      -1.247  12.100  19.282  0.00  0.00    +0.000 A 
ATOM      2  C   UNL     1      -1.834  12.558  20.477  0.00  0.00    +0.000 A 
ATOM      3  C   UNL     1      -3.239  12.553  20.713  0.00  0.00    +0.000 A 
ATOM      4  C   UNL     1      -4.173  12.099  19.764  0.00  0.00    +0.000 A 
ATOM      5  C   UNL     1      -3.645  11.637  18.526  0.00  0.00    +0.000 A 
ATOM      6  N   UNL     1      -4.325  11.168  17.467  0.00  0.00    +0.000 NA
ATOM      7  S   UNL     1      -3.232  10.785  16.292  0.00  0.00    +0.000 S 
ATOM      8  N   UNL     1      -1.821  11.177  17.057  0.00  0.00    +0.000 NA
ATOM      9  C   UNL     1      -2.145  11.639  18.278  0.00  0.00    +0.000 A 
ATOM     10  C   UNL     1      -5.620  12.115  20.049  0.00  0.00    +0.000 C 
ATOM     11  O   UNL     1      -6.447  11.734  19.234  0.00  0.00    +0.000 OA
ATOM     12  C   UNL     1      -6.087  12.607  21.360  0.00  0.00    +0.000 A 
ATOM     13  C   UNL     1      -7.460  12.613  21.647  0.00  0.00    +0.000 A 
ATOM     14  C   UNL     1      -7.916  13.069  22.884  0.00  0.00    +0.000 A 
ATOM     15  C   UNL     1      -7.005  13.522  23.836  0.00  0.00    +0.000 A 
ATOM     16  C   UNL     1      -5.638  13.520  23.553  0.00  0.00    +0.000 A 
ATOM     17  C   UNL     1      -5.176  13.061  22.310  0.00  0.00    +0.000 A 
ATOM     18  C   UNL     1      -3.728  13.059  22.019  0.00  0.00    +0.000 C 
ATOM     19  O   UNL     1      -2.932  13.471  22.854  0.00  0.00    +0.000 OA
ENDROOT
BRANCH   1  20
ATOM     20  S   UNL     1       0.487  12.193  18.954  0.00  0.00    +0.000 S 
BRANCH  20  25
ATOM     21  C   UNL     1       2.549   6.431  19.148  0.00  0.00    +0.000 C 
ATOM     22  C   UNL     1       2.015   7.832  19.090  0.00  0.00    +0.000 A 
ATOM     23  C   UNL     1       2.029   8.566  17.905  0.00  0.00    +0.000 A 
ATOM     24  C   UNL     1       1.539   9.878  17.880  0.00  0.00    +0.000 A 
ATOM     25  C   UNL     1       1.014  10.481  19.035  0.00  0.00    +0.000 A 
ATOM     26  C   UNL     1       1.007   9.752  20.239  0.00  0.00    +0.000 A 
ATOM     27  C   UNL     1       0.527  10.300  21.556  0.00  0.00    +0.000 C 
ATOM     28  C   UNL     1       1.508   8.433  20.248  0.00  0.00    +0.000 A 
ENDBRANCH  20  25
ENDBRANCH   1  20
TORSDOF 2
ENDMDL
MODEL 4
REMARK VINA RESULT:      -7.5      0.506      1.370
REMARK  Name = 
REMARK  4 active torsions:
REMARK  status: ('A' for Active; 'I' for Inactive)
REMARK    1  A    between atoms: C_1  and  C_2
REMARK    2  A    between atoms: C_5  and  S_6
REMARK    3  A    between atoms: S_6  and  C_7
REMARK    4  A    between atoms: C_26  and  C_27
REMARK                            x       y       z     vdW  Elec       q    Type
REMARK                         _______ _______ _______ _____ _____    ______ ____
ROOT
ATOM      1  C   UNL     1       0.870  10.370  19.145  0.00  0.00    +0.000 A 
ATOM      2  C   UNL     1       1.684   9.595  18.297  0.00  0.00    +0.000 A 
ATOM      3  C   UNL     1       2.151   8.292  18.635  0.00  0.00    +0.000 A 
ATOM      4  C   UNL     1       1.850   7.664  19.857  0.00  0.00    +0.000 A 
ATOM      5  C   UNL     1       1.042   8.402  20.767  0.00  0.00    +0.000 A 
ATOM      6  N   UNL     1       0.630   8.028  21.989  0.00  0.00    +0.000 NA
ATOM      7  S   UNL     1      -0.266   9.261  22.621  0.00  0.00    +0.000 S 
ATOM      8  N   UNL     1      -0.200  10.347  21.377  0.00  0.00    +0.000 NA
ATOM      9  C   UNL     1       0.542   9.790  20.402  0.00  0.00    +0.000 A 
ATOM     10  C   UNL     1       2.357   6.314  20.167  0.00  0.00    +0.000 C 
ATOM     11  O   UNL     1       2.114   5.756  21.227  0.00  0.00    +0.000 OA
ATOM     12  C   UNL     1       3.185   5.613  19.167  0.00  0.00    +0.000 A 
ATOM     13  C   UNL     1       3.661   4.323  19.446  0.00  0.00    +0.000 A 
ATOM     14  C   UNL     1       4.441   3.644  18.509  0.00  0.00    +0.000 A 
ATOM     15  C   UNL     1       4.749   4.251  17.293  0.00  0.00    +0.000 A 
ATOM     16  C   UNL     1       4.279   5.536  17.013  0.00  0.00    +0.000 A 
ATOM     17  C   UNL     1       3.495   6.220  17.953  0.00  0.00    +0.000 A 
ATOM     18  C   UNL     1       2.999   7.578  17.649  0.00  0.00    +0.000 C 
ATOM     19  O   UNL     1       3.285   8.112  16.584  0.00  0.00    +0.000 OA
ENDROOT
BRANCH   1  20
ATOM     20  S   UNL     1       0.369  12.022  18.765  0.00  0.00    +0.000 S 
BRANCH  20  25
ATOM     21  C   UNL     1      -5.726  12.110  19.344  0.00  0.00    +0.000 C 
ATOM     22  C   UNL     1      -4.230  12.066  19.225  0.00  0.00    +0.000 A 
ATOM     23  C   UNL     1      -3.414  12.835  20.053  0.00  0.00    +0.000 A 
ATOM     24  C   UNL     1      -2.020  12.790  19.912  0.00  0.00    +0.000 A 
ATOM     25  C   UNL     1      -1.413  11.966  18.951  0.00  0.00    +0.000 A 
ATOM     26  C   UNL     1      -2.230  11.194  18.103  0.00  0.00    +0.000 A 
ATOM     27  C   UNL     1      -1.709  10.316  16.996  0.00  0.00    +0.000 C 
ATOM     28  C   UNL     1      -3.632  11.255  18.255  0.00  0.00    +0.000 A 
ENDBRANCH  20  25
ENDBRANCH   1  20
TORSDOF 2
ENDMDL
MODEL 5
REMARK VINA RESULT:      -7.4      2.637      4.167
REMARK  Name = 
REMARK  4 active torsions:
REMARK  status: ('A' for Active; 'I' for Inactive)
REMARK    1  A    between atoms: C_1  and  C_2
REMARK    2  A    between atoms: C_5  and  S_6
REMARK    3  A    between atoms: S_6  and  C_7
REMARK    4  A    between atoms: C_26  and  C_27
REMARK                            x       y       z     vdW  Elec       q    Type
REMARK                         _______ _______ _______ _____ _____    ______ ____
ROOT
ATOM      1  C   UNL     1       2.366   6.624  19.969  0.00  0.00    +0.000 A 
ATOM      2  C   UNL     1       3.328   6.944  18.991  0.00  0.00    +0.000 A 
ATOM      3  C   UNL     1       3.841   5.997  18.058  0.00  0.00    +0.000 A 
ATOM      4  C   UNL     1       3.442   4.648  18.037  0.00  0.00    +0.000 A 
ATOM      5  C   UNL     1       2.482   4.257  19.012  0.00  0.00    +0.000 A 
ATOM      6  N   UNL     1       1.955   3.036  19.201  0.00  0.00    +0.000 NA
ATOM      7  S   UNL     1       0.906   3.128  20.471  0.00  0.00    +0.000 S 
ATOM      8  N   UNL     1       1.043   4.729  20.856  0.00  0.00    +0.000 NA
ATOM      9  C   UNL     1       1.932   5.269  20.003  0.00  0.00    +0.000 A 
ATOM     10  C   UNL     1       4.002   3.702  17.055  0.00  0.00    +0.000 C 
ATOM     11  O   UNL     1       3.675   2.523  17.028  0.00  0.00    +0.000 OA
ATOM     12  C   UNL     1       4.991   4.188  16.074  0.00  0.00    +0.000 A 
ATOM     13  C   UNL     1       5.520   3.299  15.126  0.00  0.00    +0.000 A 
ATOM     14  C   UNL     1       6.451   3.745  14.187  0.00  0.00    +0.000 A 
ATOM     15  C   UNL     1       6.858   5.078  14.193  0.00  0.00    +0.000 A 
ATOM     16  C   UNL     1       6.336   5.965  15.137  0.00  0.00    +0.000 A 
ATOM     17  C   UNL     1       5.399   5.519  16.081  0.00  0.00    +0.000 A 
ATOM     18  C   UNL     1       4.848   6.464  17.074  0.00  0.00    +0.000 C 
ATOM     19  O   UNL     1       5.221   7.632  17.084  0.00  0.00    +0.000 OA
ENDROOT
BRANCH   1  20
ATOM     20  S   UNL     1       1.799   7.775  21.184  0.00  0.00    +0.000 S 
BRANCH  20  25
ATOM     21  C   UNL     1      -1.492  11.624  17.743  0.00  0.00    +0.000 C 
ATOM     22  C   UNL     1      -0.662  10.703  18.589  0.00  0.00    +0.000 A 
ATOM     23  C   UNL     1       0.316   9.885  18.026  0.00  0.00    +0.000 A 
ATOM     24  C   UNL     1       1.067   9.022  18.833  0.00  0.00    +0.000 A 
ATOM     25  C   UNL     1       0.866   8.965  20.222  0.00  0.00    +0.000 A 
ATOM     26  C   UNL     1      -0.127   9.779  20.799  0.00  0.00    +0.000 A 
ATOM     27  C   UNL     1      -0.481   9.773  22.262  0.00  0.00    +0.000 C 
ATOM     28  C   UNL     1      -0.878  10.640  19.970  0.00  0.00    +0.000 A 
ENDBRANCH  20  25
ENDBRANCH   1  20
TORSDOF 2
ENDMDL
MODEL 6
REMARK VINA RESULT:      -7.3      7.580      8.612
REMARK  Name = 
REMARK  4 active torsions:
REMARK  status: ('A' for Active; 'I' for Inactive)
REMARK    1  A    between atoms: C_1  and  C_2
REMARK    2  A    between atoms: C_5  and  S_6
REMARK    3  A    between atoms: S_6  and  C_7
REMARK    4  A    between atoms: C_26  and  C_27
REMARK                            x       y       z     vdW  Elec       q    Type
REMARK                         _______ _______ _______ _____ _____    ______ ____
ROOT
ATOM      1  C   UNL     1       5.221  15.547  18.195  0.00  0.00    +0.000 A 
ATOM      2  C   UNL     1       6.097  14.514  17.810  0.00  0.00    +0.000 A 
ATOM      3  C   UNL     1       7.408  14.358  18.346  0.00  0.00    +0.000 A 
ATOM      4  C   UNL     1       7.952  15.232  19.304  0.00  0.00    +0.000 A 
ATOM      5  C   UNL     1       7.122  16.308  19.725  0.00  0.00    +0.000 A 
ATOM      6  N   UNL     1       7.414  17.272  20.612  0.00  0.00    +0.000 NA
ATOM      7  S   UNL     1       6.108  18.275  20.720  0.00  0.00    +0.000 S 
ATOM      8  N   UNL     1       5.080  17.542  19.654  0.00  0.00    +0.000 NA
ATOM      9  C   UNL     1       5.722  16.470  19.155  0.00  0.00    +0.000 A 
ATOM     10  C   UNL     1       9.316  15.034  19.831  0.00  0.00    +0.000 C 
ATOM     11  O   UNL     1       9.810  15.789  20.656  0.00  0.00    +0.000 OA
ATOM     12  C   UNL     1      10.112  13.890  19.346  0.00  0.00    +0.000 A 
ATOM     13  C   UNL     1      11.405  13.684  19.851  0.00  0.00    +0.000 A 
ATOM     14  C   UNL     1      12.168  12.603  19.407  0.00  0.00    +0.000 A 
ATOM     15  C   UNL     1      11.644  11.727  18.458  0.00  0.00    +0.000 A 
ATOM     16  C   UNL     1      10.358  11.930  17.952  0.00  0.00    +0.000 A 
ATOM     17  C   UNL     1       9.589  13.015  18.397  0.00  0.00    +0.000 A 
ATOM     18  C   UNL     1       8.229  13.222  17.859  0.00  0.00    +0.000 C 
ATOM     19  O   UNL     1       7.779  12.457  17.015  0.00  0.00    +0.000 OA
ENDROOT
BRANCH   1  20
ATOM     20  S   UNL     1       3.632  15.795  17.462  0.00  0.00    +0.000 S 
BRANCH  20  25
ATOM     21  C   UNL     1       0.266  11.794  20.648  0.00  0.00    +0.000 C 
ATOM     22  C   UNL     1       1.068  12.777  19.845  0.00  0.00    +0.000 A 
ATOM     23  C   UNL     1       1.890  12.359  18.800  0.00  0.00    +0.000 A 
ATOM     24  C   UNL     1       2.641  13.293  18.075  0.00  0.00    +0.000 A 
ATOM     25  C   UNL     1       2.578  14.664  18.369  0.00  0.00    +0.000 A 
ATOM     26  C   UNL     1       1.758  15.094  19.431  0.00  0.00    +0.000 A 
ATOM     27  C   UNL     1       1.645  16.525  19.885  0.00  0.00    +0.000 C 
ATOM     28  C   UNL     1       1.011  14.140  20.154  0.00  0.00    +0.000 A 
ENDBRANCH  20  25
ENDBRANCH   1  20
TORSDOF 2
ENDMDL
MODEL 7
REMARK VINA RESULT:      -7.3      2.767      7.934
REMARK  Name = 
REMARK  4 active torsions:
REMARK  status: ('A' for Active; 'I' for Inactive)
REMARK    1  A    between atoms: C_1  and  C_2
REMARK    2  A    between atoms: C_5  and  S_6
REMARK    3  A    between atoms: S_6  and  C_7
REMARK    4  A    between atoms: C_26  and  C_27
REMARK                            x       y       z     vdW  Elec       q    Type
REMARK                         _______ _______ _______ _____ _____    ______ ____
ROOT
ATOM      1  C   UNL     1       0.606  10.786  18.471  0.00  0.00    +0.000 A 
ATOM      2  C   UNL     1      -0.679  10.402  18.041  0.00  0.00    +0.000 A 
ATOM      3  C   UNL     1      -1.878  10.998  18.527  0.00  0.00    +0.000 A 
ATOM      4  C   UNL     1      -1.889  12.021  19.493  0.00  0.00    +0.000 A 
ATOM      5  C   UNL     1      -0.621  12.444  19.981  0.00  0.00    +0.000 A 
ATOM      6  N   UNL     1      -0.370  13.387  20.903  0.00  0.00    +0.000 NA
ATOM      7  S   UNL     1       1.265  13.470  21.111  0.00  0.00    +0.000 S 
ATOM      8  N   UNL     1       1.762  12.322  20.031  0.00  0.00    +0.000 NA
ATOM      9  C   UNL     1       0.657  11.810  19.458  0.00  0.00    +0.000 A 
ATOM     10  C   UNL     1      -3.155  12.607  19.970  0.00  0.00    +0.000 C 
ATOM     11  O   UNL     1      -3.185  13.489  20.816  0.00  0.00    +0.000 OA
ATOM     12  C   UNL     1      -4.429  12.115  19.410  0.00  0.00    +0.000 A 
ATOM     13  C   UNL     1      -5.638  12.676  19.846  0.00  0.00    +0.000 A 
ATOM     14  C   UNL     1      -6.851  12.226  19.322  0.00  0.00    +0.000 A 
ATOM     15  C   UNL     1      -6.859  11.214  18.364  0.00  0.00    +0.000 A 
ATOM     16  C   UNL     1      -5.657  10.651  17.929  0.00  0.00    +0.000 A 
ATOM     17  C   UNL     1      -4.437  11.103  18.454  0.00  0.00    +0.000 A 
ATOM     18  C   UNL     1      -3.170  10.505  17.987  0.00  0.00    +0.000 C 
ATOM     19  O   UNL     1      -3.184   9.606  17.155  0.00  0.00    +0.000 OA
ENDROOT
BRANCH   1  20
ATOM     20  S   UNL     1       2.087   9.983  17.938  0.00  0.00    +0.000 S 
BRANCH  20  25
ATOM     21  C   UNL     1       1.838   4.777  21.152  0.00  0.00    +0.000 C 
ATOM     22  C   UNL     1       1.923   6.064  20.383  0.00  0.00    +0.000 A 
ATOM     23  C   UNL     1       1.256   7.210  20.810  0.00  0.00    +0.000 A 
ATOM     24  C   UNL     1       1.338   8.395  20.067  0.00  0.00    +0.000 A 
ATOM     25  C   UNL     1       2.097   8.463  18.888  0.00  0.00    +0.000 A 
ATOM     26  C   UNL     1       2.766   7.307  18.442  0.00  0.00    +0.000 A 
ATOM     27  C   UNL     1       3.565   7.230  17.168  0.00  0.00    +0.000 C 
ATOM     28  C   UNL     1       2.669   6.121  19.201  0.00  0.00    +0.000 A 
ENDBRANCH  20  25
ENDBRANCH   1  20
TORSDOF 2
ENDMDL
MODEL 8
REMARK VINA RESULT:      -7.3      3.725      5.227
REMARK  Name = 
REMARK  4 active torsions:
REMARK  status: ('A' for Active; 'I' for Inactive)
REMARK    1  A    between atoms: C_1  and  C_2
REMARK    2  A    between atoms: C_5  and  S_6
REMARK    3  A    between atoms: S_6  and  C_7
REMARK    4  A    between atoms: C_26  and  C_27
REMARK                            x       y       z     vdW  Elec       q    Type
REMARK                         _______ _______ _______ _____ _____    ______ ____
ROOT
ATOM      1  C   UNL     1       0.290  13.178  19.499  0.00  0.00    +0.000 A 
ATOM      2  C   UNL     1       0.898  12.106  18.818  0.00  0.00    +0.000 A 
ATOM      3  C   UNL     1       1.049  10.805  19.380  0.00  0.00    +0.000 A 
ATOM      4  C   UNL     1       0.614  10.475  20.676  0.00  0.00    +0.000 A 
ATOM      5  C   UNL     1       0.004  11.521  21.424  0.00  0.00    +0.000 A 
ATOM      6  N   UNL     1      -0.479  11.460  22.676  0.00  0.00    +0.000 NA
ATOM      7  S   UNL     1      -1.061  12.953  23.068  0.00  0.00    +0.000 S 
ATOM      8  N   UNL     1      -0.748  13.772  21.667  0.00  0.00    +0.000 NA
ATOM      9  C   UNL     1      -0.160  12.906  20.822  0.00  0.00    +0.000 A 
ATOM     10  C   UNL     1       0.794   9.116  21.218  0.00  0.00    +0.000 C 
ATOM     11  O   UNL     1       0.432   8.813  22.346  0.00  0.00    +0.000 OA
ATOM     12  C   UNL     1       1.433   8.087  20.376  0.00  0.00    +0.000 A 
ATOM     13  C   UNL     1       1.596   6.786  20.877  0.00  0.00    +0.000 A 
ATOM     14  C   UNL     1       2.193   5.801  20.090  0.00  0.00    +0.000 A 
ATOM     15  C   UNL     1       2.630   6.109  18.803  0.00  0.00    +0.000 A 
ATOM     16  C   UNL     1       2.471   7.403  18.302  0.00  0.00    +0.000 A 
ATOM     17  C   UNL     1       1.871   8.396  19.091  0.00  0.00    +0.000 A 
ATOM     18  C   UNL     1       1.704   9.761  18.553  0.00  0.00    +0.000 C 
ATOM     19  O   UNL     1       2.103  10.031  17.426  0.00  0.00    +0.000 OA
ENDROOT
BRANCH   1  20
ATOM     20  S   UNL     1       0.186  14.814  18.839  0.00  0.00    +0.000 S 
BRANCH  20  25
ATOM     21  C   UNL     1       5.886  17.039  19.059  0.00  0.00    +0.000 C 
ATOM     22  C   UNL     1       4.500  16.465  19.017  0.00  0.00    +0.000 A 
ATOM     23  C   UNL     1       4.058  15.714  17.929  0.00  0.00    +0.000 A 
ATOM     24  C   UNL     1       2.754  15.202  17.906  0.00  0.00    +0.000 A 
ATOM     25  C   UNL     1       1.868  15.420  18.973  0.00  0.00    +0.000 A 
ATOM     26  C   UNL     1       2.301  16.188  20.071  0.00  0.00    +0.000 A 
ATOM     27  C   UNL     1       1.434  16.543  21.249  0.00  0.00    +0.000 C 
ATOM     28  C   UNL     1       3.617  16.699  20.076  0.00  0.00    +0.000 A 
ENDBRANCH  20  25
ENDBRANCH   1  20
TORSDOF 2
ENDMDL
MODEL 9
REMARK VINA RESULT:      -7.3      2.577      4.307
REMARK  Name = 
REMARK  4 active torsions:
REMARK  status: ('A' for Active; 'I' for Inactive)
REMARK    1  A    between atoms: C_1  and  C_2
REMARK    2  A    between atoms: C_5  and  S_6
REMARK    3  A    between atoms: S_6  and  C_7
REMARK    4  A    between atoms: C_26  and  C_27
REMARK                            x       y       z     vdW  Elec       q    Type
REMARK                         _______ _______ _______ _____ _____    ______ ____
ROOT
ATOM      1  C   UNL     1      -0.425  12.282  21.713  0.00  0.00    +0.000 A 
ATOM      2  C   UNL     1      -0.117  10.909  21.782  0.00  0.00    +0.000 A 
ATOM      3  C   UNL     1       0.606  10.216  20.769  0.00  0.00    +0.000 A 
ATOM      4  C   UNL     1       1.070  10.840  19.597  0.00  0.00    +0.000 A 
ATOM      5  C   UNL     1       0.779  12.226  19.458  0.00  0.00    +0.000 A 
ATOM      6  N   UNL     1       1.102  13.035  18.436  0.00  0.00    +0.000 NA
ATOM      7  S   UNL     1       0.511  14.538  18.773  0.00  0.00    +0.000 S 
ATOM      8  N   UNL     1      -0.184  14.262  20.246  0.00  0.00    +0.000 NA
ATOM      9  C   UNL     1       0.011  12.964  20.542  0.00  0.00    +0.000 A 
ATOM     10  C   UNL     1       1.813  10.082  18.572  0.00  0.00    +0.000 C 
ATOM     11  O   UNL     1       2.216  10.605  17.542  0.00  0.00    +0.000 OA
ATOM     12  C   UNL     1       2.079   8.648  18.793  0.00  0.00    +0.000 A 
ATOM     13  C   UNL     1       2.797   7.921  17.832  0.00  0.00    +0.000 A 
ATOM     14  C   UNL     1       3.061   6.566  18.029  0.00  0.00    +0.000 A 
ATOM     15  C   UNL     1       2.609   5.931  19.185  0.00  0.00    +0.000 A 
ATOM     16  C   UNL     1       1.892   6.651  20.143  0.00  0.00    +0.000 A 
ATOM     17  C   UNL     1       1.626   8.014  19.947  0.00  0.00    +0.000 A 
ATOM     18  C   UNL     1       0.869   8.769  20.967  0.00  0.00    +0.000 C 
ATOM     19  O   UNL     1       0.461   8.203  21.974  0.00  0.00    +0.000 OA
ENDROOT
BRANCH   1  20
ATOM     20  S   UNL     1      -1.401  13.120  22.924  0.00  0.00    +0.000 S 
BRANCH  20  25
ATOM     21  C   UNL     1      -7.024  12.344  20.628  0.00  0.00    +0.000 C 
ATOM     22  C   UNL     1      -5.649  12.566  21.187  0.00  0.00    +0.000 A 
ATOM     23  C   UNL     1      -4.536  12.671  20.354  0.00  0.00    +0.000 A 
ATOM     24  C   UNL     1      -3.260  12.862  20.900  0.00  0.00    +0.000 A 
ATOM     25  C   UNL     1      -3.070  12.965  22.287  0.00  0.00    +0.000 A 
ATOM     26  C   UNL     1      -4.187  12.849  23.137  0.00  0.00    +0.000 A 
ATOM     27  C   UNL     1      -4.113  12.883  24.640  0.00  0.00    +0.000 C 
ATOM     28  C   UNL     1      -5.465  12.652  22.570  0.00  0.00    +0.000 A 
ENDBRANCH  20  25
ENDBRANCH   1  20
TORSDOF 2
ENDMDL
