MODEL 1
REMARK VINA RESULT:      -8.0      0.000      0.000
REMARK  Name = 
REMARK  13 active torsions:
REMARK  status: ('A' for Active; 'I' for Inactive)
REMARK    1  A    between atoms: C_1  and  C_2
REMARK    2  A    between atoms: C_2  and  N_3
REMARK    3  A    between atoms: N_3  and  C_4
REMARK    4  A    between atoms: N_3  and  C_6
REMARK    5  A    between atoms: C_4  and  C_5
REMARK    6  A    between atoms: C_6  and  C_7
REMARK    7  A    between atoms: C_7  and  N_8
REMARK    8  A    between atoms: N_8  and  C_9
REMARK    9  A    between atoms: C_11  and  C_12
REMARK   10  A    between atoms: C_13  and  C_14
REMARK   11  A    between atoms: C_17  and  C_18
REMARK   12  A    between atoms: C_18  and  C_19
REMARK   13  A    between atoms: C_18  and  C_20
REMARK                            x       y       z     vdW  Elec       q    Type
REMARK                         _______ _______ _______ _____ _____    ______ ____
ROOT
ATOM      1  C   UNL     1       6.919   5.210  16.186  0.00  0.00    +0.000 A 
ATOM      2  N   UNL     1       7.628   6.342  16.333  0.00  0.00    +0.000 NA
ATOM      3  C   UNL     1       7.312   7.120  17.373  0.00  0.00    +0.000 A 
ATOM      4  N   UNL     1       6.396   6.845  18.313  0.00  0.00    +0.000 NA
ATOM      5  C   UNL     1       5.715   5.706  18.172  0.00  0.00    +0.000 A 
ATOM      6  C   UNL     1       4.787   5.351  19.149  0.00  0.00    +0.000 A 
ATOM      7  C   UNL     1       4.036   4.173  19.062  0.00  0.00    +0.000 A 
ATOM      8  C   UNL     1       4.212   3.330  17.973  0.00  0.00    +0.000 A 
ATOM      9 CL   UNL     1       3.296   1.881  17.850  0.00  0.00    +0.000 Cl
ATOM     10  C   UNL     1       5.139   3.653  16.990  0.00  0.00    +0.000 A 
ATOM     11  C   UNL     1       5.907   4.840  17.087  0.00  0.00    +0.000 A 
ENDROOT
BRANCH   1  12
ATOM     12  N   UNL     1       7.171   4.372  15.085  0.00  0.00    +0.000 N 
ATOM     13  H   UNL     1       7.025   3.395  15.350  0.00  0.00    +0.000 HD
BRANCH  12  14
ATOM     14  C   UNL     1       6.451   4.696  13.858  0.00  0.00    +0.000 C 
BRANCH  14  15
ATOM     15  C   UNL     1       5.387   3.608  13.565  0.00  0.00    +0.000 C 
BRANCH  15  16
ATOM     16  N   UNL     1       5.361   3.095  12.170  0.00  0.00    +0.000 NA
BRANCH  16  18
ATOM     17  C   UNL     1       3.371   3.206  10.618  0.00  0.00    +0.000 C 
ATOM     18  C   UNL     1       4.522   3.938  11.303  0.00  0.00    +0.000 C 
ENDBRANCH  16  18
BRANCH  16  19
ATOM     19  C   UNL     1       6.730   2.887  11.659  0.00  0.00    +0.000 C 
ATOM     20  C   UNL     1       7.043   1.505  11.086  0.00  0.00    +0.000 C 
ENDBRANCH  16  19
ENDBRANCH  15  16
ENDBRANCH  14  15
ENDBRANCH  12  14
ENDBRANCH   1  12
BRANCH   3  21
ATOM     21  C   UNL     1       8.052   8.368  17.539  0.00  0.00    +0.000 C 
ATOM     22  C   UNL     1       8.279   8.931  18.737  0.00  0.00    +0.000 C 
BRANCH  22  23
ATOM     23  C   UNL     1       9.091  10.144  18.851  0.00  0.00    +0.000 A 
ATOM     24  C   UNL     1       9.459  10.868  17.715  0.00  0.00    +0.000 A 
ATOM     25  C   UNL     1      10.324  11.963  17.825  0.00  0.00    +0.000 A 
ATOM     26  C   UNL     1      10.841  12.353  19.070  0.00  0.00    +0.000 A 
ATOM     27  C   UNL     1      10.426  11.650  20.211  0.00  0.00    +0.000 A 
ATOM     28  C   UNL     1       9.562  10.555  20.101  0.00  0.00    +0.000 A 
BRANCH  26  29
ATOM     29  C   UNL     1      11.869  13.471  19.146  0.00  0.00    +0.000 C 
ATOM     30  C   UNL     1      12.333  13.940  17.765  0.00  0.00    +0.000 C 
ATOM     31  C   UNL     1      11.342  14.651  19.966  0.00  0.00    +0.000 C 
ENDBRANCH  26  29
ENDBRANCH  22  23
ENDBRANCH   3  21
TORSDOF 9
ENDMDL
MODEL 2
REMARK VINA RESULT:      -7.9      0.638      1.144
REMARK  Name = 
REMARK  13 active torsions:
REMARK  status: ('A' for Active; 'I' for Inactive)
REMARK    1  A    between atoms: C_1  and  C_2
REMARK    2  A    between atoms: C_2  and  N_3
REMARK    3  A    between atoms: N_3  and  C_4
REMARK    4  A    between atoms: N_3  and  C_6
REMARK    5  A    between atoms: C_4  and  C_5
REMARK    6  A    between atoms: C_6  and  C_7
REMARK    7  A    between atoms: C_7  and  N_8
REMARK    8  A    between atoms: N_8  and  C_9
REMARK    9  A    between atoms: C_11  and  C_12
REMARK   10  A    between atoms: C_13  and  C_14
REMARK   11  A    between atoms: C_17  and  C_18
REMARK   12  A    between atoms: C_18  and  C_19
REMARK   13  A    between atoms: C_18  and  C_20
REMARK                            x       y       z     vdW  Elec       q    Type
REMARK                         _______ _______ _______ _____ _____    ______ ____
ROOT
ATOM      1  C   UNL     1       6.787   5.336  16.137  0.00  0.00    +0.000 A 
ATOM      2  N   UNL     1       7.425   6.504  16.326  0.00  0.00    +0.000 NA
ATOM      3  C   UNL     1       7.062   7.222  17.392  0.00  0.00    +0.000 A 
ATOM      4  N   UNL     1       6.166   6.857  18.321  0.00  0.00    +0.000 NA
ATOM      5  C   UNL     1       5.557   5.683  18.139  0.00  0.00    +0.000 A 
ATOM      6  C   UNL     1       4.654   5.237  19.101  0.00  0.00    +0.000 A 
ATOM      7  C   UNL     1       3.978   4.019  18.971  0.00  0.00    +0.000 A 
ATOM      8  C   UNL     1       4.204   3.228  17.852  0.00  0.00    +0.000 A 
ATOM      9 CL   UNL     1       3.380   1.730  17.676  0.00  0.00    +0.000 Cl
ATOM     10  C   UNL     1       5.109   3.643  16.883  0.00  0.00    +0.000 A 
ATOM     11  C   UNL     1       5.802   4.871  17.023  0.00  0.00    +0.000 A 
ENDROOT
BRANCH   1  12
ATOM     12  N   UNL     1       7.089   4.555  15.007  0.00  0.00    +0.000 N 
ATOM     13  H   UNL     1       7.120   3.566  15.265  0.00  0.00    +0.000 HD
BRANCH  12  14
ATOM     14  C   UNL     1       6.241   4.767  13.839  0.00  0.00    +0.000 C 
BRANCH  14  15
ATOM     15  C   UNL     1       6.543   3.692  12.763  0.00  0.00    +0.000 C 
BRANCH  15  16
ATOM     16  N   UNL     1       5.404   2.810  12.400  0.00  0.00    +0.000 NA
BRANCH  16  18
ATOM     17  C   UNL     1       3.799   3.356  10.528  0.00  0.00    +0.000 C 
ATOM     18  C   UNL     1       4.233   3.592  11.971  0.00  0.00    +0.000 C 
ENDBRANCH  16  18
BRANCH  16  19
ATOM     19  C   UNL     1       5.823   1.779  11.430  0.00  0.00    +0.000 C 
ATOM     20  C   UNL     1       7.238   1.907  10.866  0.00  0.00    +0.000 C 
ENDBRANCH  16  19
ENDBRANCH  15  16
ENDBRANCH  14  15
ENDBRANCH  12  14
ENDBRANCH   1  12
BRANCH   3  21
ATOM     21  C   UNL     1       7.723   8.507  17.604  0.00  0.00    +0.000 C 
ATOM     22  C   UNL     1       8.494   8.766  18.673  0.00  0.00    +0.000 C 
BRANCH  22  23
ATOM     23  C   UNL     1       9.193  10.047  18.797  0.00  0.00    +0.000 A 
ATOM     24  C   UNL     1       9.398  10.632  20.048  0.00  0.00    +0.000 A 
ATOM     25  C   UNL     1       9.970  11.906  20.147  0.00  0.00    +0.000 A 
ATOM     26  C   UNL     1      10.344  12.621  18.998  0.00  0.00    +0.000 A 
ATOM     27  C   UNL     1      10.180  12.004  17.749  0.00  0.00    +0.000 A 
ATOM     28  C   UNL     1       9.608  10.730  17.650  0.00  0.00    +0.000 A 
BRANCH  26  29
ATOM     29  C   UNL     1      10.854  14.047  19.128  0.00  0.00    +0.000 C 
ATOM     30  C   UNL     1      12.331  14.112  19.520  0.00  0.00    +0.000 C 
ATOM     31  C   UNL     1      10.602  14.843  17.845  0.00  0.00    +0.000 C 
ENDBRANCH  26  29
ENDBRANCH  22  23
ENDBRANCH   3  21
TORSDOF 9
ENDMDL
MODEL 3
REMARK VINA RESULT:      -7.9      8.102     11.190
REMARK  Name = 
REMARK  13 active torsions:
REMARK  status: ('A' for Active; 'I' for Inactive)
REMARK    1  A    between atoms: C_1  and  C_2
REMARK    2  A    between atoms: C_2  and  N_3
REMARK    3  A    between atoms: N_3  and  C_4
REMARK    4  A    between atoms: N_3  and  C_6
REMARK    5  A    between atoms: C_4  and  C_5
REMARK    6  A    between atoms: C_6  and  C_7
REMARK    7  A    between atoms: C_7  and  N_8
REMARK    8  A    between atoms: N_8  and  C_9
REMARK    9  A    between atoms: C_11  and  C_12
REMARK   10  A    between atoms: C_13  and  C_14
REMARK   11  A    between atoms: C_17  and  C_18
REMARK   12  A    between atoms: C_18  and  C_19
REMARK   13  A    between atoms: C_18  and  C_20
REMARK                            x       y       z     vdW  Elec       q    Type
REMARK                         _______ _______ _______ _____ _____    ______ ____
ROOT
ATOM      1  C   UNL     1      -0.993  10.984  18.897  0.00  0.00    +0.000 A 
ATOM      2  N   UNL     1      -0.141  10.187  18.228  0.00  0.00    +0.000 NA
ATOM      3  C   UNL     1       0.759   9.522  18.957  0.00  0.00    +0.000 A 
ATOM      4  N   UNL     1       0.852   9.529  20.295  0.00  0.00    +0.000 NA
ATOM      5  C   UNL     1      -0.016  10.303  20.952  0.00  0.00    +0.000 A 
ATOM      6  C   UNL     1       0.008  10.308  22.345  0.00  0.00    +0.000 A 
ATOM      7  C   UNL     1      -0.870  11.098  23.096  0.00  0.00    +0.000 A 
ATOM      8  C   UNL     1      -1.790  11.907  22.442  0.00  0.00    +0.000 A 
ATOM      9 CL   UNL     1      -2.873  12.885  23.350  0.00  0.00    +0.000 Cl
ATOM     10  C   UNL     1      -1.843  11.912  21.054  0.00  0.00    +0.000 A 
ATOM     11  C   UNL     1      -0.962  11.102  20.296  0.00  0.00    +0.000 A 
ENDROOT
BRANCH   1  12
ATOM     12  N   UNL     1      -1.934  11.748  18.184  0.00  0.00    +0.000 N 
ATOM     13  H   UNL     1      -1.456  12.448  17.613  0.00  0.00    +0.000 HD
BRANCH  12  14
ATOM     14  C   UNL     1      -2.900  10.993  17.392  0.00  0.00    +0.000 C 
BRANCH  14  15
ATOM     15  C   UNL     1      -4.283  11.692  17.439  0.00  0.00    +0.000 C 
BRANCH  15  16
ATOM     16  N   UNL     1      -5.067  11.480  18.684  0.00  0.00    +0.000 NA
BRANCH  16  18
ATOM     17  C   UNL     1      -5.559  12.451  20.963  0.00  0.00    +0.000 C 
ATOM     18  C   UNL     1      -5.043  12.674  19.544  0.00  0.00    +0.000 C 
ENDBRANCH  16  18
BRANCH  16  19
ATOM     19  C   UNL     1      -6.426  10.992  18.375  0.00  0.00    +0.000 C 
ATOM     20  C   UNL     1      -6.865   9.706  19.076  0.00  0.00    +0.000 C 
ENDBRANCH  16  19
ENDBRANCH  15  16
ENDBRANCH  14  15
ENDBRANCH  12  14
ENDBRANCH   1  12
BRANCH   3  21
ATOM     21  C   UNL     1       1.711   8.670  18.250  0.00  0.00    +0.000 C 
ATOM     22  C   UNL     1       2.167   7.510  18.749  0.00  0.00    +0.000 C 
BRANCH  22  23
ATOM     23  C   UNL     1       3.064   6.659  17.964  0.00  0.00    +0.000 A 
ATOM     24  C   UNL     1       2.890   5.274  17.932  0.00  0.00    +0.000 A 
ATOM     25  C   UNL     1       3.816   4.461  17.267  0.00  0.00    +0.000 A 
ATOM     26  C   UNL     1       4.935   5.016  16.626  0.00  0.00    +0.000 A 
ATOM     27  C   UNL     1       5.073   6.412  16.622  0.00  0.00    +0.000 A 
ATOM     28  C   UNL     1       4.148   7.225  17.287  0.00  0.00    +0.000 A 
BRANCH  26  29
ATOM     29  C   UNL     1       5.985   4.103  16.013  0.00  0.00    +0.000 C 
ATOM     30  C   UNL     1       5.968   4.128  14.484  0.00  0.00    +0.000 C 
ATOM     31  C   UNL     1       7.383   4.437  16.541  0.00  0.00    +0.000 C 
ENDBRANCH  26  29
ENDBRANCH  22  23
ENDBRANCH   3  21
TORSDOF 9
ENDMDL
MODEL 4
REMARK VINA RESULT:      -7.8      5.970      8.096
REMARK  Name = 
REMARK  13 active torsions:
REMARK  status: ('A' for Active; 'I' for Inactive)
REMARK    1  A    between atoms: C_1  and  C_2
REMARK    2  A    between atoms: C_2  and  N_3
REMARK    3  A    between atoms: N_3  and  C_4
REMARK    4  A    between atoms: N_3  and  C_6
REMARK    5  A    between atoms: C_4  and  C_5
REMARK    6  A    between atoms: C_6  and  C_7
REMARK    7  A    between atoms: C_7  and  N_8
REMARK    8  A    between atoms: N_8  and  C_9
REMARK    9  A    between atoms: C_11  and  C_12
REMARK   10  A    between atoms: C_13  and  C_14
REMARK   11  A    between atoms: C_17  and  C_18
REMARK   12  A    between atoms: C_18  and  C_19
REMARK   13  A    between atoms: C_18  and  C_20
REMARK                            x       y       z     vdW  Elec       q    Type
REMARK                         _______ _______ _______ _____ _____    ______ ____
ROOT
ATOM      1  C   UNL     1       2.806   6.253  18.592  0.00  0.00    +0.000 A 
ATOM      2  N   UNL     1       2.324   7.341  19.218  0.00  0.00    +0.000 NA
ATOM      3  C   UNL     1       1.721   7.141  20.394  0.00  0.00    +0.000 A 
ATOM      4  N   UNL     1       1.607   5.968  21.032  0.00  0.00    +0.000 NA
ATOM      5  C   UNL     1       2.111   4.897  20.415  0.00  0.00    +0.000 A 
ATOM      6  C   UNL     1       2.060   3.663  21.059  0.00  0.00    +0.000 A 
ATOM      7  C   UNL     1       2.567   2.500  20.468  0.00  0.00    +0.000 A 
ATOM      8  C   UNL     1       3.133   2.568  19.202  0.00  0.00    +0.000 A 
ATOM      9 CL   UNL     1       3.757   1.148  18.461  0.00  0.00    +0.000 Cl
ATOM     10  C   UNL     1       3.208   3.788  18.542  0.00  0.00    +0.000 A 
ATOM     11  C   UNL     1       2.706   4.967  19.148  0.00  0.00    +0.000 A 
ENDROOT
BRANCH   1  12
ATOM     12  N   UNL     1       3.410   6.388  17.330  0.00  0.00    +0.000 N 
ATOM     13  H   UNL     1       2.845   6.999  16.736  0.00  0.00    +0.000 HD
BRANCH  12  14
ATOM     14  C   UNL     1       4.808   6.806  17.333  0.00  0.00    +0.000 C 
BRANCH  14  15
ATOM     15  C   UNL     1       5.433   6.572  15.934  0.00  0.00    +0.000 C 
BRANCH  15  16
ATOM     16  N   UNL     1       6.596   5.649  15.897  0.00  0.00    +0.000 NA
BRANCH  16  18
ATOM     17  C   UNL     1       7.728   4.622  17.908  0.00  0.00    +0.000 C 
ATOM     18  C   UNL     1       6.523   4.647  16.973  0.00  0.00    +0.000 C 
ENDBRANCH  16  18
BRANCH  16  19
ATOM     19  C   UNL     1       6.767   5.068  14.550  0.00  0.00    +0.000 C 
ATOM     20  C   UNL     1       5.899   3.856  14.213  0.00  0.00    +0.000 C 
ENDBRANCH  16  19
ENDBRANCH  15  16
ENDBRANCH  14  15
ENDBRANCH  12  14
ENDBRANCH   1  12
BRANCH   3  21
ATOM     21  C   UNL     1       1.168   8.305  21.080  0.00  0.00    +0.000 C 
ATOM     22  C   UNL     1       0.618   9.345  20.432  0.00  0.00    +0.000 C 
BRANCH  22  23
ATOM     23  C   UNL     1       0.012  10.453  21.174  0.00  0.00    +0.000 A 
ATOM     24  C   UNL     1      -0.590  10.237  22.415  0.00  0.00    +0.000 A 
ATOM     25  C   UNL     1      -1.261  11.281  23.065  0.00  0.00    +0.000 A 
ATOM     26  C   UNL     1      -1.346  12.556  22.485  0.00  0.00    +0.000 A 
ATOM     27  C   UNL     1      -0.695  12.775  21.262  0.00  0.00    +0.000 A 
ATOM     28  C   UNL     1      -0.025  11.732  20.612  0.00  0.00    +0.000 A 
BRANCH  26  29
ATOM     29  C   UNL     1      -2.178  13.637  23.156  0.00  0.00    +0.000 C 
ATOM     30  C   UNL     1      -3.341  13.067  23.970  0.00  0.00    +0.000 C 
ATOM     31  C   UNL     1      -1.306  14.545  24.028  0.00  0.00    +0.000 C 
ENDBRANCH  26  29
ENDBRANCH  22  23
ENDBRANCH   3  21
TORSDOF 9
ENDMDL
MODEL 5
REMARK VINA RESULT:      -7.8      5.993      8.011
REMARK  Name = 
REMARK  13 active torsions:
REMARK  status: ('A' for Active; 'I' for Inactive)
REMARK    1  A    between atoms: C_1  and  C_2
REMARK    2  A    between atoms: C_2  and  N_3
REMARK    3  A    between atoms: N_3  and  C_4
REMARK    4  A    between atoms: N_3  and  C_6
REMARK    5  A    between atoms: C_4  and  C_5
REMARK    6  A    between atoms: C_6  and  C_7
REMARK    7  A    between atoms: C_7  and  N_8
REMARK    8  A    between atoms: N_8  and  C_9
REMARK    9  A    between atoms: C_11  and  C_12
REMARK   10  A    between atoms: C_13  and  C_14
REMARK   11  A    between atoms: C_17  and  C_18
REMARK   12  A    between atoms: C_18  and  C_19
REMARK   13  A    between atoms: C_18  and  C_20
REMARK                            x       y       z     vdW  Elec       q    Type
REMARK                         _______ _______ _______ _____ _____    ______ ____
ROOT
ATOM      1  C   UNL     1       2.711   6.301  18.672  0.00  0.00    +0.000 A 
ATOM      2  N   UNL     1       2.235   7.398  19.285  0.00  0.00    +0.000 NA
ATOM      3  C   UNL     1       1.619   7.214  20.456  0.00  0.00    +0.000 A 
ATOM      4  N   UNL     1       1.487   6.047  21.103  0.00  0.00    +0.000 NA
ATOM      5  C   UNL     1       1.987   4.966  20.498  0.00  0.00    +0.000 A 
ATOM      6  C   UNL     1       1.918   3.737  21.152  0.00  0.00    +0.000 A 
ATOM      7  C   UNL     1       2.419   2.565  20.575  0.00  0.00    +0.000 A 
ATOM      8  C   UNL     1       2.998   2.618  19.314  0.00  0.00    +0.000 A 
ATOM      9 CL   UNL     1       3.614   1.186  18.589  0.00  0.00    +0.000 Cl
ATOM     10  C   UNL     1       3.090   3.832  18.645  0.00  0.00    +0.000 A 
ATOM     11  C   UNL     1       2.594   5.020  19.237  0.00  0.00    +0.000 A 
ENDROOT
BRANCH   1  12
ATOM     12  N   UNL     1       3.328   6.420  17.414  0.00  0.00    +0.000 N 
ATOM     13  H   UNL     1       2.706   6.905  16.764  0.00  0.00    +0.000 HD
BRANCH  12  14
ATOM     14  C   UNL     1       4.660   7.018  17.410  0.00  0.00    +0.000 C 
BRANCH  14  15
ATOM     15  C   UNL     1       5.412   6.627  16.112  0.00  0.00    +0.000 C 
BRANCH  15  16
ATOM     16  N   UNL     1       6.745   6.000  16.307  0.00  0.00    +0.000 NA
BRANCH  16  18
ATOM     17  C   UNL     1       7.694   5.479  18.589  0.00  0.00    +0.000 C 
ATOM     18  C   UNL     1       7.414   6.522  17.511  0.00  0.00    +0.000 C 
ENDBRANCH  16  18
BRANCH  16  19
ATOM     19  C   UNL     1       6.647   4.528  16.268  0.00  0.00    +0.000 C 
ATOM     20  C   UNL     1       6.268   3.904  14.925  0.00  0.00    +0.000 C 
ENDBRANCH  16  19
ENDBRANCH  15  16
ENDBRANCH  14  15
ENDBRANCH  12  14
ENDBRANCH   1  12
BRANCH   3  21
ATOM     21  C   UNL     1       1.071   8.389  21.128  0.00  0.00    +0.000 C 
ATOM     22  C   UNL     1       0.698   9.500  20.473  0.00  0.00    +0.000 C 
BRANCH  22  23
ATOM     23  C   UNL     1       0.085  10.621  21.190  0.00  0.00    +0.000 A 
ATOM     24  C   UNL     1       0.301  11.937  20.777  0.00  0.00    +0.000 A 
ATOM     25  C   UNL     1      -0.199  13.004  21.533  0.00  0.00    +0.000 A 
ATOM     26  C   UNL     1      -0.921  12.777  22.715  0.00  0.00    +0.000 A 
ATOM     27  C   UNL     1      -1.174  11.450  23.094  0.00  0.00    +0.000 A 
ATOM     28  C   UNL     1      -0.674  10.383  22.339  0.00  0.00    +0.000 A 
BRANCH  26  29
ATOM     29  C   UNL     1      -1.351  13.954  23.576  0.00  0.00    +0.000 C 
ATOM     30  C   UNL     1      -0.627  15.250  23.208  0.00  0.00    +0.000 C 
ATOM     31  C   UNL     1      -2.869  14.151  23.522  0.00  0.00    +0.000 C 
ENDBRANCH  26  29
ENDBRANCH  22  23
ENDBRANCH   3  21
TORSDOF 9
ENDMDL
MODEL 6
REMARK VINA RESULT:      -7.7      8.382     11.288
REMARK  Name = 
REMARK  13 active torsions:
REMARK  status: ('A' for Active; 'I' for Inactive)
REMARK    1  A    between atoms: C_1  and  C_2
REMARK    2  A    between atoms: C_2  and  N_3
REMARK    3  A    between atoms: N_3  and  C_4
REMARK    4  A    between atoms: N_3  and  C_6
REMARK    5  A    between atoms: C_4  and  C_5
REMARK    6  A    between atoms: C_6  and  C_7
REMARK    7  A    between atoms: C_7  and  N_8
REMARK    8  A    between atoms: N_8  and  C_9
REMARK    9  A    between atoms: C_11  and  C_12
REMARK   10  A    between atoms: C_13  and  C_14
REMARK   11  A    between atoms: C_17  and  C_18
REMARK   12  A    between atoms: C_18  and  C_19
REMARK   13  A    between atoms: C_18  and  C_20
REMARK                            x       y       z     vdW  Elec       q    Type
REMARK                         _______ _______ _______ _____ _____    ______ ____
ROOT
ATOM      1  C   UNL     1      -1.089  11.307  18.534  0.00  0.00    +0.000 A 
ATOM      2  N   UNL     1      -0.203  10.463  17.979  0.00  0.00    +0.000 NA
ATOM      3  C   UNL     1       0.651   9.856  18.809  0.00  0.00    +0.000 A 
ATOM      4  N   UNL     1       0.664   9.965  20.145  0.00  0.00    +0.000 NA
ATOM      5  C   UNL     1      -0.238  10.786  20.689  0.00  0.00    +0.000 A 
ATOM      6  C   UNL     1      -0.297  10.897  22.077  0.00  0.00    +0.000 A 
ATOM      7  C   UNL     1      -1.215  11.740  22.712  0.00  0.00    +0.000 A 
ATOM      8  C   UNL     1      -2.092  12.496  21.945  0.00  0.00    +0.000 A 
ATOM      9 CL   UNL     1      -3.223  13.540  22.710  0.00  0.00    +0.000 Cl
ATOM     10  C   UNL     1      -2.063  12.396  20.560  0.00  0.00    +0.000 A 
ATOM     11  C   UNL     1      -1.141  11.531  19.919  0.00  0.00    +0.000 A 
ENDROOT
BRANCH   1  12
ATOM     12  N   UNL     1      -1.984  12.014  17.711  0.00  0.00    +0.000 N 
ATOM     13  H   UNL     1      -1.471  12.671  17.120  0.00  0.00    +0.000 HD
BRANCH  12  14
ATOM     14  C   UNL     1      -2.901  11.200  16.918  0.00  0.00    +0.000 C 
BRANCH  14  15
ATOM     15  C   UNL     1      -4.124  10.791  17.778  0.00  0.00    +0.000 C 
BRANCH  15  16
ATOM     16  N   UNL     1      -4.950  11.913  18.293  0.00  0.00    +0.000 NA
BRANCH  16  18
ATOM     17  C   UNL     1      -7.191  12.639  17.381  0.00  0.00    +0.000 C 
ATOM     18  C   UNL     1      -5.676  12.590  17.206  0.00  0.00    +0.000 C 
ENDBRANCH  16  18
BRANCH  16  19
ATOM     19  C   UNL     1      -5.816  11.465  19.402  0.00  0.00    +0.000 C 
ATOM     20  C   UNL     1      -5.800  12.319  20.670  0.00  0.00    +0.000 C 
ENDBRANCH  16  19
ENDBRANCH  15  16
ENDBRANCH  14  15
ENDBRANCH  12  14
ENDBRANCH   1  12
BRANCH   3  21
ATOM     21  C   UNL     1       1.640   8.953  18.226  0.00  0.00    +0.000 C 
ATOM     22  C   UNL     1       2.077   7.846  18.848  0.00  0.00    +0.000 C 
BRANCH  22  23
ATOM     23  C   UNL     1       3.015   6.938  18.185  0.00  0.00    +0.000 A 
ATOM     24  C   UNL     1       4.108   7.434  17.472  0.00  0.00    +0.000 A 
ATOM     25  C   UNL     1       4.936   6.563  16.753  0.00  0.00    +0.000 A 
ATOM     26  C   UNL     1       4.684   5.182  16.729  0.00  0.00    +0.000 A 
ATOM     27  C   UNL     1       3.613   4.689  17.488  0.00  0.00    +0.000 A 
ATOM     28  C   UNL     1       2.785   5.559  18.207  0.00  0.00    +0.000 A 
BRANCH  26  29
ATOM     29  C   UNL     1       5.528   4.275  15.847  0.00  0.00    +0.000 C 
ATOM     30  C   UNL     1       5.278   4.506  14.355  0.00  0.00    +0.000 C 
ATOM     31  C   UNL     1       7.017   4.418  16.172  0.00  0.00    +0.000 C 
ENDBRANCH  26  29
ENDBRANCH  22  23
ENDBRANCH   3  21
TORSDOF 9
ENDMDL
MODEL 7
REMARK VINA RESULT:      -7.7      7.041     10.041
REMARK  Name = 
REMARK  13 active torsions:
REMARK  status: ('A' for Active; 'I' for Inactive)
REMARK    1  A    between atoms: C_1  and  C_2
REMARK    2  A    between atoms: C_2  and  N_3
REMARK    3  A    between atoms: N_3  and  C_4
REMARK    4  A    between atoms: N_3  and  C_6
REMARK    5  A    between atoms: C_4  and  C_5
REMARK    6  A    between atoms: C_6  and  C_7
REMARK    7  A    between atoms: C_7  and  N_8
REMARK    8  A    between atoms: N_8  and  C_9
REMARK    9  A    between atoms: C_11  and  C_12
REMARK   10  A    between atoms: C_13  and  C_14
REMARK   11  A    between atoms: C_17  and  C_18
REMARK   12  A    between atoms: C_18  and  C_19
REMARK   13  A    between atoms: C_18  and  C_20
REMARK                            x       y       z     vdW  Elec       q    Type
REMARK                         _______ _______ _______ _____ _____    ______ ____
ROOT
ATOM      1  C   UNL     1       0.412  10.842  18.962  0.00  0.00    +0.000 A 
ATOM      2  N   UNL     1       1.170  10.074  18.160  0.00  0.00    +0.000 NA
ATOM      3  C   UNL     1       1.691   8.969  18.702  0.00  0.00    +0.000 A 
ATOM      4  N   UNL     1       1.479   8.527  19.950  0.00  0.00    +0.000 NA
ATOM      5  C   UNL     1       0.703   9.284  20.730  0.00  0.00    +0.000 A 
ATOM      6  C   UNL     1       0.413   8.843  22.020  0.00  0.00    +0.000 A 
ATOM      7  C   UNL     1      -0.390   9.587  22.891  0.00  0.00    +0.000 A 
ATOM      8  C   UNL     1      -0.912  10.803  22.469  0.00  0.00    +0.000 A 
ATOM      9 CL   UNL     1      -1.897  11.731  23.529  0.00  0.00    +0.000 Cl
ATOM     10  C   UNL     1      -0.648  11.261  21.185  0.00  0.00    +0.000 A 
ATOM     11  C   UNL     1       0.155  10.499  20.299  0.00  0.00    +0.000 A 
ENDROOT
BRANCH   1  12
ATOM     12  N   UNL     1      -0.127  12.043  18.466  0.00  0.00    +0.000 N 
ATOM     13  H   UNL     1       0.405  12.355  17.651  0.00  0.00    +0.000 HD
BRANCH  12  14
ATOM     14  C   UNL     1      -1.559  12.031  18.186  0.00  0.00    +0.000 C 
BRANCH  14  15
ATOM     15  C   UNL     1      -1.928  10.769  17.365  0.00  0.00    +0.000 C 
BRANCH  15  16
ATOM     16  N   UNL     1      -3.295  10.758  16.784  0.00  0.00    +0.000 NA
BRANCH  16  18
ATOM     17  C   UNL     1      -5.478  10.939  18.042  0.00  0.00    +0.000 C 
ATOM     18  C   UNL     1      -4.210  11.626  17.545  0.00  0.00    +0.000 C 
ENDBRANCH  16  18
BRANCH  16  19
ATOM     19  C   UNL     1      -3.256  11.052  15.338  0.00  0.00    +0.000 C 
ATOM     20  C   UNL     1      -3.838   9.987  14.409  0.00  0.00    +0.000 C 
ENDBRANCH  16  19
ENDBRANCH  15  16
ENDBRANCH  14  15
ENDBRANCH  12  14
ENDBRANCH   1  12
BRANCH   3  21
ATOM     21  C   UNL     1       2.539   8.133  17.857  0.00  0.00    +0.000 C 
ATOM     22  C   UNL     1       3.393   7.222  18.351  0.00  0.00    +0.000 C 
BRANCH  22  23
ATOM     23  C   UNL     1       4.165   6.358  17.455  0.00  0.00    +0.000 A 
ATOM     24  C   UNL     1       5.263   6.857  16.751  0.00  0.00    +0.000 A 
ATOM     25  C   UNL     1       5.927   6.053  15.816  0.00  0.00    +0.000 A 
ATOM     26  C   UNL     1       5.504   4.739  15.564  0.00  0.00    +0.000 A 
ATOM     27  C   UNL     1       4.431   4.232  16.312  0.00  0.00    +0.000 A 
ATOM     28  C   UNL     1       3.767   5.035  17.246  0.00  0.00    +0.000 A 
BRANCH  26  29
ATOM     29  C   UNL     1       6.168   3.929  14.462  0.00  0.00    +0.000 C 
ATOM     30  C   UNL     1       5.202   3.565  13.333  0.00  0.00    +0.000 C 
ATOM     31  C   UNL     1       7.395   4.656  13.906  0.00  0.00    +0.000 C 
ENDBRANCH  26  29
ENDBRANCH  22  23
ENDBRANCH   3  21
TORSDOF 9
ENDMDL
MODEL 8
REMARK VINA RESULT:      -7.7      6.024      8.218
REMARK  Name = 
REMARK  13 active torsions:
REMARK  status: ('A' for Active; 'I' for Inactive)
REMARK    1  A    between atoms: C_1  and  C_2
REMARK    2  A    between atoms: C_2  and  N_3
REMARK    3  A    between atoms: N_3  and  C_4
REMARK    4  A    between atoms: N_3  and  C_6
REMARK    5  A    between atoms: C_4  and  C_5
REMARK    6  A    between atoms: C_6  and  C_7
REMARK    7  A    between atoms: C_7  and  N_8
REMARK    8  A    between atoms: N_8  and  C_9
REMARK    9  A    between atoms: C_11  and  C_12
REMARK   10  A    between atoms: C_13  and  C_14
REMARK   11  A    between atoms: C_17  and  C_18
REMARK   12  A    between atoms: C_18  and  C_19
REMARK   13  A    between atoms: C_18  and  C_20
REMARK                            x       y       z     vdW  Elec       q    Type
REMARK                         _______ _______ _______ _____ _____    ______ ____
ROOT
ATOM      1  C   UNL     1       2.781   6.267  18.689  0.00  0.00    +0.000 A 
ATOM      2  N   UNL     1       2.290   7.350  19.316  0.00  0.00    +0.000 NA
ATOM      3  C   UNL     1       1.623   7.137  20.454  0.00  0.00    +0.000 A 
ATOM      4  N   UNL     1       1.452   5.952  21.057  0.00  0.00    +0.000 NA
ATOM      5  C   UNL     1       1.966   4.885  20.441  0.00  0.00    +0.000 A 
ATOM      6  C   UNL     1       1.857   3.637  21.051  0.00  0.00    +0.000 A 
ATOM      7  C   UNL     1       2.370   2.478  20.460  0.00  0.00    +0.000 A 
ATOM      8  C   UNL     1       3.002   2.563  19.227  0.00  0.00    +0.000 A 
ATOM      9 CL   UNL     1       3.635   1.147  18.485  0.00  0.00    +0.000 Cl
ATOM     10  C   UNL     1       3.135   3.796  18.601  0.00  0.00    +0.000 A 
ATOM     11  C   UNL     1       2.627   4.971  19.208  0.00  0.00    +0.000 A 
ENDROOT
BRANCH   1  12
ATOM     12  N   UNL     1       3.452   6.418  17.463  0.00  0.00    +0.000 N 
ATOM     13  H   UNL     1       2.780   6.612  16.718  0.00  0.00    +0.000 HD
BRANCH  12  14
ATOM     14  C   UNL     1       4.546   7.385  17.449  0.00  0.00    +0.000 C 
BRANCH  14  15
ATOM     15  C   UNL     1       5.853   6.698  16.980  0.00  0.00    +0.000 C 
BRANCH  15  16
ATOM     16  N   UNL     1       6.090   5.333  17.519  0.00  0.00    +0.000 NA
BRANCH  16  18
ATOM     17  C   UNL     1       6.292   4.007  15.379  0.00  0.00    +0.000 C 
ATOM     18  C   UNL     1       6.968   4.550  16.634  0.00  0.00    +0.000 C 
ENDBRANCH  16  18
BRANCH  16  19
ATOM     19  C   UNL     1       6.552   5.393  18.920  0.00  0.00    +0.000 C 
ATOM     20  C   UNL     1       7.996   5.838  19.145  0.00  0.00    +0.000 C 
ENDBRANCH  16  19
ENDBRANCH  15  16
ENDBRANCH  14  15
ENDBRANCH  12  14
ENDBRANCH   1  12
BRANCH   3  21
ATOM     21  C   UNL     1       1.059   8.296  21.139  0.00  0.00    +0.000 C 
ATOM     22  C   UNL     1       0.777   9.451  20.513  0.00  0.00    +0.000 C 
BRANCH  22  23
ATOM     23  C   UNL     1       0.143  10.557  21.235  0.00  0.00    +0.000 A 
ATOM     24  C   UNL     1      -0.527  10.334  22.439  0.00  0.00    +0.000 A 
ATOM     25  C   UNL     1      -1.222  11.377  23.064  0.00  0.00    +0.000 A 
ATOM     26  C   UNL     1      -1.262  12.660  22.496  0.00  0.00    +0.000 A 
ATOM     27  C   UNL     1      -0.544  12.885  21.312  0.00  0.00    +0.000 A 
ATOM     28  C   UNL     1       0.150  11.843  20.687  0.00  0.00    +0.000 A 
BRANCH  26  29
ATOM     29  C   UNL     1      -2.118  13.742  23.134  0.00  0.00    +0.000 C 
ATOM     30  C   UNL     1      -1.353  14.564  24.173  0.00  0.00    +0.000 C 
ATOM     31  C   UNL     1      -2.733  14.657  22.071  0.00  0.00    +0.000 C 
ENDBRANCH  26  29
ENDBRANCH  22  23
ENDBRANCH   3  21
TORSDOF 9
ENDMDL
MODEL 9
REMARK VINA RESULT:      -7.6      5.842      8.496
REMARK  Name = 
REMARK  13 active torsions:
REMARK  status: ('A' for Active; 'I' for Inactive)
REMARK    1  A    between atoms: C_1  and  C_2
REMARK    2  A    between atoms: C_2  and  N_3
REMARK    3  A    between atoms: N_3  and  C_4
REMARK    4  A    between atoms: N_3  and  C_6
REMARK    5  A    between atoms: C_4  and  C_5
REMARK    6  A    between atoms: C_6  and  C_7
REMARK    7  A    between atoms: C_7  and  N_8
REMARK    8  A    between atoms: N_8  and  C_9
REMARK    9  A    between atoms: C_11  and  C_12
REMARK   10  A    between atoms: C_13  and  C_14
REMARK   11  A    between atoms: C_17  and  C_18
REMARK   12  A    between atoms: C_18  and  C_19
REMARK   13  A    between atoms: C_18  and  C_20
REMARK                            x       y       z     vdW  Elec       q    Type
REMARK                         _______ _______ _______ _____ _____    ______ ____
ROOT
ATOM      1  C   UNL     1       3.984   5.498  19.228  0.00  0.00    +0.000 A 
ATOM      2  N   UNL     1       3.031   6.288  19.753  0.00  0.00    +0.000 NA
ATOM      3  C   UNL     1       2.664   7.350  19.029  0.00  0.00    +0.000 A 
ATOM      4  N   UNL     1       3.113   7.664  17.806  0.00  0.00    +0.000 NA
ATOM      5  C   UNL     1       4.041   6.859  17.282  0.00  0.00    +0.000 A 
ATOM      6  C   UNL     1       4.504   7.116  15.993  0.00  0.00    +0.000 A 
ATOM      7  C   UNL     1       5.477   6.314  15.385  0.00  0.00    +0.000 A 
ATOM      8  C   UNL     1       6.004   5.234  16.080  0.00  0.00    +0.000 A 
ATOM      9 CL   UNL     1       7.202   4.242  15.349  0.00  0.00    +0.000 Cl
ATOM     10  C   UNL     1       5.551   4.948  17.362  0.00  0.00    +0.000 A 
ATOM     11  C   UNL     1       4.557   5.753  17.971  0.00  0.00    +0.000 A 
ENDROOT
BRANCH   1  12
ATOM     12  N   UNL     1       4.449   4.391  19.959  0.00  0.00    +0.000 N 
ATOM     13  H   UNL     1       3.969   4.341  20.860  0.00  0.00    +0.000 HD
BRANCH  12  14
ATOM     14  C   UNL     1       4.407   3.106  19.269  0.00  0.00    +0.000 C 
BRANCH  14  15
ATOM     15  C   UNL     1       3.329   2.196  19.910  0.00  0.00    +0.000 C 
BRANCH  15  16
ATOM     16  N   UNL     1       1.989   2.238  19.268  0.00  0.00    +0.000 NA
BRANCH  16  18
ATOM     17  C   UNL     1       1.410   3.130  21.559  0.00  0.00    +0.000 C 
ATOM     18  C   UNL     1       1.021   2.981  20.091  0.00  0.00    +0.000 C 
ENDBRANCH  16  18
BRANCH  16  19
ATOM     19  C   UNL     1       2.086   2.720  17.876  0.00  0.00    +0.000 C 
ATOM     20  C   UNL     1       1.308   3.991  17.537  0.00  0.00    +0.000 C 
ENDBRANCH  16  19
ENDBRANCH  15  16
ENDBRANCH  14  15
ENDBRANCH  12  14
ENDBRANCH   1  12
BRANCH   3  21
ATOM     21  C   UNL     1       1.648   8.236  19.591  0.00  0.00    +0.000 C 
ATOM     22  C   UNL     1       1.397   8.320  20.907  0.00  0.00    +0.000 C 
BRANCH  22  23
ATOM     23  C   UNL     1       0.418   9.281  21.421  0.00  0.00    +0.000 A 
ATOM     24  C   UNL     1      -0.157  10.235  20.580  0.00  0.00    +0.000 A 
ATOM     25  C   UNL     1      -1.008  11.216  21.103  0.00  0.00    +0.000 A 
ATOM     26  C   UNL     1      -1.297  11.264  22.476  0.00  0.00    +0.000 A 
ATOM     27  C   UNL     1      -0.754  10.271  23.304  0.00  0.00    +0.000 A 
ATOM     28  C   UNL     1       0.098   9.291  22.782  0.00  0.00    +0.000 A 
BRANCH  26  29
ATOM     29  C   UNL     1      -2.130  12.408  23.034  0.00  0.00    +0.000 C 
ATOM     30  C   UNL     1      -1.287  13.638  23.377  0.00  0.00    +0.000 C 
ATOM     31  C   UNL     1      -3.264  12.783  22.076  0.00  0.00    +0.000 C 
ENDBRANCH  26  29
ENDBRANCH  22  23
ENDBRANCH   3  21
TORSDOF 9
ENDMDL
