MODEL 1
REMARK VINA RESULT:      -8.1      0.000      0.000
REMARK  Name = 
REMARK  2 active torsions:
REMARK  status: ('A' for Active; 'I' for Inactive)
REMARK    1  A    between atoms: N_20  and  C_21
REMARK    2  A    between atoms: C_21  and  N_22
REMARK                            x       y       z     vdW  Elec       q    Type
REMARK                         _______ _______ _______ _____ _____    ______ ____
ROOT
ATOM      1  O   UNL     1       2.221   8.790  17.086  0.00  0.00    +0.000 OA
ATOM      2  C   UNL     1       2.045   8.796  18.302  0.00  0.00    +0.000 A 
ATOM      3  C   UNL     1       1.539  10.039  18.916  0.00  0.00    +0.000 A 
ATOM      4  C   UNL     1       1.627  11.237  18.198  0.00  0.00    +0.000 A 
ATOM      5  C   UNL     1       1.115  12.410  18.741  0.00  0.00    +0.000 A 
ATOM      6  C   UNL     1       0.476  12.376  19.980  0.00  0.00    +0.000 A 
ATOM      7  O   UNL     1      -0.011  13.584  20.426  0.00  0.00    +0.000 OA
ATOM      8  C   UNL     1      -0.773  13.581  21.575  0.00  0.00    +0.000 A 
ATOM      9  C   UNL     1      -1.335  14.820  21.907  0.00  0.00    +0.000 A 
ATOM     10  C   UNL     1      -2.156  14.929  23.019  0.00  0.00    +0.000 A 
ATOM     11  C   UNL     1      -2.406  13.799  23.800  0.00  0.00    +0.000 A 
ATOM     12  C   UNL     1      -1.824  12.564  23.474  0.00  0.00    +0.000 A 
ATOM     13  C   UNL     1      -0.987  12.427  22.354  0.00  0.00    +0.000 A 
ATOM     14  C   UNL     1      -0.355  11.162  21.918  0.00  0.00    +0.000 A 
ATOM     15  C   UNL     1      -0.435   9.941  22.609  0.00  0.00    +0.000 A 
ATOM     16  C   UNL     1       0.172   8.777  22.105  0.00  0.00    +0.000 A 
ATOM     17  C   UNL     1       0.860   8.802  20.884  0.00  0.00    +0.000 A 
ATOM     18  C   UNL     1       1.507   7.570  20.337  0.00  0.00    +0.000 A 
ATOM     19  O   UNL     1       1.346   6.509  20.938  0.00  0.00    +0.000 OA
ATOM     20  N   UNL     1       2.221   7.697  19.139  0.00  0.00    +0.000 N 
ATOM     21  C   UNL     1       0.932   9.996  20.170  0.00  0.00    +0.000 A 
ATOM     22  C   UNL     1       0.352  11.180  20.698  0.00  0.00    +0.000 A 
ENDROOT
BRANCH  20  23
ATOM     23  C   UNL     1       2.731   6.482  18.500  0.00  0.00    +0.000 C 
BRANCH  23  24
ATOM     24  N   UNL     1       4.179   6.308  18.495  0.00  0.00    +0.000 NA
ATOM     25  C   UNL     1       4.791   5.320  19.376  0.00  0.00    +0.000 C 
ATOM     26  C   UNL     1       5.160   3.962  18.727  0.00  0.00    +0.000 C 
ATOM     27  N   UNL     1       5.569   3.955  17.317  0.00  0.00    +0.000 NA
ATOM     28  C   UNL     1       4.960   5.010  16.503  0.00  0.00    +0.000 C 
ATOM     29  C   UNL     1       4.843   6.369  17.200  0.00  0.00    +0.000 C 
ATOM     30  H   UNL     1       5.343   3.049  16.906  0.00  0.00    +0.000 HD
ENDBRANCH  23  24
ENDBRANCH  20  23
TORSDOF 2
ENDMDL
MODEL 2
REMARK VINA RESULT:      -8.1      1.917      3.535
REMARK  Name = 
REMARK  2 active torsions:
REMARK  status: ('A' for Active; 'I' for Inactive)
REMARK    1  A    between atoms: N_20  and  C_21
REMARK    2  A    between atoms: C_21  and  N_22
REMARK                            x       y       z     vdW  Elec       q    Type
REMARK                         _______ _______ _______ _____ _____    ______ ____
ROOT
ATOM      1  O   UNL     1       2.222   5.780  21.247  0.00  0.00    +0.000 OA
ATOM      2  C   UNL     1       2.038   6.552  20.310  0.00  0.00    +0.000 A 
ATOM      3  C   UNL     1       1.221   7.755  20.561  0.00  0.00    +0.000 A 
ATOM      4  C   UNL     1       0.400   7.795  21.695  0.00  0.00    +0.000 A 
ATOM      5  C   UNL     1      -0.343   8.937  21.973  0.00  0.00    +0.000 A 
ATOM      6  C   UNL     1      -0.231  10.052  21.144  0.00  0.00    +0.000 A 
ATOM      7  O   UNL     1      -0.994  11.138  21.510  0.00  0.00    +0.000 OA
ATOM      8  C   UNL     1      -0.815  12.311  20.809  0.00  0.00    +0.000 A 
ATOM      9  C   UNL     1      -1.531  13.406  21.306  0.00  0.00    +0.000 A 
ATOM     10  C   UNL     1      -1.396  14.648  20.707  0.00  0.00    +0.000 A 
ATOM     11  C   UNL     1      -0.550  14.790  19.606  0.00  0.00    +0.000 A 
ATOM     12  C   UNL     1       0.151  13.685  19.097  0.00  0.00    +0.000 A 
ATOM     13  C   UNL     1       0.030  12.415  19.685  0.00  0.00    +0.000 A 
ATOM     14  C   UNL     1       0.751  11.202  19.238  0.00  0.00    +0.000 A 
ATOM     15  C   UNL     1       1.590  11.132  18.112  0.00  0.00    +0.000 A 
ATOM     16  C   UNL     1       2.263   9.944  17.777  0.00  0.00    +0.000 A 
ATOM     17  C   UNL     1       2.125   8.798  18.572  0.00  0.00    +0.000 A 
ATOM     18  C   UNL     1       2.837   7.529  18.226  0.00  0.00    +0.000 A 
ATOM     19  O   UNL     1       3.619   7.537  17.277  0.00  0.00    +0.000 OA
ATOM     20  N   UNL     1       2.600   6.416  19.042  0.00  0.00    +0.000 N 
ATOM     21  C   UNL     1       1.317   8.850  19.705  0.00  0.00    +0.000 A 
ATOM     22  C   UNL     1       0.608  10.040  20.022  0.00  0.00    +0.000 A 
ENDROOT
BRANCH  20  23
ATOM     23  C   UNL     1       3.399   5.209  18.823  0.00  0.00    +0.000 C 
BRANCH  23  24
ATOM     24  N   UNL     1       2.875   4.246  17.861  0.00  0.00    +0.000 NA
ATOM     25  C   UNL     1       3.658   3.064  17.521  0.00  0.00    +0.000 C 
ATOM     26  C   UNL     1       3.264   1.752  18.244  0.00  0.00    +0.000 C 
ATOM     27  N   UNL     1       1.852   1.549  18.593  0.00  0.00    +0.000 NA
ATOM     28  C   UNL     1       1.110   2.782  18.865  0.00  0.00    +0.000 C 
ATOM     29  C   UNL     1       1.450   3.952  17.936  0.00  0.00    +0.000 C 
ATOM     30  H   UNL     1       1.791   0.940  19.408  0.00  0.00    +0.000 HD
ENDBRANCH  23  24
ENDBRANCH  20  23
TORSDOF 2
ENDMDL
MODEL 3
REMARK VINA RESULT:      -7.9      3.253      8.121
REMARK  Name = 
REMARK  2 active torsions:
REMARK  status: ('A' for Active; 'I' for Inactive)
REMARK    1  A    between atoms: N_20  and  C_21
REMARK    2  A    between atoms: C_21  and  N_22
REMARK                            x       y       z     vdW  Elec       q    Type
REMARK                         _______ _______ _______ _____ _____    ______ ____
ROOT
ATOM      1  O   UNL     1       0.559  14.242  20.329  0.00  0.00    +0.000 OA
ATOM      2  C   UNL     1       0.158  13.123  20.641  0.00  0.00    +0.000 A 
ATOM      3  C   UNL     1       0.715  11.966  19.914  0.00  0.00    +0.000 A 
ATOM      4  C   UNL     1       1.366  12.180  18.693  0.00  0.00    +0.000 A 
ATOM      5  C   UNL     1       1.937  11.108  18.015  0.00  0.00    +0.000 A 
ATOM      6  C   UNL     1       1.896   9.834  18.579  0.00  0.00    +0.000 A 
ATOM      7  O   UNL     1       2.501   8.842  17.840  0.00  0.00    +0.000 OA
ATOM      8  C   UNL     1       2.613   7.595  18.415  0.00  0.00    +0.000 A 
ATOM      9  C   UNL     1       3.342   6.666  17.662  0.00  0.00    +0.000 A 
ATOM     10  C   UNL     1       3.557   5.391  18.160  0.00  0.00    +0.000 A 
ATOM     11  C   UNL     1       3.034   5.044  19.407  0.00  0.00    +0.000 A 
ATOM     12  C   UNL     1       2.287   5.972  20.150  0.00  0.00    +0.000 A 
ATOM     13  C   UNL     1       2.054   7.270  19.667  0.00  0.00    +0.000 A 
ATOM     14  C   UNL     1       1.305   8.322  20.391  0.00  0.00    +0.000 A 
ATOM     15  C   UNL     1       0.651   8.143  21.622  0.00  0.00    +0.000 A 
ATOM     16  C   UNL     1      -0.012   9.208  22.257  0.00  0.00    +0.000 A 
ATOM     17  C   UNL     1      -0.023  10.486  21.683  0.00  0.00    +0.000 A 
ATOM     18  C   UNL     1      -0.724  11.626  22.350  0.00  0.00    +0.000 A 
ATOM     19  O   UNL     1      -1.216  11.441  23.460  0.00  0.00    +0.000 OA
ATOM     20  N   UNL     1      -0.732  12.856  21.679  0.00  0.00    +0.000 N 
ATOM     21  C   UNL     1       0.637  10.692  20.473  0.00  0.00    +0.000 A 
ATOM     22  C   UNL     1       1.275   9.608  19.814  0.00  0.00    +0.000 A 
ENDROOT
BRANCH  20  23
ATOM     23  C   UNL     1      -1.272  14.025  22.375  0.00  0.00    +0.000 C 
BRANCH  23  24
ATOM     24  N   UNL     1      -2.653  14.384  22.072  0.00  0.00    +0.000 NA
ATOM     25  C   UNL     1      -3.291  13.854  20.873  0.00  0.00    +0.000 C 
ATOM     26  C   UNL     1      -4.215  12.627  21.077  0.00  0.00    +0.000 C 
ATOM     27  N   UNL     1      -4.955  12.518  22.340  0.00  0.00    +0.000 NA
ATOM     28  C   UNL     1      -4.283  13.124  23.493  0.00  0.00    +0.000 C 
ATOM     29  C   UNL     1      -3.576  14.451  23.196  0.00  0.00    +0.000 C 
ATOM     30  H   UNL     1      -5.135  11.535  22.542  0.00  0.00    +0.000 HD
ENDBRANCH  23  24
ENDBRANCH  20  23
TORSDOF 2
ENDMDL
MODEL 4
REMARK VINA RESULT:      -7.8      3.204      8.432
REMARK  Name = 
REMARK  2 active torsions:
REMARK  status: ('A' for Active; 'I' for Inactive)
REMARK    1  A    between atoms: N_20  and  C_21
REMARK    2  A    between atoms: C_21  and  N_22
REMARK                            x       y       z     vdW  Elec       q    Type
REMARK                         _______ _______ _______ _____ _____    ______ ____
ROOT
ATOM      1  O   UNL     1       0.242  14.082  20.552  0.00  0.00    +0.000 OA
ATOM      2  C   UNL     1      -0.038  12.909  20.785  0.00  0.00    +0.000 A 
ATOM      3  C   UNL     1       0.593  11.873  19.944  0.00  0.00    +0.000 A 
ATOM      4  C   UNL     1       1.167  12.244  18.723  0.00  0.00    +0.000 A 
ATOM      5  C   UNL     1       1.806  11.291  17.938  0.00  0.00    +0.000 A 
ATOM      6  C   UNL     1       1.909   9.978  18.394  0.00  0.00    +0.000 A 
ATOM      7  O   UNL     1       2.571   9.111  17.554  0.00  0.00    +0.000 OA
ATOM      8  C   UNL     1       2.824   7.838  18.019  0.00  0.00    +0.000 A 
ATOM      9  C   UNL     1       3.604   7.048  17.165  0.00  0.00    +0.000 A 
ATOM     10  C   UNL     1       3.958   5.764  17.547  0.00  0.00    +0.000 A 
ATOM     11  C   UNL     1       3.525   5.270  18.779  0.00  0.00    +0.000 A 
ATOM     12  C   UNL     1       2.728   6.059  19.623  0.00  0.00    +0.000 A 
ATOM     13  C   UNL     1       2.353   7.363  19.259  0.00  0.00    +0.000 A 
ATOM     14  C   UNL     1       1.541   8.276  20.095  0.00  0.00    +0.000 A 
ATOM     15  C   UNL     1       0.961   7.937  21.329  0.00  0.00    +0.000 A 
ATOM     16  C   UNL     1       0.230   8.879  22.074  0.00  0.00    +0.000 A 
ATOM     17  C   UNL     1       0.075  10.192  21.609  0.00  0.00    +0.000 A 
ATOM     18  C   UNL     1      -0.700  11.202  22.393  0.00  0.00    +0.000 A 
ATOM     19  O   UNL     1      -1.123  10.882  23.502  0.00  0.00    +0.000 OA
ATOM     20  N   UNL     1      -0.853  12.475  21.828  0.00  0.00    +0.000 N 
ATOM     21  C   UNL     1       0.659  10.557  20.398  0.00  0.00    +0.000 A 
ATOM     22  C   UNL     1       1.366   9.595  19.628  0.00  0.00    +0.000 A 
ENDROOT
BRANCH  20  23
ATOM     23  C   UNL     1      -1.469  13.527  22.638  0.00  0.00    +0.000 C 
BRANCH  23  24
ATOM     24  N   UNL     1      -2.844  13.883  22.307  0.00  0.00    +0.000 NA
ATOM     25  C   UNL     1      -3.902  12.891  22.452  0.00  0.00    +0.000 C 
ATOM     26  C   UNL     1      -4.752  12.983  23.744  0.00  0.00    +0.000 C 
ATOM     27  N   UNL     1      -4.986  14.310  24.329  0.00  0.00    +0.000 NA
ATOM     28  C   UNL     1      -3.908  15.275  24.095  0.00  0.00    +0.000 C 
ATOM     29  C   UNL     1      -3.289  15.215  22.694  0.00  0.00    +0.000 C 
ATOM     30  H   UNL     1      -5.131  14.214  25.333  0.00  0.00    +0.000 HD
ENDBRANCH  23  24
ENDBRANCH  20  23
TORSDOF 2
ENDMDL
MODEL 5
REMARK VINA RESULT:      -7.8      1.042      1.161
REMARK  Name = 
REMARK  2 active torsions:
REMARK  status: ('A' for Active; 'I' for Inactive)
REMARK    1  A    between atoms: N_20  and  C_21
REMARK    2  A    between atoms: C_21  and  N_22
REMARK                            x       y       z     vdW  Elec       q    Type
REMARK                         _______ _______ _______ _____ _____    ______ ____
ROOT
ATOM      1  O   UNL     1       2.875   8.296  16.702  0.00  0.00    +0.000 OA
ATOM      2  C   UNL     1       2.655   8.224  17.909  0.00  0.00    +0.000 A 
ATOM      3  C   UNL     1       2.013   9.383  18.560  0.00  0.00    +0.000 A 
ATOM      4  C   UNL     1       2.015  10.620  17.904  0.00  0.00    +0.000 A 
ATOM      5  C   UNL     1       1.376  11.712  18.480  0.00  0.00    +0.000 A 
ATOM      6  C   UNL     1       0.699  11.556  19.688  0.00  0.00    +0.000 A 
ATOM      7  O   UNL     1       0.086  12.690  20.172  0.00  0.00    +0.000 OA
ATOM      8  C   UNL     1      -0.714  12.559  21.286  0.00  0.00    +0.000 A 
ATOM      9  C   UNL     1      -1.401  13.723  21.654  0.00  0.00    +0.000 A 
ATOM     10  C   UNL     1      -2.268  13.699  22.735  0.00  0.00    +0.000 A 
ATOM     11  C   UNL     1      -2.440  12.513  23.451  0.00  0.00    +0.000 A 
ATOM     12  C   UNL     1      -1.734  11.354  23.091  0.00  0.00    +0.000 A 
ATOM     13  C   UNL     1      -0.848  11.352  22.001  0.00  0.00    +0.000 A 
ATOM     14  C   UNL     1      -0.086  10.174  21.531  0.00  0.00    +0.000 A 
ATOM     15  C   UNL     1      -0.076   8.917  22.160  0.00  0.00    +0.000 A 
ATOM     16  C   UNL     1       0.654   7.840  21.626  0.00  0.00    +0.000 A 
ATOM     17  C   UNL     1       1.381   7.990  20.437  0.00  0.00    +0.000 A 
ATOM     18  C   UNL     1       2.159   6.852  19.860  0.00  0.00    +0.000 A 
ATOM     19  O   UNL     1       2.076   5.752  20.402  0.00  0.00    +0.000 OA
ATOM     20  N   UNL     1       2.902   7.104  18.699  0.00  0.00    +0.000 N 
ATOM     21  C   UNL     1       1.368   9.221  19.785  0.00  0.00    +0.000 A 
ATOM     22  C   UNL     1       0.661  10.319  20.344  0.00  0.00    +0.000 A 
ENDROOT
BRANCH  20  23
ATOM     23  C   UNL     1       3.546   5.976  18.025  0.00  0.00    +0.000 C 
BRANCH  23  24
ATOM     24  N   UNL     1       4.862   6.226  17.448  0.00  0.00    +0.000 NA
ATOM     25  C   UNL     1       6.055   6.049  18.266  0.00  0.00    +0.000 C 
ATOM     26  C   UNL     1       6.817   4.713  18.082  0.00  0.00    +0.000 C 
ATOM     27  N   UNL     1       6.810   4.086  16.753  0.00  0.00    +0.000 NA
ATOM     28  C   UNL     1       5.606   4.354  15.963  0.00  0.00    +0.000 C 
ATOM     29  C   UNL     1       5.071   5.786  16.075  0.00  0.00    +0.000 C 
ATOM     30  H   UNL     1       6.921   3.078  16.856  0.00  0.00    +0.000 HD
ENDBRANCH  23  24
ENDBRANCH  20  23
TORSDOF 2
ENDMDL
MODEL 6
REMARK VINA RESULT:      -7.8      1.707      2.014
REMARK  Name = 
REMARK  2 active torsions:
REMARK  status: ('A' for Active; 'I' for Inactive)
REMARK    1  A    between atoms: N_20  and  C_21
REMARK    2  A    between atoms: C_21  and  N_22
REMARK                            x       y       z     vdW  Elec       q    Type
REMARK                         _______ _______ _______ _____ _____    ______ ____
ROOT
ATOM      1  O   UNL     1       2.940   7.506  17.218  0.00  0.00    +0.000 OA
ATOM      2  C   UNL     1       2.632   7.643  18.399  0.00  0.00    +0.000 A 
ATOM      3  C   UNL     1       1.997   8.913  18.800  0.00  0.00    +0.000 A 
ATOM      4  C   UNL     1       2.101  10.023  17.954  0.00  0.00    +0.000 A 
ATOM      5  C   UNL     1       1.472  11.216  18.293  0.00  0.00    +0.000 A 
ATOM      6  C   UNL     1       0.703  11.285  19.453  0.00  0.00    +0.000 A 
ATOM      7  O   UNL     1       0.108  12.502  19.696  0.00  0.00    +0.000 OA
ATOM      8  C   UNL     1      -0.775  12.584  20.751  0.00  0.00    +0.000 A 
ATOM      9  C   UNL     1      -1.434  13.814  20.869  0.00  0.00    +0.000 A 
ATOM     10  C   UNL     1      -2.376  13.998  21.868  0.00  0.00    +0.000 A 
ATOM     11  C   UNL     1      -2.652  12.953  22.752  0.00  0.00    +0.000 A 
ATOM     12  C   UNL     1      -1.975  11.729  22.642  0.00  0.00    +0.000 A 
ATOM     13  C   UNL     1      -1.014  11.517  21.640  0.00  0.00    +0.000 A 
ATOM     14  C   UNL     1      -0.273  10.253  21.430  0.00  0.00    +0.000 A 
ATOM     15  C   UNL     1      -0.365   9.118  22.254  0.00  0.00    +0.000 A 
ATOM     16  C   UNL     1       0.353   7.945  21.961  0.00  0.00    +0.000 A 
ATOM     17  C   UNL     1       1.169   7.872  20.825  0.00  0.00    +0.000 A 
ATOM     18  C   UNL     1       1.936   6.629  20.503  0.00  0.00    +0.000 A 
ATOM     19  O   UNL     1       1.765   5.638  21.209  0.00  0.00    +0.000 OA
ATOM     20  N   UNL     1       2.770   6.662  19.379  0.00  0.00    +0.000 N 
ATOM     21  C   UNL     1       1.259   8.977  19.981  0.00  0.00    +0.000 A 
ATOM     22  C   UNL     1       0.563  10.175  20.297  0.00  0.00    +0.000 A 
ENDROOT
BRANCH  20  23
ATOM     23  C   UNL     1       3.410   5.417  18.950  0.00  0.00    +0.000 C 
BRANCH  23  24
ATOM     24  N   UNL     1       2.712   4.642  17.931  0.00  0.00    +0.000 NA
ATOM     25  C   UNL     1       3.431   3.621  17.179  0.00  0.00    +0.000 C 
ATOM     26  C   UNL     1       3.244   2.160  17.658  0.00  0.00    +0.000 C 
ATOM     27  N   UNL     1       1.951   1.782  18.244  0.00  0.00    +0.000 NA
ATOM     28  C   UNL     1       1.255   2.871  18.934  0.00  0.00    +0.000 C 
ATOM     29  C   UNL     1       1.348   4.233  18.237  0.00  0.00    +0.000 C 
ATOM     30  H   UNL     1       2.090   1.012  18.897  0.00  0.00    +0.000 HD
ENDBRANCH  23  24
ENDBRANCH  20  23
TORSDOF 2
ENDMDL
MODEL 7
REMARK VINA RESULT:      -7.8      0.863      2.734
REMARK  Name = 
REMARK  2 active torsions:
REMARK  status: ('A' for Active; 'I' for Inactive)
REMARK    1  A    between atoms: N_20  and  C_21
REMARK    2  A    between atoms: C_21  and  N_22
REMARK                            x       y       z     vdW  Elec       q    Type
REMARK                         _______ _______ _______ _____ _____    ______ ____
ROOT
ATOM      1  O   UNL     1       1.847   6.374  20.878  0.00  0.00    +0.000 OA
ATOM      2  C   UNL     1       1.548   7.349  20.192  0.00  0.00    +0.000 A 
ATOM      3  C   UNL     1       0.891   8.486  20.866  0.00  0.00    +0.000 A 
ATOM      4  C   UNL     1       0.308   8.288  22.123  0.00  0.00    +0.000 A 
ATOM      5  C   UNL     1      -0.276   9.357  22.793  0.00  0.00    +0.000 A 
ATOM      6  C   UNL     1      -0.238  10.630  22.227  0.00  0.00    +0.000 A 
ATOM      7  O   UNL     1      -0.829  11.625  22.972  0.00  0.00    +0.000 OA
ATOM      8  C   UNL     1      -0.696  12.923  22.526  0.00  0.00    +0.000 A 
ATOM      9  C   UNL     1      -1.216  13.895  23.389  0.00  0.00    +0.000 A 
ATOM     10  C   UNL     1      -1.101  15.237  23.065  0.00  0.00    +0.000 A 
ATOM     11  C   UNL     1      -0.473  15.604  21.874  0.00  0.00    +0.000 A 
ATOM     12  C   UNL     1       0.030  14.626  21.002  0.00  0.00    +0.000 A 
ATOM     13  C   UNL     1      -0.076  13.258  21.306  0.00  0.00    +0.000 A 
ATOM     14  C   UNL     1       0.449  12.160  20.463  0.00  0.00    +0.000 A 
ATOM     15  C   UNL     1       1.049  12.327  19.203  0.00  0.00    +0.000 A 
ATOM     16  C   UNL     1       1.550  11.228  18.483  0.00  0.00    +0.000 A 
ATOM     17  C   UNL     1       1.478   9.934  19.015  0.00  0.00    +0.000 A 
ATOM     18  C   UNL     1       2.009   8.758  18.259  0.00  0.00    +0.000 A 
ATOM     19  O   UNL     1       2.593   8.961  17.197  0.00  0.00    +0.000 OA
ATOM     20  N   UNL     1       1.845   7.494  18.839  0.00  0.00    +0.000 N 
ATOM     21  C   UNL     1       0.907   9.747  20.272  0.00  0.00    +0.000 A 
ATOM     22  C   UNL     1       0.367  10.852  20.983  0.00  0.00    +0.000 A 
ENDROOT
BRANCH  20  23
ATOM     23  C   UNL     1       2.490   6.345  18.200  0.00  0.00    +0.000 C 
BRANCH  23  24
ATOM     24  N   UNL     1       3.944   6.275  18.299  0.00  0.00    +0.000 NA
ATOM     25  C   UNL     1       4.560   5.416  19.303  0.00  0.00    +0.000 C 
ATOM     26  C   UNL     1       5.060   4.036  18.806  0.00  0.00    +0.000 C 
ATOM     27  N   UNL     1       5.561   3.933  17.430  0.00  0.00    +0.000 NA
ATOM     28  C   UNL     1       4.940   4.866  16.487  0.00  0.00    +0.000 C 
ATOM     29  C   UNL     1       4.688   6.270  17.047  0.00  0.00    +0.000 C 
ATOM     30  H   UNL     1       5.425   2.981  17.092  0.00  0.00    +0.000 HD
ENDBRANCH  23  24
ENDBRANCH  20  23
TORSDOF 2
ENDMDL
MODEL 8
REMARK VINA RESULT:      -7.8      4.061      8.894
REMARK  Name = 
REMARK  2 active torsions:
REMARK  status: ('A' for Active; 'I' for Inactive)
REMARK    1  A    between atoms: N_20  and  C_21
REMARK    2  A    between atoms: C_21  and  N_22
REMARK                            x       y       z     vdW  Elec       q    Type
REMARK                         _______ _______ _______ _____ _____    ______ ____
ROOT
ATOM      1  O   UNL     1      -3.276  12.312  23.966  0.00  0.00    +0.000 OA
ATOM      2  C   UNL     1      -2.534  12.610  23.033  0.00  0.00    +0.000 A 
ATOM      3  C   UNL     1      -1.556  11.599  22.586  0.00  0.00    +0.000 A 
ATOM      4  C   UNL     1      -1.250  10.527  23.432  0.00  0.00    +0.000 A 
ATOM      5  C   UNL     1      -0.364   9.541  23.010  0.00  0.00    +0.000 A 
ATOM      6  C   UNL     1       0.178   9.604  21.728  0.00  0.00    +0.000 A 
ATOM      7  O   UNL     1       1.031   8.575  21.397  0.00  0.00    +0.000 OA
ATOM      8  C   UNL     1       1.484   8.513  20.097  0.00  0.00    +0.000 A 
ATOM      9  C   UNL     1       2.249   7.379  19.797  0.00  0.00    +0.000 A 
ATOM     10  C   UNL     1       2.723   7.188  18.509  0.00  0.00    +0.000 A 
ATOM     11  C   UNL     1       2.435   8.135  17.524  0.00  0.00    +0.000 A 
ATOM     12  C   UNL     1       1.684   9.280  17.833  0.00  0.00    +0.000 A 
ATOM     13  C   UNL     1       1.195   9.499  19.132  0.00  0.00    +0.000 A 
ATOM     14  C   UNL     1       0.371  10.658  19.543  0.00  0.00    +0.000 A 
ATOM     15  C   UNL     1       0.037  11.743  18.715  0.00  0.00    +0.000 A 
ATOM     16  C   UNL     1      -0.779  12.791  19.179  0.00  0.00    +0.000 A 
ATOM     17  C   UNL     1      -1.295  12.769  20.481  0.00  0.00    +0.000 A 
ATOM     18  C   UNL     1      -2.165  13.876  20.985  0.00  0.00    +0.000 A 
ATOM     19  O   UNL     1      -2.492  14.765  20.202  0.00  0.00    +0.000 OA
ATOM     20  N   UNL     1      -2.592  13.803  22.317  0.00  0.00    +0.000 N 
ATOM     21  C   UNL     1      -0.995  11.693  21.313  0.00  0.00    +0.000 A 
ATOM     22  C   UNL     1      -0.140  10.654  20.857  0.00  0.00    +0.000 A 
ENDROOT
BRANCH  20  23
ATOM     23  C   UNL     1      -3.568  14.786  22.791  0.00  0.00    +0.000 C 
BRANCH  23  24
ATOM     24  N   UNL     1      -3.057  15.851  23.647  0.00  0.00    +0.000 NA
ATOM     25  C   UNL     1      -3.126  15.709  25.097  0.00  0.00    +0.000 C 
ATOM     26  C   UNL     1      -1.827  15.246  25.801  0.00  0.00    +0.000 C 
ATOM     27  N   UNL     1      -0.540  15.656  25.224  0.00  0.00    +0.000 NA
ATOM     28  C   UNL     1      -0.557  15.837  23.770  0.00  0.00    +0.000 C 
ATOM     29  C   UNL     1      -1.825  16.501  23.222  0.00  0.00    +0.000 C 
ATOM     30  H   UNL     1       0.171  14.967  25.463  0.00  0.00    +0.000 HD
ENDBRANCH  23  24
ENDBRANCH  20  23
TORSDOF 2
ENDMDL
MODEL 9
REMARK VINA RESULT:      -7.5      3.254      8.103
REMARK  Name = 
REMARK  2 active torsions:
REMARK  status: ('A' for Active; 'I' for Inactive)
REMARK    1  A    between atoms: N_20  and  C_21
REMARK    2  A    between atoms: C_21  and  N_22
REMARK                            x       y       z     vdW  Elec       q    Type
REMARK                         _______ _______ _______ _____ _____    ______ ____
ROOT
ATOM      1  O   UNL     1      -1.660  11.978  21.769  0.00  0.00    +0.000 OA
ATOM      2  C   UNL     1      -0.675  11.803  21.056  0.00  0.00    +0.000 A 
ATOM      3  C   UNL     1      -0.052  10.464  21.063  0.00  0.00    +0.000 A 
ATOM      4  C   UNL     1      -0.346   9.584  22.111  0.00  0.00    +0.000 A 
ATOM      5  C   UNL     1       0.196   8.303  22.112  0.00  0.00    +0.000 A 
ATOM      6  C   UNL     1       0.993   7.889  21.046  0.00  0.00    +0.000 A 
ATOM      7  O   UNL     1       1.470   6.600  21.131  0.00  0.00    +0.000 OA
ATOM      8  C   UNL     1       2.143   6.095  20.040  0.00  0.00    +0.000 A 
ATOM      9  C   UNL     1       2.496   4.744  20.144  0.00  0.00    +0.000 A 
ATOM     10  C   UNL     1       3.140   4.116  19.090  0.00  0.00    +0.000 A 
ATOM     11  C   UNL     1       3.437   4.843  17.936  0.00  0.00    +0.000 A 
ATOM     12  C   UNL     1       3.099   6.203  17.843  0.00  0.00    +0.000 A 
ATOM     13  C   UNL     1       2.448   6.863  18.898  0.00  0.00    +0.000 A 
ATOM     14  C   UNL     1       2.027   8.282  18.878  0.00  0.00    +0.000 A 
ATOM     15  C   UNL     1       2.296   9.189  17.838  0.00  0.00    +0.000 A 
ATOM     16  C   UNL     1       1.830  10.514  17.888  0.00  0.00    +0.000 A 
ATOM     17  C   UNL     1       1.068  10.963  18.975  0.00  0.00    +0.000 A 
ATOM     18  C   UNL     1       0.566  12.370  19.037  0.00  0.00    +0.000 A 
ATOM     19  O   UNL     1       0.760  13.103  18.070  0.00  0.00    +0.000 OA
ATOM     20  N   UNL     1      -0.141  12.750  20.185  0.00  0.00    +0.000 N 
ATOM     21  C   UNL     1       0.770  10.076  20.007  0.00  0.00    +0.000 A 
ATOM     22  C   UNL     1       1.272   8.748  19.975  0.00  0.00    +0.000 A 
ENDROOT
BRANCH  20  23
ATOM     23  C   UNL     1      -0.777  14.069  20.208  0.00  0.00    +0.000 C 
BRANCH  23  24
ATOM     24  N   UNL     1      -0.050  15.131  20.893  0.00  0.00    +0.000 NA
ATOM     25  C   UNL     1       1.027  14.791  21.816  0.00  0.00    +0.000 C 
ATOM     26  C   UNL     1       2.466  14.898  21.254  0.00  0.00    +0.000 C 
ATOM     27  N   UNL     1       2.743  15.927  20.243  0.00  0.00    +0.000 NA
ATOM     28  C   UNL     1       1.600  16.261  19.389  0.00  0.00    +0.000 C 
ATOM     29  C   UNL     1       0.254  16.326  20.118  0.00  0.00    +0.000 C 
ATOM     30  H   UNL     1       3.517  15.621  19.655  0.00  0.00    +0.000 HD
ENDBRANCH  23  24
ENDBRANCH  20  23
TORSDOF 2
ENDMDL
