MODEL 1
REMARK VINA RESULT:      -7.2      0.000      0.000
REMARK  Name = 
REMARK  12 active torsions:
REMARK  status: ('A' for Active; 'I' for Inactive)
REMARK    1  A    between atoms: C_1  and  C_2
REMARK    2  A    between atoms: N_10  and  S_11
REMARK    3  A    between atoms: S_11  and  C_14
REMARK    4  A    between atoms: C_15  and  C_16
REMARK    5  A    between atoms: C_16  and  C_17
REMARK    6  A    between atoms: C_16  and  C_18
REMARK    7  A    between atoms: C_20  and  C_21
REMARK    8  A    between atoms: C_21  and  C_22
REMARK    9  A    between atoms: C_21  and  C_23
REMARK   10  A    between atoms: C_25  and  C_26
REMARK   11  A    between atoms: C_26  and  C_27
REMARK   12  A    between atoms: C_26  and  C_28
REMARK                            x       y       z     vdW  Elec       q    Type
REMARK                         _______ _______ _______ _____ _____    ______ ____
ROOT
ATOM      1  C   UNL     1      -2.542  12.230  19.709  0.00  0.00    +0.000 A 
ATOM      2  C   UNL     1      -3.326  12.670  20.836  0.00  0.00    +0.000 A 
ATOM      3  C   UNL     1      -4.738  12.642  20.708  0.00  0.00    +0.000 A 
ATOM      4  C   UNL     1      -5.402  12.179  19.577  0.00  0.00    +0.000 A 
ATOM      5  C   UNL     1      -4.630  11.718  18.513  0.00  0.00    +0.000 A 
ATOM      6  C   UNL     1      -3.209  11.714  18.535  0.00  0.00    +0.000 A 
ENDROOT
BRANCH   1   7
ATOM      7  S   UNL     1      -0.736  12.539  19.663  0.00  0.00    +0.000 S 
ATOM      8  O   UNL     1      -0.414  13.545  20.668  0.00  0.00    +0.000 OA
ATOM      9  O   UNL     1      -0.312  12.763  18.306  0.00  0.00    +0.000 OA
BRANCH   7  19
ATOM     10  C   UNL     1       2.831   6.669  18.264  0.00  0.00    +0.000 C 
ATOM     11  C   UNL     1       2.206   7.959  18.711  0.00  0.00    +0.000 A 
ATOM     12  C   UNL     1       2.036   9.027  17.824  0.00  0.00    +0.000 A 
ATOM     13  C   UNL     1       1.368  10.204  18.200  0.00  0.00    +0.000 A 
ATOM     14  C   UNL     1       0.833  10.262  19.493  0.00  0.00    +0.000 A 
ATOM     15  C   UNL     1       1.083   9.250  20.428  0.00  0.00    +0.000 A 
ATOM     16  C   UNL     1       1.783   8.096  20.042  0.00  0.00    +0.000 A 
ATOM     17  N   UNL     1       0.565   9.561  21.661  0.00  0.00    +0.000 NA
ATOM     18  C   UNL     1      -0.014  10.728  21.497  0.00  0.00    +0.000 A 
ATOM     19  N   UNL     1       0.058  11.149  20.202  0.00  0.00    +0.000 N 
ENDBRANCH   7  19
ENDBRANCH   1   7
BRANCH   2  20
ATOM     20  C   UNL     1      -2.823  13.207  22.194  0.00  0.00    +0.000 C 
ATOM     21  C   UNL     1      -3.443  14.565  22.559  0.00  0.00    +0.000 C 
ATOM     22  C   UNL     1      -3.080  12.257  23.398  0.00  0.00    +0.000 C 
ENDBRANCH   2  20
BRANCH   4  23
ATOM     23  C   UNL     1      -6.923  12.205  19.549  0.00  0.00    +0.000 C 
ATOM     24  C   UNL     1      -7.522  12.032  20.945  0.00  0.00    +0.000 C 
ATOM     25  C   UNL     1      -7.478  13.459  18.872  0.00  0.00    +0.000 C 
ENDBRANCH   4  23
BRANCH   6  26
ATOM     26  C   UNL     1      -2.552  11.109  17.280  0.00  0.00    +0.000 C 
ATOM     27  C   UNL     1      -2.172   9.629  17.484  0.00  0.00    +0.000 C 
ATOM     28  C   UNL     1      -3.396  11.219  15.997  0.00  0.00    +0.000 C 
ENDBRANCH   6  26
TORSDOF 5
ENDMDL
MODEL 2
REMARK VINA RESULT:      -7.0      0.733      3.369
REMARK  Name = 
REMARK  12 active torsions:
REMARK  status: ('A' for Active; 'I' for Inactive)
REMARK    1  A    between atoms: C_1  and  C_2
REMARK    2  A    between atoms: N_10  and  S_11
REMARK    3  A    between atoms: S_11  and  C_14
REMARK    4  A    between atoms: C_15  and  C_16
REMARK    5  A    between atoms: C_16  and  C_17
REMARK    6  A    between atoms: C_16  and  C_18
REMARK    7  A    between atoms: C_20  and  C_21
REMARK    8  A    between atoms: C_21  and  C_22
REMARK    9  A    between atoms: C_21  and  C_23
REMARK   10  A    between atoms: C_25  and  C_26
REMARK   11  A    between atoms: C_26  and  C_27
REMARK   12  A    between atoms: C_26  and  C_28
REMARK                            x       y       z     vdW  Elec       q    Type
REMARK                         _______ _______ _______ _____ _____    ______ ____
ROOT
ATOM      1  C   UNL     1      -2.779  12.616  19.765  0.00  0.00    +0.000 A 
ATOM      2  C   UNL     1      -3.525  11.875  18.779  0.00  0.00    +0.000 A 
ATOM      3  C   UNL     1      -4.882  11.580  19.063  0.00  0.00    +0.000 A 
ATOM      4  C   UNL     1      -5.539  12.000  20.215  0.00  0.00    +0.000 A 
ATOM      5  C   UNL     1      -4.816  12.751  21.138  0.00  0.00    +0.000 A 
ATOM      6  C   UNL     1      -3.447  13.090  20.955  0.00  0.00    +0.000 A 
ENDROOT
BRANCH   1   7
ATOM      7  S   UNL     1      -0.956  12.752  19.634  0.00  0.00    +0.000 S 
ATOM      8  O   UNL     1      -0.496  13.743  20.600  0.00  0.00    +0.000 OA
ATOM      9  O   UNL     1      -0.575  12.908  18.255  0.00  0.00    +0.000 OA
BRANCH   7  19
ATOM     10  C   UNL     1       2.731   6.937  18.321  0.00  0.00    +0.000 C 
ATOM     11  C   UNL     1       2.055   8.199  18.773  0.00  0.00    +0.000 A 
ATOM     12  C   UNL     1       2.040   9.340  17.964  0.00  0.00    +0.000 A 
ATOM     13  C   UNL     1       1.331  10.497  18.329  0.00  0.00    +0.000 A 
ATOM     14  C   UNL     1       0.597  10.461  19.520  0.00  0.00    +0.000 A 
ATOM     15  C   UNL     1       0.685   9.370  20.393  0.00  0.00    +0.000 A 
ATOM     16  C   UNL     1       1.426   8.236  20.026  0.00  0.00    +0.000 A 
ATOM     17  N   UNL     1      -0.020   9.590  21.551  0.00  0.00    +0.000 NA
ATOM     18  C   UNL     1      -0.554  10.779  21.398  0.00  0.00    +0.000 A 
ATOM     19  N   UNL     1      -0.272  11.304  20.171  0.00  0.00    +0.000 N 
ENDBRANCH   7  19
ENDBRANCH   1   7
BRANCH   2  20
ATOM     20  C   UNL     1      -3.026  11.319  17.426  0.00  0.00    +0.000 C 
ATOM     21  C   UNL     1      -2.458   9.896  17.545  0.00  0.00    +0.000 C 
ATOM     22  C   UNL     1      -4.104  11.282  16.307  0.00  0.00    +0.000 C 
ENDBRANCH   2  20
BRANCH   4  23
ATOM     23  C   UNL     1      -6.997  11.616  20.418  0.00  0.00    +0.000 C 
ATOM     24  C   UNL     1      -7.238  10.130  20.151  0.00  0.00    +0.000 C 
ATOM     25  C   UNL     1      -7.524  12.012  21.799  0.00  0.00    +0.000 C 
ENDBRANCH   4  23
BRANCH   6  26
ATOM     26  C   UNL     1      -2.854  13.975  22.067  0.00  0.00    +0.000 C 
ATOM     27  C   UNL     1      -3.540  15.354  22.135  0.00  0.00    +0.000 C 
ATOM     28  C   UNL     1      -2.888  13.348  23.473  0.00  0.00    +0.000 C 
ENDBRANCH   6  26
TORSDOF 5
ENDMDL
MODEL 3
REMARK VINA RESULT:      -6.8      3.190      5.270
REMARK  Name = 
REMARK  12 active torsions:
REMARK  status: ('A' for Active; 'I' for Inactive)
REMARK    1  A    between atoms: C_1  and  C_2
REMARK    2  A    between atoms: N_10  and  S_11
REMARK    3  A    between atoms: S_11  and  C_14
REMARK    4  A    between atoms: C_15  and  C_16
REMARK    5  A    between atoms: C_16  and  C_17
REMARK    6  A    between atoms: C_16  and  C_18
REMARK    7  A    between atoms: C_20  and  C_21
REMARK    8  A    between atoms: C_21  and  C_22
REMARK    9  A    between atoms: C_21  and  C_23
REMARK   10  A    between atoms: C_25  and  C_26
REMARK   11  A    between atoms: C_26  and  C_27
REMARK   12  A    between atoms: C_26  and  C_28
REMARK                            x       y       z     vdW  Elec       q    Type
REMARK                         _______ _______ _______ _____ _____    ______ ____
ROOT
ATOM      1  C   UNL     1      -0.868  11.789  20.119  0.00  0.00    +0.000 A 
ATOM      2  C   UNL     1      -2.237  12.232  20.039  0.00  0.00    +0.000 A 
ATOM      3  C   UNL     1      -3.033  11.725  18.981  0.00  0.00    +0.000 A 
ATOM      4  C   UNL     1      -2.579  10.799  18.047  0.00  0.00    +0.000 A 
ATOM      5  C   UNL     1      -1.266  10.349  18.164  0.00  0.00    +0.000 A 
ATOM      6  C   UNL     1      -0.381  10.804  19.180  0.00  0.00    +0.000 A 
ENDROOT
BRANCH   1   7
ATOM      7  S   UNL     1       0.312  12.634  21.239  0.00  0.00    +0.000 S 
ATOM      8  O   UNL     1       1.363  11.689  21.601  0.00  0.00    +0.000 OA
ATOM      9  O   UNL     1      -0.405  13.300  22.293  0.00  0.00    +0.000 OA
BRANCH   7  19
ATOM     10  C   UNL     1       0.108  18.281  17.091  0.00  0.00    +0.000 C 
ATOM     11  C   UNL     1       0.298  17.171  18.085  0.00  0.00    +0.000 A 
ATOM     12  C   UNL     1      -0.767  16.707  18.863  0.00  0.00    +0.000 A 
ATOM     13  C   UNL     1      -0.630  15.607  19.727  0.00  0.00    +0.000 A 
ATOM     14  C   UNL     1       0.608  14.954  19.755  0.00  0.00    +0.000 A 
ATOM     15  C   UNL     1       1.714  15.466  19.066  0.00  0.00    +0.000 A 
ATOM     16  C   UNL     1       1.565  16.587  18.234  0.00  0.00    +0.000 A 
ATOM     17  N   UNL     1       2.851  14.740  19.322  0.00  0.00    +0.000 NA
ATOM     18  C   UNL     1       2.462  13.784  20.135  0.00  0.00    +0.000 A 
ATOM     19  N   UNL     1       1.118  13.830  20.361  0.00  0.00    +0.000 N 
ENDBRANCH   7  19
ENDBRANCH   1   7
BRANCH   2  20
ATOM     20  C   UNL     1      -2.970  13.233  20.960  0.00  0.00    +0.000 C 
ATOM     21  C   UNL     1      -4.161  13.912  20.265  0.00  0.00    +0.000 C 
ATOM     22  C   UNL     1      -3.511  12.617  22.280  0.00  0.00    +0.000 C 
ENDBRANCH   2  20
BRANCH   4  23
ATOM     23  C   UNL     1      -3.521  10.332  16.949  0.00  0.00    +0.000 C 
ATOM     24  C   UNL     1      -4.670  11.315  16.727  0.00  0.00    +0.000 C 
ATOM     25  C   UNL     1      -2.795  10.042  15.634  0.00  0.00    +0.000 C 
ENDBRANCH   4  23
BRANCH   6  26
ATOM     26  C   UNL     1       1.006  10.136  19.165  0.00  0.00    +0.000 C 
ATOM     27  C   UNL     1       1.070   8.913  20.102  0.00  0.00    +0.000 C 
ATOM     28  C   UNL     1       1.495   9.702  17.771  0.00  0.00    +0.000 C 
ENDBRANCH   6  26
TORSDOF 5
ENDMDL
MODEL 4
REMARK VINA RESULT:      -6.7      4.754     10.621
REMARK  Name = 
REMARK  12 active torsions:
REMARK  status: ('A' for Active; 'I' for Inactive)
REMARK    1  A    between atoms: C_1  and  C_2
REMARK    2  A    between atoms: N_10  and  S_11
REMARK    3  A    between atoms: S_11  and  C_14
REMARK    4  A    between atoms: C_15  and  C_16
REMARK    5  A    between atoms: C_16  and  C_17
REMARK    6  A    between atoms: C_16  and  C_18
REMARK    7  A    between atoms: C_20  and  C_21
REMARK    8  A    between atoms: C_21  and  C_22
REMARK    9  A    between atoms: C_21  and  C_23
REMARK   10  A    between atoms: C_25  and  C_26
REMARK   11  A    between atoms: C_26  and  C_27
REMARK   12  A    between atoms: C_26  and  C_28
REMARK                            x       y       z     vdW  Elec       q    Type
REMARK                         _______ _______ _______ _____ _____    ______ ____
ROOT
ATOM      1  C   UNL     1       4.708   4.845  17.672  0.00  0.00    +0.000 A 
ATOM      2  C   UNL     1       4.072   3.923  16.764  0.00  0.00    +0.000 A 
ATOM      3  C   UNL     1       4.706   3.680  15.520  0.00  0.00    +0.000 A 
ATOM      4  C   UNL     1       5.920   4.249  15.147  0.00  0.00    +0.000 A 
ATOM      5  C   UNL     1       6.542   5.105  16.053  0.00  0.00    +0.000 A 
ATOM      6  C   UNL     1       5.984   5.425  17.321  0.00  0.00    +0.000 A 
ENDROOT
BRANCH   1   7
ATOM      7  S   UNL     1       3.804   5.466  19.141  0.00  0.00    +0.000 S 
ATOM      8  O   UNL     1       4.778   5.810  20.171  0.00  0.00    +0.000 OA
ATOM      9  O   UNL     1       2.738   4.560  19.478  0.00  0.00    +0.000 OA
BRANCH   7  19
ATOM     10  C   UNL     1      -0.828  10.532  20.560  0.00  0.00    +0.000 C 
ATOM     11  C   UNL     1       0.297   9.599  20.217  0.00  0.00    +0.000 A 
ATOM     12  C   UNL     1       0.756   8.649  21.135  0.00  0.00    +0.000 A 
ATOM     13  C   UNL     1       1.740   7.706  20.797  0.00  0.00    +0.000 A 
ATOM     14  C   UNL     1       2.226   7.717  19.484  0.00  0.00    +0.000 A 
ATOM     15  C   UNL     1       1.859   8.724  18.583  0.00  0.00    +0.000 A 
ATOM     16  C   UNL     1       0.898   9.679  18.951  0.00  0.00    +0.000 A 
ATOM     17  N   UNL     1       2.538   8.612  17.395  0.00  0.00    +0.000 NA
ATOM     18  C   UNL     1       3.295   7.549  17.539  0.00  0.00    +0.000 A 
ATOM     19  N   UNL     1       3.086   6.941  18.743  0.00  0.00    +0.000 N 
ENDBRANCH   7  19
ENDBRANCH   1   7
BRANCH   2  20
ATOM     20  C   UNL     1       2.743   3.160  16.957  0.00  0.00    +0.000 C 
ATOM     21  C   UNL     1       2.847   2.050  18.016  0.00  0.00    +0.000 C 
ATOM     22  C   UNL     1       1.538   4.055  17.360  0.00  0.00    +0.000 C 
ENDBRANCH   2  20
BRANCH   4  23
ATOM     23  C   UNL     1       6.503   3.922  13.781  0.00  0.00    +0.000 C 
ATOM     24  C   UNL     1       5.412   3.606  12.757  0.00  0.00    +0.000 C 
ATOM     25  C   UNL     1       7.434   5.018  13.260  0.00  0.00    +0.000 C 
ENDBRANCH   4  23
BRANCH   6  26
ATOM     26  C   UNL     1       6.861   6.344  18.191  0.00  0.00    +0.000 C 
ATOM     27  C   UNL     1       7.951   5.558  18.947  0.00  0.00    +0.000 C 
ATOM     28  C   UNL     1       7.539   7.496  17.427  0.00  0.00    +0.000 C 
ENDBRANCH   6  26
TORSDOF 5
ENDMDL
MODEL 5
REMARK VINA RESULT:      -6.6      2.971      4.716
REMARK  Name = 
REMARK  12 active torsions:
REMARK  status: ('A' for Active; 'I' for Inactive)
REMARK    1  A    between atoms: C_1  and  C_2
REMARK    2  A    between atoms: N_10  and  S_11
REMARK    3  A    between atoms: S_11  and  C_14
REMARK    4  A    between atoms: C_15  and  C_16
REMARK    5  A    between atoms: C_16  and  C_17
REMARK    6  A    between atoms: C_16  and  C_18
REMARK    7  A    between atoms: C_20  and  C_21
REMARK    8  A    between atoms: C_21  and  C_22
REMARK    9  A    between atoms: C_21  and  C_23
REMARK   10  A    between atoms: C_25  and  C_26
REMARK   11  A    between atoms: C_26  and  C_27
REMARK   12  A    between atoms: C_26  and  C_28
REMARK                            x       y       z     vdW  Elec       q    Type
REMARK                         _______ _______ _______ _____ _____    ______ ____
ROOT
ATOM      1  C   UNL     1      -2.140  12.542  21.435  0.00  0.00    +0.000 A 
ATOM      2  C   UNL     1      -3.294  12.893  22.223  0.00  0.00    +0.000 A 
ATOM      3  C   UNL     1      -4.554  12.920  21.573  0.00  0.00    +0.000 A 
ATOM      4  C   UNL     1      -4.739  12.588  20.234  0.00  0.00    +0.000 A 
ATOM      5  C   UNL     1      -3.619  12.210  19.498  0.00  0.00    +0.000 A 
ATOM      6  C   UNL     1      -2.310  12.162  20.051  0.00  0.00    +0.000 A 
ENDROOT
BRANCH   1   7
ATOM      7  S   UNL     1      -0.452  12.801  22.103  0.00  0.00    +0.000 S 
ATOM      8  O   UNL     1       0.278  11.541  22.015  0.00  0.00    +0.000 OA
ATOM      9  O   UNL     1      -0.526  13.465  23.376  0.00  0.00    +0.000 OA
BRANCH   7  19
ATOM     10  C   UNL     1      -0.489  18.094  17.508  0.00  0.00    +0.000 C 
ATOM     11  C   UNL     1      -0.317  17.053  18.575  0.00  0.00    +0.000 A 
ATOM     12  C   UNL     1      -1.346  16.765  19.478  0.00  0.00    +0.000 A 
ATOM     13  C   UNL     1      -1.237  15.728  20.420  0.00  0.00    +0.000 A 
ATOM     14  C   UNL     1      -0.071  14.954  20.401  0.00  0.00    +0.000 A 
ATOM     15  C   UNL     1       1.011  15.291  19.579  0.00  0.00    +0.000 A 
ATOM     16  C   UNL     1       0.896  16.353  18.668  0.00  0.00    +0.000 A 
ATOM     17  N   UNL     1       2.091  14.473  19.802  0.00  0.00    +0.000 NA
ATOM     18  C   UNL     1       1.688  13.630  20.725  0.00  0.00    +0.000 A 
ATOM     19  N   UNL     1       0.382  13.834  21.058  0.00  0.00    +0.000 N 
ENDBRANCH   7  19
ENDBRANCH   1   7
BRANCH   2  20
ATOM     20  C   UNL     1      -3.346  13.281  23.718  0.00  0.00    +0.000 C 
ATOM     21  C   UNL     1      -3.749  14.749  23.934  0.00  0.00    +0.000 C 
ATOM     22  C   UNL     1      -4.312  12.417  24.576  0.00  0.00    +0.000 C 
ENDBRANCH   2  20
BRANCH   4  23
ATOM     23  C   UNL     1      -6.137  12.661  19.640  0.00  0.00    +0.000 C 
ATOM     24  C   UNL     1      -6.142  12.320  18.150  0.00  0.00    +0.000 C 
ATOM     25  C   UNL     1      -7.145  11.795  20.398  0.00  0.00    +0.000 C 
ENDBRANCH   4  23
BRANCH   6  26
ATOM     26  C   UNL     1      -1.224  11.662  19.081  0.00  0.00    +0.000 C 
ATOM     27  C   UNL     1      -1.560  10.272  18.504  0.00  0.00    +0.000 C 
ATOM     28  C   UNL     1      -0.924  12.613  17.908  0.00  0.00    +0.000 C 
ENDBRANCH   6  26
TORSDOF 5
ENDMDL
MODEL 6
REMARK VINA RESULT:      -6.5      3.395      5.809
REMARK  Name = 
REMARK  12 active torsions:
REMARK  status: ('A' for Active; 'I' for Inactive)
REMARK    1  A    between atoms: C_1  and  C_2
REMARK    2  A    between atoms: N_10  and  S_11
REMARK    3  A    between atoms: S_11  and  C_14
REMARK    4  A    between atoms: C_15  and  C_16
REMARK    5  A    between atoms: C_16  and  C_17
REMARK    6  A    between atoms: C_16  and  C_18
REMARK    7  A    between atoms: C_20  and  C_21
REMARK    8  A    between atoms: C_21  and  C_22
REMARK    9  A    between atoms: C_21  and  C_23
REMARK   10  A    between atoms: C_25  and  C_26
REMARK   11  A    between atoms: C_26  and  C_27
REMARK   12  A    between atoms: C_26  and  C_28
REMARK                            x       y       z     vdW  Elec       q    Type
REMARK                         _______ _______ _______ _____ _____    ______ ____
ROOT
ATOM      1  C   UNL     1      -0.660  12.023  20.005  0.00  0.00    +0.000 A 
ATOM      2  C   UNL     1      -0.205  11.147  18.955  0.00  0.00    +0.000 A 
ATOM      3  C   UNL     1      -1.181  10.593  18.089  0.00  0.00    +0.000 A 
ATOM      4  C   UNL     1      -2.540  10.881  18.171  0.00  0.00    +0.000 A 
ATOM      5  C   UNL     1      -2.958  11.763  19.165  0.00  0.00    +0.000 A 
ATOM      6  C   UNL     1      -2.062  12.362  20.093  0.00  0.00    +0.000 A 
ENDROOT
BRANCH   1   7
ATOM      7  S   UNL     1       0.477  12.514  21.358  0.00  0.00    +0.000 S 
ATOM      8  O   UNL     1       1.417  11.423  21.589  0.00  0.00    +0.000 OA
ATOM      9  O   UNL     1      -0.279  13.018  22.473  0.00  0.00    +0.000 OA
BRANCH   7  19
ATOM     10  C   UNL     1       1.382  18.076  17.190  0.00  0.00    +0.000 C 
ATOM     11  C   UNL     1       1.271  17.001  18.231  0.00  0.00    +0.000 A 
ATOM     12  C   UNL     1       0.035  16.431  18.554  0.00  0.00    +0.000 A 
ATOM     13  C   UNL     1      -0.074  15.358  19.455  0.00  0.00    +0.000 A 
ATOM     14  C   UNL     1       1.109  14.842  19.996  0.00  0.00    +0.000 A 
ATOM     15  C   UNL     1       2.343  15.464  19.769  0.00  0.00    +0.000 A 
ATOM     16  C   UNL     1       2.427  16.557  18.892  0.00  0.00    +0.000 A 
ATOM     17  N   UNL     1       3.350  14.866  20.484  0.00  0.00    +0.000 NA
ATOM     18  C   UNL     1       2.767  13.880  21.126  0.00  0.00    +0.000 A 
ATOM     19  N   UNL     1       1.445  13.783  20.806  0.00  0.00    +0.000 N 
ENDBRANCH   7  19
ENDBRANCH   1   7
BRANCH   2  20
ATOM     20  C   UNL     1       1.241  10.694  18.652  0.00  0.00    +0.000 C 
ATOM     21  C   UNL     1       1.294   9.449  17.753  0.00  0.00    +0.000 C 
ATOM     22  C   UNL     1       2.127  11.777  17.975  0.00  0.00    +0.000 C 
ENDBRANCH   2  20
BRANCH   4  23
ATOM     23  C   UNL     1      -3.497  10.220  17.192  0.00  0.00    +0.000 C 
ATOM     24  C   UNL     1      -4.718  11.095  16.909  0.00  0.00    +0.000 C 
ATOM     25  C   UNL     1      -2.812   9.807  15.887  0.00  0.00    +0.000 C 
ENDBRANCH   4  23
BRANCH   6  26
ATOM     26  C   UNL     1      -2.723  13.351  21.071  0.00  0.00    +0.000 C 
ATOM     27  C   UNL     1      -3.595  14.391  20.341  0.00  0.00    +0.000 C 
ATOM     28  C   UNL     1      -3.576  12.692  22.171  0.00  0.00    +0.000 C 
ENDBRANCH   6  26
TORSDOF 5
ENDMDL
MODEL 7
REMARK VINA RESULT:      -6.5      3.130      4.740
REMARK  Name = 
REMARK  12 active torsions:
REMARK  status: ('A' for Active; 'I' for Inactive)
REMARK    1  A    between atoms: C_1  and  C_2
REMARK    2  A    between atoms: N_10  and  S_11
REMARK    3  A    between atoms: S_11  and  C_14
REMARK    4  A    between atoms: C_15  and  C_16
REMARK    5  A    between atoms: C_16  and  C_17
REMARK    6  A    between atoms: C_16  and  C_18
REMARK    7  A    between atoms: C_20  and  C_21
REMARK    8  A    between atoms: C_21  and  C_22
REMARK    9  A    between atoms: C_21  and  C_23
REMARK   10  A    between atoms: C_25  and  C_26
REMARK   11  A    between atoms: C_26  and  C_27
REMARK   12  A    between atoms: C_26  and  C_28
REMARK                            x       y       z     vdW  Elec       q    Type
REMARK                         _______ _______ _______ _____ _____    ______ ____
ROOT
ATOM      1  C   UNL     1      -1.203  11.607  20.425  0.00  0.00    +0.000 A 
ATOM      2  C   UNL     1      -2.522  12.170  20.276  0.00  0.00    +0.000 A 
ATOM      3  C   UNL     1      -3.241  11.862  19.095  0.00  0.00    +0.000 A 
ATOM      4  C   UNL     1      -2.763  11.018  18.097  0.00  0.00    +0.000 A 
ATOM      5  C   UNL     1      -1.505  10.448  18.276  0.00  0.00    +0.000 A 
ATOM      6  C   UNL     1      -0.697  10.703  19.418  0.00  0.00    +0.000 A 
ENDROOT
BRANCH   1   7
ATOM      7  S   UNL     1      -0.084  12.210  21.747  0.00  0.00    +0.000 S 
ATOM      8  O   UNL     1       1.155  11.444  21.688  0.00  0.00    +0.000 OA
ATOM      9  O   UNL     1      -0.794  12.276  22.996  0.00  0.00    +0.000 OA
BRANCH   7  19
ATOM     10  C   UNL     1       3.486  16.651  17.663  0.00  0.00    +0.000 C 
ATOM     11  C   UNL     1       2.566  15.835  18.525  0.00  0.00    +0.000 A 
ATOM     12  C   UNL     1       2.224  14.523  18.180  0.00  0.00    +0.000 A 
ATOM     13  C   UNL     1       1.444  13.715  19.023  0.00  0.00    +0.000 A 
ATOM     14  C   UNL     1       1.048  14.251  20.254  0.00  0.00    +0.000 A 
ATOM     15  C   UNL     1       1.291  15.593  20.572  0.00  0.00    +0.000 A 
ATOM     16  C   UNL     1       2.043  16.396  19.700  0.00  0.00    +0.000 A 
ATOM     17  N   UNL     1       0.720  15.939  21.771  0.00  0.00    +0.000 NA
ATOM     18  C   UNL     1       0.153  14.837  22.205  0.00  0.00    +0.000 A 
ATOM     19  N   UNL     1       0.388  13.787  21.367  0.00  0.00    +0.000 N 
ENDBRANCH   7  19
ENDBRANCH   1   7
BRANCH   2  20
ATOM     20  C   UNL     1      -3.270  13.113  21.246  0.00  0.00    +0.000 C 
ATOM     21  C   UNL     1      -3.222  14.582  20.796  0.00  0.00    +0.000 C 
ATOM     22  C   UNL     1      -4.767  12.757  21.463  0.00  0.00    +0.000 C 
ENDBRANCH   2  20
BRANCH   4  23
ATOM     23  C   UNL     1      -3.621  10.766  16.867  0.00  0.00    +0.000 C 
ATOM     24  C   UNL     1      -4.825  11.706  16.808  0.00  0.00    +0.000 C 
ATOM     25  C   UNL     1      -2.818  10.832  15.566  0.00  0.00    +0.000 C 
ENDBRANCH   4  23
BRANCH   6  26
ATOM     26  C   UNL     1       0.633   9.927  19.446  0.00  0.00    +0.000 C 
ATOM     27  C   UNL     1       0.562   8.689  20.362  0.00  0.00    +0.000 C 
ATOM     28  C   UNL     1       1.142   9.477  18.064  0.00  0.00    +0.000 C 
ENDBRANCH   6  26
TORSDOF 5
ENDMDL
MODEL 8
REMARK VINA RESULT:      -6.5      5.870     10.672
REMARK  Name = 
REMARK  12 active torsions:
REMARK  status: ('A' for Active; 'I' for Inactive)
REMARK    1  A    between atoms: C_1  and  C_2
REMARK    2  A    between atoms: N_10  and  S_11
REMARK    3  A    between atoms: S_11  and  C_14
REMARK    4  A    between atoms: C_15  and  C_16
REMARK    5  A    between atoms: C_16  and  C_17
REMARK    6  A    between atoms: C_16  and  C_18
REMARK    7  A    between atoms: C_20  and  C_21
REMARK    8  A    between atoms: C_21  and  C_22
REMARK    9  A    between atoms: C_21  and  C_23
REMARK   10  A    between atoms: C_25  and  C_26
REMARK   11  A    between atoms: C_26  and  C_27
REMARK   12  A    between atoms: C_26  and  C_28
REMARK                            x       y       z     vdW  Elec       q    Type
REMARK                         _______ _______ _______ _____ _____    ______ ____
ROOT
ATOM      1  C   UNL     1       4.999   4.724  17.610  0.00  0.00    +0.000 A 
ATOM      2  C   UNL     1       6.131   5.517  17.200  0.00  0.00    +0.000 A 
ATOM      3  C   UNL     1       6.527   5.448  15.841  0.00  0.00    +0.000 A 
ATOM      4  C   UNL     1       5.862   4.693  14.880  0.00  0.00    +0.000 A 
ATOM      5  C   UNL     1       4.745   3.966  15.284  0.00  0.00    +0.000 A 
ATOM      6  C   UNL     1       4.272   3.957  16.624  0.00  0.00    +0.000 A 
ENDROOT
BRANCH   1   7
ATOM      7  S   UNL     1       4.626   4.497  19.391  0.00  0.00    +0.000 S 
ATOM      8  O   UNL     1       5.729   5.050  20.168  0.00  0.00    +0.000 OA
ATOM      9  O   UNL     1       4.225   3.138  19.636  0.00  0.00    +0.000 OA
BRANCH   7  19
ATOM     10  C   UNL     1       1.050  10.470  18.573  0.00  0.00    +0.000 C 
ATOM     11  C   UNL     1       1.633   9.097  18.739  0.00  0.00    +0.000 A 
ATOM     12  C   UNL     1       2.588   8.603  17.845  0.00  0.00    +0.000 A 
ATOM     13  C   UNL     1       3.214   7.360  18.040  0.00  0.00    +0.000 A 
ATOM     14  C   UNL     1       2.880   6.639  19.193  0.00  0.00    +0.000 A 
ATOM     15  C   UNL     1       1.853   7.065  20.043  0.00  0.00    +0.000 A 
ATOM     16  C   UNL     1       1.215   8.294  19.812  0.00  0.00    +0.000 A 
ATOM     17  N   UNL     1       1.614   6.156  21.043  0.00  0.00    +0.000 NA
ATOM     18  C   UNL     1       2.485   5.195  20.838  0.00  0.00    +0.000 A 
ATOM     19  N   UNL     1       3.309   5.477  19.789  0.00  0.00    +0.000 N 
ENDBRANCH   7  19
ENDBRANCH   1   7
BRANCH   2  20
ATOM     20  C   UNL     1       7.013   6.440  18.071  0.00  0.00    +0.000 C 
ATOM     21  C   UNL     1       8.193   5.693  18.714  0.00  0.00    +0.000 C 
ATOM     22  C   UNL     1       7.610   7.661  17.317  0.00  0.00    +0.000 C 
ENDBRANCH   2  20
BRANCH   4  23
ATOM     23  C   UNL     1       6.384   4.689  13.451  0.00  0.00    +0.000 C 
ATOM     24  C   UNL     1       7.849   5.115  13.378  0.00  0.00    +0.000 C 
ATOM     25  C   UNL     1       6.174   3.343  12.752  0.00  0.00    +0.000 C 
ENDBRANCH   4  23
BRANCH   6  26
ATOM     26  C   UNL     1       2.989   3.135  16.844  0.00  0.00    +0.000 C 
ATOM     27  C   UNL     1       3.240   1.897  17.729  0.00  0.00    +0.000 C 
ATOM     28  C   UNL     1       1.813   3.927  17.445  0.00  0.00    +0.000 C 
ENDBRANCH   6  26
TORSDOF 5
ENDMDL
MODEL 9
REMARK VINA RESULT:      -6.3      2.377      6.062
REMARK  Name = 
REMARK  12 active torsions:
REMARK  status: ('A' for Active; 'I' for Inactive)
REMARK    1  A    between atoms: C_1  and  C_2
REMARK    2  A    between atoms: N_10  and  S_11
REMARK    3  A    between atoms: S_11  and  C_14
REMARK    4  A    between atoms: C_15  and  C_16
REMARK    5  A    between atoms: C_16  and  C_17
REMARK    6  A    between atoms: C_16  and  C_18
REMARK    7  A    between atoms: C_20  and  C_21
REMARK    8  A    between atoms: C_21  and  C_22
REMARK    9  A    between atoms: C_21  and  C_23
REMARK   10  A    between atoms: C_25  and  C_26
REMARK   11  A    between atoms: C_26  and  C_27
REMARK   12  A    between atoms: C_26  and  C_28
REMARK                            x       y       z     vdW  Elec       q    Type
REMARK                         _______ _______ _______ _____ _____    ______ ____
ROOT
ATOM      1  C   UNL     1      -1.289  11.882  20.497  0.00  0.00    +0.000 A 
ATOM      2  C   UNL     1      -2.632  12.375  20.316  0.00  0.00    +0.000 A 
ATOM      3  C   UNL     1      -3.323  11.991  19.139  0.00  0.00    +0.000 A 
ATOM      4  C   UNL     1      -2.793  11.137  18.177  0.00  0.00    +0.000 A 
ATOM      5  C   UNL     1      -1.511  10.636  18.388  0.00  0.00    +0.000 A 
ATOM      6  C   UNL     1      -0.729  10.969  19.527  0.00  0.00    +0.000 A 
ENDROOT
BRANCH   1   7
ATOM      7  S   UNL     1      -0.216  12.584  21.807  0.00  0.00    +0.000 S 
ATOM      8  O   UNL     1       1.169  12.516  21.355  0.00  0.00    +0.000 OA
ATOM      9  O   UNL     1      -0.553  12.004  23.079  0.00  0.00    +0.000 OA
BRANCH   7  19
ATOM     10  C   UNL     1      -3.091  17.981  25.233  0.00  0.00    +0.000 C 
ATOM     11  C   UNL     1      -2.310  16.946  24.477  0.00  0.00    +0.000 A 
ATOM     12  C   UNL     1      -2.046  15.690  25.033  0.00  0.00    +0.000 A 
ATOM     13  C   UNL     1      -1.401  14.677  24.303  0.00  0.00    +0.000 A 
ATOM     14  C   UNL     1      -1.063  14.950  22.972  0.00  0.00    +0.000 A 
ATOM     15  C   UNL     1      -1.222  16.232  22.432  0.00  0.00    +0.000 A 
ATOM     16  C   UNL     1      -1.838  17.241  23.189  0.00  0.00    +0.000 A 
ATOM     17  N   UNL     1      -0.721  16.309  21.156  0.00  0.00    +0.000 NA
ATOM     18  C   UNL     1      -0.280  15.101  20.895  0.00  0.00    +0.000 A 
ATOM     19  N   UNL     1      -0.530  14.240  21.923  0.00  0.00    +0.000 N 
ENDBRANCH   7  19
ENDBRANCH   1   7
BRANCH   2  20
ATOM     20  C   UNL     1      -3.435  13.313  21.244  0.00  0.00    +0.000 C 
ATOM     21  C   UNL     1      -4.637  13.958  20.536  0.00  0.00    +0.000 C 
ATOM     22  C   UNL     1      -3.982  12.634  22.531  0.00  0.00    +0.000 C 
ENDBRANCH   2  20
BRANCH   4  23
ATOM     23  C   UNL     1      -3.624  10.801  16.948  0.00  0.00    +0.000 C 
ATOM     24  C   UNL     1      -4.854  11.701  16.827  0.00  0.00    +0.000 C 
ATOM     25  C   UNL     1      -2.803  10.829  15.657  0.00  0.00    +0.000 C 
ENDBRANCH   4  23
BRANCH   6  26
ATOM     26  C   UNL     1       0.636  10.260  19.595  0.00  0.00    +0.000 C 
ATOM     27  C   UNL     1       0.644   9.116  20.628  0.00  0.00    +0.000 C 
ATOM     28  C   UNL     1       1.136   9.700  18.250  0.00  0.00    +0.000 C 
ENDBRANCH   6  26
TORSDOF 5
ENDMDL
