MODEL 1
REMARK VINA RESULT:      -7.8      0.000      0.000
REMARK  Name = 
REMARK  16 active torsions:
REMARK  status: ('A' for Active; 'I' for Inactive)
REMARK    1  A    between atoms: C_3  and  C_4
REMARK    2  A    between atoms: C_8  and  C_9
REMARK    3  A    between atoms: C_8  and  C_10
REMARK    4  A    between atoms: C_10  and  C_11
REMARK    5  A    between atoms: C_11  and  C_12
REMARK    6  A    between atoms: C_12  and  C_13
REMARK    7  A    between atoms: C_14  and  C_15
REMARK    8  A    between atoms: C_15  and  C_16
REMARK    9  A    between atoms: C_17  and  O_18
REMARK   10  A    between atoms: C_22  and  N_23
REMARK   11  A    between atoms: N_23  and  CA_24
REMARK   12  A    between atoms: CA_24  and  C_25
REMARK   13  A    between atoms: CA_24  and  CB_28
REMARK   14  A    between atoms: C_25  and  OXT_27
REMARK   15  A    between atoms: CB_28  and  CG2_29
REMARK   16  A    between atoms: CB_28  and  OG1_30
REMARK                            x       y       z     vdW  Elec       q    Type
REMARK                         _______ _______ _______ _____ _____    ______ ____
ROOT
ATOM      1  C   UNK A   0       2.341   5.582  19.302  0.00  0.00    +0.000 C 
ATOM      2  C   UNK A   0       1.625   4.440  19.295  0.00  0.00    +0.000 C 
ATOM      3  C   UNK A   0       1.874   3.392  18.259  0.00  0.00    +0.000 C 
ATOM      4  O   UNK A   0       1.140   2.417  18.117  0.00  0.00    +0.000 OA
ATOM      5  C   UNK A   0       3.058   3.534  17.403  0.00  0.00    +0.000 C 
ATOM      6  C   UNK A   0       3.747   4.673  17.331  0.00  0.00    +0.000 C 
ATOM      7  C   UNK A   0       3.361   5.813  18.230  0.00  0.00    +0.000 C 
ATOM      8  O   UNK A   0       3.980   6.867  18.107  0.00  0.00    +0.000 OA
ENDROOT
BRANCH   2   9
ATOM      9  O   UNK A   0       0.648   4.127  20.225  0.00  0.00    +0.000 OA
ATOM     10  H   UNK A   0       0.456   4.872  20.813  0.00  0.00    +0.000 HD
ENDBRANCH   2   9
BRANCH   6  11
ATOM     11  N   THR A   1       4.776   4.909  16.427  0.00  0.00    +0.000 N 
ATOM     12  H   THR A   1       4.792   5.875  16.083  0.00  0.00    +0.000 HD
BRANCH  11  13
ATOM     13  CA  THR A   1       6.114   4.271  16.490  0.00  0.00    +0.000 C 
BRANCH  13  14
ATOM     14  C   THR A   1       7.011   4.984  17.518  0.00  0.00    +0.000 C 
ATOM     15  O   THR A   1       7.798   4.421  18.261  0.00  0.00    +0.000 OA
BRANCH  14  16
ATOM     16  OXT THR A   1       6.844   6.332  17.542  0.00  0.00    +0.000 OA
ATOM     17  HXT THR A   1       7.155   6.776  18.362  0.00  0.00    +0.000 HD
ENDBRANCH  14  16
ENDBRANCH  13  14
BRANCH  13  18
ATOM     18  CB  THR A   1       6.773   4.280  15.089  0.00  0.00    +0.000 C 
ATOM     19  CG2 THR A   1       5.795   4.072  13.934  0.00  0.00    +0.000 C 
BRANCH  18  20
ATOM     20  OG1 THR A   1       7.527   5.473  14.857  0.00  0.00    +0.000 OA
ATOM     21  HG1 THR A   1       7.946   5.397  13.975  0.00  0.00    +0.000 HD
ENDBRANCH  18  20
ENDBRANCH  13  18
ENDBRANCH  11  13
ENDBRANCH   6  11
BRANCH   1  22
ATOM     22  C   UNK A   0       2.229   6.678  20.332  0.00  0.00    +0.000 C 
BRANCH  22  25
ATOM     23  C   UNK A   0       1.066   8.953  20.403  0.00  0.00    +0.000 C 
ATOM     24  C   UNK A   0       0.870   8.939  21.892  0.00  0.00    +0.000 C 
ATOM     25  C   UNK A   0       1.657   7.939  19.739  0.00  0.00    +0.000 C 
BRANCH  23  26
ATOM     26  C   UNK A   0       0.539  10.153  19.638  0.00  0.00    +0.000 C 
BRANCH  26  27
ATOM     27  C   UNK A   0      -0.808  10.683  20.163  0.00  0.00    +0.000 C 
BRANCH  27  35
ATOM     28  C   UNK A   0      -0.006  13.624  18.221  0.00  0.00    +0.000 C 
ATOM     29  C   UNK A   0      -0.650  13.122  19.294  0.00  0.00    +0.000 C 
ATOM     30  C   UNK A   0      -0.690  13.973  20.563  0.00  0.00    +0.000 C 
ATOM     31  C   UNK A   0       0.204  13.464  21.691  0.00  0.00    +0.000 C 
ATOM     32  C   UNK A   0      -2.132  14.186  21.036  0.00  0.00    +0.000 C 
ATOM     33  C   UNK A   0      -2.926  12.888  21.129  0.00  0.00    +0.000 C 
ATOM     34  C   UNK A   0      -2.887  12.117  19.808  0.00  0.00    +0.000 C 
ATOM     35  C   UNK A   0      -1.455  11.804  19.283  0.00  0.00    +0.000 C 
ATOM     36  C   UNK A   0      -1.641  11.216  17.857  0.00  0.00    +0.000 C 
ENDBRANCH  27  35
ENDBRANCH  26  27
ENDBRANCH  23  26
ENDBRANCH  22  25
ENDBRANCH   1  22
TORSDOF 12
ENDMDL
MODEL 2
REMARK VINA RESULT:      -7.7      0.791      1.571
REMARK  Name = 
REMARK  16 active torsions:
REMARK  status: ('A' for Active; 'I' for Inactive)
REMARK    1  A    between atoms: C_3  and  C_4
REMARK    2  A    between atoms: C_8  and  C_9
REMARK    3  A    between atoms: C_8  and  C_10
REMARK    4  A    between atoms: C_10  and  C_11
REMARK    5  A    between atoms: C_11  and  C_12
REMARK    6  A    between atoms: C_12  and  C_13
REMARK    7  A    between atoms: C_14  and  C_15
REMARK    8  A    between atoms: C_15  and  C_16
REMARK    9  A    between atoms: C_17  and  O_18
REMARK   10  A    between atoms: C_22  and  N_23
REMARK   11  A    between atoms: N_23  and  CA_24
REMARK   12  A    between atoms: CA_24  and  C_25
REMARK   13  A    between atoms: CA_24  and  CB_28
REMARK   14  A    between atoms: C_25  and  OXT_27
REMARK   15  A    between atoms: CB_28  and  CG2_29
REMARK   16  A    between atoms: CB_28  and  OG1_30
REMARK                            x       y       z     vdW  Elec       q    Type
REMARK                         _______ _______ _______ _____ _____    ______ ____
ROOT
ATOM      1  C   UNK A   0       2.397   5.578  19.332  0.00  0.00    +0.000 C 
ATOM      2  C   UNK A   0       1.666   4.446  19.314  0.00  0.00    +0.000 C 
ATOM      3  C   UNK A   0       1.877   3.420  18.247  0.00  0.00    +0.000 C 
ATOM      4  O   UNK A   0       1.126   2.459  18.099  0.00  0.00    +0.000 OA
ATOM      5  C   UNK A   0       3.043   3.567  17.369  0.00  0.00    +0.000 C 
ATOM      6  C   UNK A   0       3.746   4.700  17.308  0.00  0.00    +0.000 C 
ATOM      7  C   UNK A   0       3.396   5.822  18.243  0.00  0.00    +0.000 C 
ATOM      8  O   UNK A   0       4.026   6.871  18.131  0.00  0.00    +0.000 OA
ENDROOT
BRANCH   2   9
ATOM      9  O   UNK A   0       0.705   4.124  20.259  0.00  0.00    +0.000 OA
ATOM     10  H   UNK A   0       1.010   4.302  21.160  0.00  0.00    +0.000 HD
ENDBRANCH   2   9
BRANCH   6  11
ATOM     11  N   THR A   1       4.757   4.944  16.386  0.00  0.00    +0.000 N 
ATOM     12  H   THR A   1       4.773   5.916  16.059  0.00  0.00    +0.000 HD
BRANCH  11  13
ATOM     13  CA  THR A   1       6.090   4.295  16.409  0.00  0.00    +0.000 C 
BRANCH  13  14
ATOM     14  C   THR A   1       7.054   5.059  17.335  0.00  0.00    +0.000 C 
ATOM     15  O   THR A   1       7.194   6.271  17.344  0.00  0.00    +0.000 OA
BRANCH  14  16
ATOM     16  OXT THR A   1       7.769   4.250  18.161  0.00  0.00    +0.000 OA
ATOM     17  HXT THR A   1       8.339   3.591  17.707  0.00  0.00    +0.000 HD
ENDBRANCH  14  16
ENDBRANCH  13  14
BRANCH  13  18
ATOM     18  CB  THR A   1       6.663   4.208  14.973  0.00  0.00    +0.000 C 
ATOM     19  CG2 THR A   1       5.603   4.074  13.882  0.00  0.00    +0.000 C 
BRANCH  18  20
ATOM     20  OG1 THR A   1       7.516   5.314  14.666  0.00  0.00    +0.000 OA
ATOM     21  HG1 THR A   1       7.660   5.323  13.698  0.00  0.00    +0.000 HD
ENDBRANCH  18  20
ENDBRANCH  13  18
ENDBRANCH  11  13
ENDBRANCH   6  11
BRANCH   1  22
ATOM     22  C   UNK A   0       2.323   6.650  20.390  0.00  0.00    +0.000 C 
BRANCH  22  25
ATOM     23  C   UNK A   0       0.984   8.798  20.747  0.00  0.00    +0.000 C 
ATOM     24  C   UNK A   0       1.386   8.950  22.187  0.00  0.00    +0.000 C 
ATOM     25  C   UNK A   0       1.401   7.769  19.982  0.00  0.00    +0.000 C 
BRANCH  23  26
ATOM     26  C   UNK A   0       0.045   9.839  20.168  0.00  0.00    +0.000 C 
BRANCH  26  27
ATOM     27  C   UNK A   0      -0.478  10.851  21.206  0.00  0.00    +0.000 C 
BRANCH  27  35
ATOM     28  C   UNK A   0      -0.158  14.262  22.357  0.00  0.00    +0.000 C 
ATOM     29  C   UNK A   0      -0.959  13.329  21.806  0.00  0.00    +0.000 C 
ATOM     30  C   UNK A   0      -2.437  13.337  22.196  0.00  0.00    +0.000 C 
ATOM     31  C   UNK A   0      -2.851  12.193  23.119  0.00  0.00    +0.000 C 
ATOM     32  C   UNK A   0      -3.334  13.415  20.955  0.00  0.00    +0.000 C 
ATOM     33  C   UNK A   0      -2.973  12.380  19.896  0.00  0.00    +0.000 C 
ATOM     34  C   UNK A   0      -1.494  12.466  19.514  0.00  0.00    +0.000 C 
ATOM     35  C   UNK A   0      -0.509  12.336  20.712  0.00  0.00    +0.000 C 
ATOM     36  C   UNK A   0       0.902  12.656  20.143  0.00  0.00    +0.000 C 
ENDBRANCH  27  35
ENDBRANCH  26  27
ENDBRANCH  23  26
ENDBRANCH  22  25
ENDBRANCH   1  22
TORSDOF 12
ENDMDL
MODEL 3
REMARK VINA RESULT:      -7.6      4.952     10.813
REMARK  Name = 
REMARK  16 active torsions:
REMARK  status: ('A' for Active; 'I' for Inactive)
REMARK    1  A    between atoms: C_3  and  C_4
REMARK    2  A    between atoms: C_8  and  C_9
REMARK    3  A    between atoms: C_8  and  C_10
REMARK    4  A    between atoms: C_10  and  C_11
REMARK    5  A    between atoms: C_11  and  C_12
REMARK    6  A    between atoms: C_12  and  C_13
REMARK    7  A    between atoms: C_14  and  C_15
REMARK    8  A    between atoms: C_15  and  C_16
REMARK    9  A    between atoms: C_17  and  O_18
REMARK   10  A    between atoms: C_22  and  N_23
REMARK   11  A    between atoms: N_23  and  CA_24
REMARK   12  A    between atoms: CA_24  and  C_25
REMARK   13  A    between atoms: CA_24  and  CB_28
REMARK   14  A    between atoms: C_25  and  OXT_27
REMARK   15  A    between atoms: CB_28  and  CG2_29
REMARK   16  A    between atoms: CB_28  and  OG1_30
REMARK                            x       y       z     vdW  Elec       q    Type
REMARK                         _______ _______ _______ _____ _____    ______ ____
ROOT
ATOM      1  C   UNK A   0       0.081  10.539  21.057  0.00  0.00    +0.000 C 
ATOM      2  C   UNK A   0      -0.452  10.892  19.870  0.00  0.00    +0.000 C 
ATOM      3  C   UNK A   0      -1.727  11.670  19.809  0.00  0.00    +0.000 C 
ATOM      4  O   UNK A   0      -2.328  11.869  18.757  0.00  0.00    +0.000 OA
ATOM      5  C   UNK A   0      -2.253  12.233  21.059  0.00  0.00    +0.000 C 
ATOM      6  C   UNK A   0      -1.799  11.852  22.254  0.00  0.00    +0.000 C 
ATOM      7  C   UNK A   0      -0.642  10.895  22.319  0.00  0.00    +0.000 C 
ATOM      8  O   UNK A   0      -0.277  10.522  23.432  0.00  0.00    +0.000 OA
ENDROOT
BRANCH   2   9
ATOM      9  O   UNK A   0       0.120  10.603  18.642  0.00  0.00    +0.000 OA
ATOM     10  H   UNK A   0       0.405   9.680  18.584  0.00  0.00    +0.000 HD
ENDBRANCH   2   9
BRANCH   6  11
ATOM     11  N   THR A   1      -2.364  12.235  23.464  0.00  0.00    +0.000 N 
ATOM     12  H   THR A   1      -1.796  11.966  24.274  0.00  0.00    +0.000 HD
BRANCH  11  13
ATOM     13  CA  THR A   1      -3.152  13.475  23.669  0.00  0.00    +0.000 C 
BRANCH  13  14
ATOM     14  C   THR A   1      -2.362  14.491  24.514  0.00  0.00    +0.000 C 
ATOM     15  O   THR A   1      -2.855  15.236  25.344  0.00  0.00    +0.000 OA
BRANCH  14  16
ATOM     16  OXT THR A   1      -1.030  14.500  24.246  0.00  0.00    +0.000 OA
ATOM     17  HXT THR A   1      -0.705  13.733  23.725  0.00  0.00    +0.000 HD
ENDBRANCH  14  16
ENDBRANCH  13  14
BRANCH  13  18
ATOM     18  CB  THR A   1      -4.506  13.139  24.340  0.00  0.00    +0.000 C 
ATOM     19  CG2 THR A   1      -5.729  13.609  23.556  0.00  0.00    +0.000 C 
BRANCH  18  20
ATOM     20  OG1 THR A   1      -4.636  11.743  24.620  0.00  0.00    +0.000 OA
ATOM     21  HG1 THR A   1      -3.750  11.401  24.861  0.00  0.00    +0.000 HD
ENDBRANCH  18  20
ENDBRANCH  13  18
ENDBRANCH  11  13
ENDBRANCH   6  11
BRANCH   1  22
ATOM     22  C   UNK A   0       1.391   9.816  21.247  0.00  0.00    +0.000 C 
BRANCH  22  25
ATOM     23  C   UNK A   0       1.576   7.408  20.409  0.00  0.00    +0.000 C 
ATOM     24  C   UNK A   0       2.256   7.783  19.123  0.00  0.00    +0.000 C 
ATOM     25  C   UNK A   0       1.194   8.324  21.322  0.00  0.00    +0.000 C 
BRANCH  23  26
ATOM     26  C   UNK A   0       1.291   5.937  20.648  0.00  0.00    +0.000 C 
BRANCH  26  27
ATOM     27  C   UNK A   0       2.556   5.063  20.729  0.00  0.00    +0.000 C 
BRANCH  27  35
ATOM     28  C   UNK A   0       4.362   2.006  20.053  0.00  0.00    +0.000 C 
ATOM     29  C   UNK A   0       3.614   3.008  19.550  0.00  0.00    +0.000 C 
ATOM     30  C   UNK A   0       3.952   3.516  18.148  0.00  0.00    +0.000 C 
ATOM     31  C   UNK A   0       4.621   4.888  18.120  0.00  0.00    +0.000 C 
ATOM     32  C   UNK A   0       2.723   3.466  17.234  0.00  0.00    +0.000 C 
ATOM     33  C   UNK A   0       1.493   4.119  17.855  0.00  0.00    +0.000 C 
ATOM     34  C   UNK A   0       1.182   3.524  19.230  0.00  0.00    +0.000 C 
ATOM     35  C   UNK A   0       2.362   3.587  20.244  0.00  0.00    +0.000 C 
ATOM     36  C   UNK A   0       1.911   2.758  21.478  0.00  0.00    +0.000 C 
ENDBRANCH  27  35
ENDBRANCH  26  27
ENDBRANCH  23  26
ENDBRANCH  22  25
ENDBRANCH   1  22
TORSDOF 12
ENDMDL
MODEL 4
REMARK VINA RESULT:      -7.6      1.443      2.122
REMARK  Name = 
REMARK  16 active torsions:
REMARK  status: ('A' for Active; 'I' for Inactive)
REMARK    1  A    between atoms: C_3  and  C_4
REMARK    2  A    between atoms: C_8  and  C_9
REMARK    3  A    between atoms: C_8  and  C_10
REMARK    4  A    between atoms: C_10  and  C_11
REMARK    5  A    between atoms: C_11  and  C_12
REMARK    6  A    between atoms: C_12  and  C_13
REMARK    7  A    between atoms: C_14  and  C_15
REMARK    8  A    between atoms: C_15  and  C_16
REMARK    9  A    between atoms: C_17  and  O_18
REMARK   10  A    between atoms: C_22  and  N_23
REMARK   11  A    between atoms: N_23  and  CA_24
REMARK   12  A    between atoms: CA_24  and  C_25
REMARK   13  A    between atoms: CA_24  and  CB_28
REMARK   14  A    between atoms: C_25  and  OXT_27
REMARK   15  A    between atoms: CB_28  and  CG2_29
REMARK   16  A    between atoms: CB_28  and  OG1_30
REMARK                            x       y       z     vdW  Elec       q    Type
REMARK                         _______ _______ _______ _____ _____    ______ ____
ROOT
ATOM      1  C   UNK A   0       2.406   4.897  20.059  0.00  0.00    +0.000 C 
ATOM      2  C   UNK A   0       1.627   3.847  19.732  0.00  0.00    +0.000 C 
ATOM      3  C   UNK A   0       2.171   2.720  18.915  0.00  0.00    +0.000 C 
ATOM      4  O   UNK A   0       1.457   1.831  18.459  0.00  0.00    +0.000 OA
ATOM      5  C   UNK A   0       3.619   2.675  18.679  0.00  0.00    +0.000 C 
ATOM      6  C   UNK A   0       4.410   3.721  18.923  0.00  0.00    +0.000 C 
ATOM      7  C   UNK A   0       3.816   4.947  19.557  0.00  0.00    +0.000 C 
ATOM      8  O   UNK A   0       4.556   5.913  19.724  0.00  0.00    +0.000 OA
ENDROOT
BRANCH   2   9
ATOM      9  O   UNK A   0       0.307   3.703  20.127  0.00  0.00    +0.000 OA
ATOM     10  H   UNK A   0      -0.282   3.553  19.374  0.00  0.00    +0.000 HD
ENDBRANCH   2   9
BRANCH   6  11
ATOM     11  N   THR A   1       5.753   3.784  18.574  0.00  0.00    +0.000 N 
ATOM     12  H   THR A   1       6.174   2.859  18.436  0.00  0.00    +0.000 HD
BRANCH  11  13
ATOM     13  CA  THR A   1       6.356   4.849  17.735  0.00  0.00    +0.000 C 
BRANCH  13  14
ATOM     14  C   THR A   1       6.811   4.283  16.378  0.00  0.00    +0.000 C 
ATOM     15  O   THR A   1       7.783   4.673  15.753  0.00  0.00    +0.000 OA
BRANCH  14  16
ATOM     16  OXT THR A   1       6.012   3.288  15.910  0.00  0.00    +0.000 OA
ATOM     17  HXT THR A   1       5.512   3.506  15.092  0.00  0.00    +0.000 HD
ENDBRANCH  14  16
ENDBRANCH  13  14
BRANCH  13  18
ATOM     18  CB  THR A   1       7.544   5.504  18.481  0.00  0.00    +0.000 C 
ATOM     19  CG2 THR A   1       7.752   6.981  18.155  0.00  0.00    +0.000 C 
BRANCH  18  20
ATOM     20  OG1 THR A   1       7.442   5.346  19.899  0.00  0.00    +0.000 OA
ATOM     21  HG1 THR A   1       8.009   6.025  20.319  0.00  0.00    +0.000 HD
ENDBRANCH  18  20
ENDBRANCH  13  18
ENDBRANCH  11  13
ENDBRANCH   6  11
BRANCH   1  22
ATOM     22  C   UNK A   0       1.992   6.055  20.932  0.00  0.00    +0.000 C 
BRANCH  22  25
ATOM     23  C   UNK A   0       1.053   8.383  20.450  0.00  0.00    +0.000 C 
ATOM     24  C   UNK A   0       0.223   8.437  21.701  0.00  0.00    +0.000 C 
ATOM     25  C   UNK A   0       1.814   7.317  20.129  0.00  0.00    +0.000 C 
BRANCH  23  26
ATOM     26  C   UNK A   0       0.987   9.575  19.514  0.00  0.00    +0.000 C 
BRANCH  26  27
ATOM     27  C   UNK A   0       0.933  10.933  20.239  0.00  0.00    +0.000 C 
BRANCH  27  35
ATOM     28  C   UNK A   0      -0.339  13.810  18.458  0.00  0.00    +0.000 C 
ATOM     29  C   UNK A   0      -0.098  13.242  19.657  0.00  0.00    +0.000 C 
ATOM     30  C   UNK A   0       0.357  14.151  20.798  0.00  0.00    +0.000 C 
ATOM     31  C   UNK A   0       1.830  14.002  21.173  0.00  0.00    +0.000 C 
ATOM     32  C   UNK A   0      -0.556  14.000  22.019  0.00  0.00    +0.000 C 
ATOM     33  C   UNK A   0      -0.769  12.546  22.426  0.00  0.00    +0.000 C 
ATOM     34  C   UNK A   0      -1.276  11.708  21.251  0.00  0.00    +0.000 C 
ATOM     35  C   UNK A   0      -0.373  11.757  19.984  0.00  0.00    +0.000 C 
ATOM     36  C   UNK A   0      -1.164  11.024  18.865  0.00  0.00    +0.000 C 
ENDBRANCH  27  35
ENDBRANCH  26  27
ENDBRANCH  23  26
ENDBRANCH  22  25
ENDBRANCH   1  22
TORSDOF 12
ENDMDL
MODEL 5
REMARK VINA RESULT:      -7.6      1.027      1.867
REMARK  Name = 
REMARK  16 active torsions:
REMARK  status: ('A' for Active; 'I' for Inactive)
REMARK    1  A    between atoms: C_3  and  C_4
REMARK    2  A    between atoms: C_8  and  C_9
REMARK    3  A    between atoms: C_8  and  C_10
REMARK    4  A    between atoms: C_10  and  C_11
REMARK    5  A    between atoms: C_11  and  C_12
REMARK    6  A    between atoms: C_12  and  C_13
REMARK    7  A    between atoms: C_14  and  C_15
REMARK    8  A    between atoms: C_15  and  C_16
REMARK    9  A    between atoms: C_17  and  O_18
REMARK   10  A    between atoms: C_22  and  N_23
REMARK   11  A    between atoms: N_23  and  CA_24
REMARK   12  A    between atoms: CA_24  and  C_25
REMARK   13  A    between atoms: CA_24  and  CB_28
REMARK   14  A    between atoms: C_25  and  OXT_27
REMARK   15  A    between atoms: CB_28  and  CG2_29
REMARK   16  A    between atoms: CB_28  and  OG1_30
REMARK                            x       y       z     vdW  Elec       q    Type
REMARK                         _______ _______ _______ _____ _____    ______ ____
ROOT
ATOM      1  C   UNK A   0       2.214   5.354  19.400  0.00  0.00    +0.000 C 
ATOM      2  C   UNK A   0       1.486   4.221  19.352  0.00  0.00    +0.000 C 
ATOM      3  C   UNK A   0       1.695   3.227  18.255  0.00  0.00    +0.000 C 
ATOM      4  O   UNK A   0       0.947   2.268  18.083  0.00  0.00    +0.000 OA
ATOM      5  C   UNK A   0       2.857   3.403  17.376  0.00  0.00    +0.000 C 
ATOM      6  C   UNK A   0       3.556   4.539  17.345  0.00  0.00    +0.000 C 
ATOM      7  C   UNK A   0       3.207   5.632  18.314  0.00  0.00    +0.000 C 
ATOM      8  O   UNK A   0       3.834   6.686  18.229  0.00  0.00    +0.000 OA
ENDROOT
BRANCH   2   9
ATOM      9  O   UNK A   0       0.531   3.868  20.291  0.00  0.00    +0.000 OA
ATOM     10  H   UNK A   0       0.901   3.310  20.990  0.00  0.00    +0.000 HD
ENDBRANCH   2   9
BRANCH   6  11
ATOM     11  N   THR A   1       4.562   4.812  16.426  0.00  0.00    +0.000 N 
ATOM     12  H   THR A   1       4.637   5.810  16.201  0.00  0.00    +0.000 HD
BRANCH  11  13
ATOM     13  CA  THR A   1       5.850   4.080  16.345  0.00  0.00    +0.000 C 
BRANCH  13  14
ATOM     14  C   THR A   1       6.791   4.500  17.488  0.00  0.00    +0.000 C 
ATOM     15  O   THR A   1       7.767   5.221  17.355  0.00  0.00    +0.000 OA
BRANCH  14  16
ATOM     16  OXT THR A   1       6.444   3.981  18.695  0.00  0.00    +0.000 OA
ATOM     17  HXT THR A   1       5.477   3.926  18.862  0.00  0.00    +0.000 HD
ENDBRANCH  14  16
ENDBRANCH  13  14
BRANCH  13  18
ATOM     18  CB  THR A   1       6.515   4.326  14.969  0.00  0.00    +0.000 C 
ATOM     19  CG2 THR A   1       5.662   3.904  13.775  0.00  0.00    +0.000 C 
BRANCH  18  20
ATOM     20  OG1 THR A   1       6.915   5.689  14.801  0.00  0.00    +0.000 OA
ATOM     21  HG1 THR A   1       6.900   5.891  13.843  0.00  0.00    +0.000 HD
ENDBRANCH  18  20
ENDBRANCH  13  18
ENDBRANCH  11  13
ENDBRANCH   6  11
BRANCH   1  22
ATOM     22  C   UNK A   0       2.142   6.394  20.489  0.00  0.00    +0.000 C 
BRANCH  22  25
ATOM     23  C   UNK A   0       1.100   8.727  20.560  0.00  0.00    +0.000 C 
ATOM     24  C   UNK A   0       0.543   8.566  21.946  0.00  0.00    +0.000 C 
ATOM     25  C   UNK A   0       1.790   7.751  19.937  0.00  0.00    +0.000 C 
BRANCH  23  26
ATOM     26  C   UNK A   0       0.832  10.039  19.846  0.00  0.00    +0.000 C 
BRANCH  26  27
ATOM     27  C   UNK A   0       1.046  11.283  20.728  0.00  0.00    +0.000 C 
BRANCH  27  35
ATOM     28  C   UNK A   0      -0.956  12.812  18.135  0.00  0.00    +0.000 C 
ATOM     29  C   UNK A   0       0.064  12.956  19.005  0.00  0.00    +0.000 C 
ATOM     30  C   UNK A   0       1.271  13.782  18.558  0.00  0.00    +0.000 C 
ATOM     31  C   UNK A   0       2.519  12.957  18.254  0.00  0.00    +0.000 C 
ATOM     32  C   UNK A   0       1.565  14.908  19.554  0.00  0.00    +0.000 C 
ATOM     33  C   UNK A   0       1.641  14.422  20.997  0.00  0.00    +0.000 C 
ATOM     34  C   UNK A   0       0.378  13.653  21.392  0.00  0.00    +0.000 C 
ATOM     35  C   UNK A   0       0.037  12.451  20.464  0.00  0.00    +0.000 C 
ATOM     36  C   UNK A   0      -1.365  11.951  20.909  0.00  0.00    +0.000 C 
ENDBRANCH  27  35
ENDBRANCH  26  27
ENDBRANCH  23  26
ENDBRANCH  22  25
ENDBRANCH   1  22
TORSDOF 12
ENDMDL
MODEL 6
REMARK VINA RESULT:      -7.6      1.184      1.921
REMARK  Name = 
REMARK  16 active torsions:
REMARK  status: ('A' for Active; 'I' for Inactive)
REMARK    1  A    between atoms: C_3  and  C_4
REMARK    2  A    between atoms: C_8  and  C_9
REMARK    3  A    between atoms: C_8  and  C_10
REMARK    4  A    between atoms: C_10  and  C_11
REMARK    5  A    between atoms: C_11  and  C_12
REMARK    6  A    between atoms: C_12  and  C_13
REMARK    7  A    between atoms: C_14  and  C_15
REMARK    8  A    between atoms: C_15  and  C_16
REMARK    9  A    between atoms: C_17  and  O_18
REMARK   10  A    between atoms: C_22  and  N_23
REMARK   11  A    between atoms: N_23  and  CA_24
REMARK   12  A    between atoms: CA_24  and  C_25
REMARK   13  A    between atoms: CA_24  and  CB_28
REMARK   14  A    between atoms: C_25  and  OXT_27
REMARK   15  A    between atoms: CB_28  and  CG2_29
REMARK   16  A    between atoms: CB_28  and  OG1_30
REMARK                            x       y       z     vdW  Elec       q    Type
REMARK                         _______ _______ _______ _____ _____    ______ ____
ROOT
ATOM      1  C   UNK A   0       2.184   5.633  19.702  0.00  0.00    +0.000 C 
ATOM      2  C   UNK A   0       1.491   4.490  19.532  0.00  0.00    +0.000 C 
ATOM      3  C   UNK A   0       1.745   3.614  18.347  0.00  0.00    +0.000 C 
ATOM      4  O   UNK A   0       1.027   2.657  18.069  0.00  0.00    +0.000 OA
ATOM      5  C   UNK A   0       2.914   3.907  17.510  0.00  0.00    +0.000 C 
ATOM      6  C   UNK A   0       3.580   5.059  17.602  0.00  0.00    +0.000 C 
ATOM      7  C   UNK A   0       3.186   6.043  18.666  0.00  0.00    +0.000 C 
ATOM      8  O   UNK A   0       3.783   7.117  18.696  0.00  0.00    +0.000 OA
ENDROOT
BRANCH   2   9
ATOM      9  O   UNK A   0       0.532   4.021  20.415  0.00  0.00    +0.000 OA
ATOM     10  H   UNK A   0      -0.364   4.131  20.068  0.00  0.00    +0.000 HD
ENDBRANCH   2   9
BRANCH   6  11
ATOM     11  N   THR A   1       4.592   5.449  16.732  0.00  0.00    +0.000 N 
ATOM     12  H   THR A   1       4.437   6.380  16.331  0.00  0.00    +0.000 HD
BRANCH  11  13
ATOM     13  CA  THR A   1       6.023   5.095  16.894  0.00  0.00    +0.000 C 
BRANCH  13  14
ATOM     14  C   THR A   1       6.834   6.310  17.381  0.00  0.00    +0.000 C 
ATOM     15  O   THR A   1       6.819   7.411  16.857  0.00  0.00    +0.000 OA
BRANCH  14  16
ATOM     16  OXT THR A   1       7.601   6.048  18.472  0.00  0.00    +0.000 OA
ATOM     17  HXT THR A   1       8.305   6.709  18.655  0.00  0.00    +0.000 HD
ENDBRANCH  14  16
ENDBRANCH  13  14
BRANCH  13  18
ATOM     18  CB  THR A   1       6.592   4.557  15.558  0.00  0.00    +0.000 C 
ATOM     19  CG2 THR A   1       5.547   4.377  14.459  0.00  0.00    +0.000 C 
BRANCH  18  20
ATOM     20  OG1 THR A   1       7.660   5.368  15.063  0.00  0.00    +0.000 OA
ATOM     21  HG1 THR A   1       7.265   6.128  14.588  0.00  0.00    +0.000 HD
ENDBRANCH  18  20
ENDBRANCH  13  18
ENDBRANCH  11  13
ENDBRANCH   6  11
BRANCH   1  22
ATOM     22  C   UNK A   0       2.066   6.559  20.886  0.00  0.00    +0.000 C 
BRANCH  22  25
ATOM     23  C   UNK A   0       1.141   8.904  21.308  0.00  0.00    +0.000 C 
ATOM     24  C   UNK A   0       1.697   9.002  22.701  0.00  0.00    +0.000 C 
ATOM     25  C   UNK A   0       1.307   7.812  20.535  0.00  0.00    +0.000 C 
BRANCH  23  26
ATOM     26  C   UNK A   0       0.336  10.082  20.791  0.00  0.00    +0.000 C 
BRANCH  26  27
ATOM     27  C   UNK A   0      -0.733   9.697  19.752  0.00  0.00    +0.000 C 
BRANCH  27  35
ATOM     28  C   UNK A   0      -0.116  12.945  18.290  0.00  0.00    +0.000 C 
ATOM     29  C   UNK A   0      -0.988  11.930  18.455  0.00  0.00    +0.000 C 
ATOM     30  C   UNK A   0      -2.469  12.278  18.601  0.00  0.00    +0.000 C 
ATOM     31  C   UNK A   0      -3.020  12.104  20.014  0.00  0.00    +0.000 C 
ATOM     32  C   UNK A   0      -3.315  11.528  17.567  0.00  0.00    +0.000 C 
ATOM     33  C   UNK A   0      -3.025  10.031  17.535  0.00  0.00    +0.000 C 
ATOM     34  C   UNK A   0      -1.535   9.757  17.331  0.00  0.00    +0.000 C 
ATOM     35  C   UNK A   0      -0.603  10.435  18.378  0.00  0.00    +0.000 C 
ATOM     36  C   UNK A   0       0.848  10.206  17.872  0.00  0.00    +0.000 C 
ENDBRANCH  27  35
ENDBRANCH  26  27
ENDBRANCH  23  26
ENDBRANCH  22  25
ENDBRANCH   1  22
TORSDOF 12
ENDMDL
MODEL 7
REMARK VINA RESULT:      -7.6      6.028      8.187
REMARK  Name = 
REMARK  16 active torsions:
REMARK  status: ('A' for Active; 'I' for Inactive)
REMARK    1  A    between atoms: C_3  and  C_4
REMARK    2  A    between atoms: C_8  and  C_9
REMARK    3  A    between atoms: C_8  and  C_10
REMARK    4  A    between atoms: C_10  and  C_11
REMARK    5  A    between atoms: C_11  and  C_12
REMARK    6  A    between atoms: C_12  and  C_13
REMARK    7  A    between atoms: C_14  and  C_15
REMARK    8  A    between atoms: C_15  and  C_16
REMARK    9  A    between atoms: C_17  and  O_18
REMARK   10  A    between atoms: C_22  and  N_23
REMARK   11  A    between atoms: N_23  and  CA_24
REMARK   12  A    between atoms: CA_24  and  C_25
REMARK   13  A    between atoms: CA_24  and  CB_28
REMARK   14  A    between atoms: C_25  and  OXT_27
REMARK   15  A    between atoms: CB_28  and  CG2_29
REMARK   16  A    between atoms: CB_28  and  OG1_30
REMARK                            x       y       z     vdW  Elec       q    Type
REMARK                         _______ _______ _______ _____ _____    ______ ____
ROOT
ATOM      1  C   UNK A   0       6.923   6.153  17.564  0.00  0.00    +0.000 C 
ATOM      2  C   UNK A   0       7.027   5.922  16.241  0.00  0.00    +0.000 C 
ATOM      3  C   UNK A   0       6.009   5.088  15.531  0.00  0.00    +0.000 C 
ATOM      4  O   UNK A   0       6.154   4.719  14.368  0.00  0.00    +0.000 OA
ATOM      5  C   UNK A   0       4.786   4.726  16.256  0.00  0.00    +0.000 C 
ATOM      6  C   UNK A   0       4.675   4.874  17.577  0.00  0.00    +0.000 C 
ATOM      7  C   UNK A   0       5.798   5.527  18.331  0.00  0.00    +0.000 C 
ATOM      8  O   UNK A   0       5.692   5.604  19.553  0.00  0.00    +0.000 OA
ENDROOT
BRANCH   2   9
ATOM      9  O   UNK A   0       8.031   6.436  15.437  0.00  0.00    +0.000 OA
ATOM     10  H   UNK A   0       8.039   6.024  14.561  0.00  0.00    +0.000 HD
ENDBRANCH   2   9
BRANCH   6  11
ATOM     11  N   THR A   1       3.604   4.406  18.329  0.00  0.00    +0.000 N 
ATOM     12  H   THR A   1       2.881   5.117  18.480  0.00  0.00    +0.000 HD
BRANCH  11  13
ATOM     13  CA  THR A   1       3.080   3.019  18.275  0.00  0.00    +0.000 C 
BRANCH  13  14
ATOM     14  C   THR A   1       1.737   2.913  19.020  0.00  0.00    +0.000 C 
ATOM     15  O   THR A   1       1.284   3.771  19.760  0.00  0.00    +0.000 OA
BRANCH  14  16
ATOM     16  OXT THR A   1       1.078   1.748  18.788  0.00  0.00    +0.000 OA
ATOM     17  HXT THR A   1       1.046   1.129  19.550  0.00  0.00    +0.000 HD
ENDBRANCH  14  16
ENDBRANCH  13  14
BRANCH  13  18
ATOM     18  CB  THR A   1       4.117   2.036  18.873  0.00  0.00    +0.000 C 
ATOM     19  CG2 THR A   1       4.282   2.144  20.388  0.00  0.00    +0.000 C 
BRANCH  18  20
ATOM     20  OG1 THR A   1       3.833   0.678  18.526  0.00  0.00    +0.000 OA
ATOM     21  HG1 THR A   1       3.041   0.399  19.029  0.00  0.00    +0.000 HD
ENDBRANCH  18  20
ENDBRANCH  13  18
ENDBRANCH  11  13
ENDBRANCH   6  11
BRANCH   1  22
ATOM     22  C   UNK A   0       7.844   7.030  18.375  0.00  0.00    +0.000 C 
BRANCH  22  25
ATOM     23  C   UNK A   0       8.553   9.485  18.329  0.00  0.00    +0.000 C 
ATOM     24  C   UNK A   0       9.140   9.465  19.712  0.00  0.00    +0.000 C 
ATOM     25  C   UNK A   0       7.977   8.402  17.768  0.00  0.00    +0.000 C 
BRANCH  23  26
ATOM     26  C   UNK A   0       8.594  10.799  17.570  0.00  0.00    +0.000 C 
BRANCH  26  27
ATOM     27  C   UNK A   0       8.660  12.041  18.479  0.00  0.00    +0.000 C 
BRANCH  27  35
ATOM     28  C   UNK A   0      11.994  11.890  19.868  0.00  0.00    +0.000 C 
ATOM     29  C   UNK A   0      10.837  12.578  19.784  0.00  0.00    +0.000 C 
ATOM     30  C   UNK A   0      10.350  13.310  21.034  0.00  0.00    +0.000 C 
ATOM     31  C   UNK A   0       9.147  12.663  21.715  0.00  0.00    +0.000 C 
ATOM     32  C   UNK A   0      10.105  14.794  20.742  0.00  0.00    +0.000 C 
ATOM     33  C   UNK A   0       9.239  15.021  19.508  0.00  0.00    +0.000 C 
ATOM     34  C   UNK A   0       9.815  14.306  18.284  0.00  0.00    +0.000 C 
ATOM     35  C   UNK A   0      10.041  12.778  18.476  0.00  0.00    +0.000 C 
ATOM     36  C   UNK A   0      10.812  12.298  17.215  0.00  0.00    +0.000 C 
ENDBRANCH  27  35
ENDBRANCH  26  27
ENDBRANCH  23  26
ENDBRANCH  22  25
ENDBRANCH   1  22
TORSDOF 12
ENDMDL
MODEL 8
REMARK VINA RESULT:      -7.6      1.436      2.331
REMARK  Name = 
REMARK  16 active torsions:
REMARK  status: ('A' for Active; 'I' for Inactive)
REMARK    1  A    between atoms: C_3  and  C_4
REMARK    2  A    between atoms: C_8  and  C_9
REMARK    3  A    between atoms: C_8  and  C_10
REMARK    4  A    between atoms: C_10  and  C_11
REMARK    5  A    between atoms: C_11  and  C_12
REMARK    6  A    between atoms: C_12  and  C_13
REMARK    7  A    between atoms: C_14  and  C_15
REMARK    8  A    between atoms: C_15  and  C_16
REMARK    9  A    between atoms: C_17  and  O_18
REMARK   10  A    between atoms: C_22  and  N_23
REMARK   11  A    between atoms: N_23  and  CA_24
REMARK   12  A    between atoms: CA_24  and  C_25
REMARK   13  A    between atoms: CA_24  and  CB_28
REMARK   14  A    between atoms: C_25  and  OXT_27
REMARK   15  A    between atoms: CB_28  and  CG2_29
REMARK   16  A    between atoms: CB_28  and  OG1_30
REMARK                            x       y       z     vdW  Elec       q    Type
REMARK                         _______ _______ _______ _____ _____    ______ ____
ROOT
ATOM      1  C   UNK A   0       2.311   4.848  20.033  0.00  0.00    +0.000 C 
ATOM      2  C   UNK A   0       1.565   3.779  19.694  0.00  0.00    +0.000 C 
ATOM      3  C   UNK A   0       2.152   2.665  18.887  0.00  0.00    +0.000 C 
ATOM      4  O   UNK A   0       1.469   1.758  18.421  0.00  0.00    +0.000 OA
ATOM      5  C   UNK A   0       3.604   2.658  18.674  0.00  0.00    +0.000 C 
ATOM      6  C   UNK A   0       4.363   3.725  18.931  0.00  0.00    +0.000 C 
ATOM      7  C   UNK A   0       3.727   4.935  19.553  0.00  0.00    +0.000 C 
ATOM      8  O   UNK A   0       4.439   5.921  19.732  0.00  0.00    +0.000 OA
ENDROOT
BRANCH   2   9
ATOM      9  O   UNK A   0       0.243   3.600  20.068  0.00  0.00    +0.000 OA
ATOM     10  H   UNK A   0       0.153   2.951  20.779  0.00  0.00    +0.000 HD
ENDBRANCH   2   9
BRANCH   6  11
ATOM     11  N   THR A   1       5.710   3.823  18.604  0.00  0.00    +0.000 N 
ATOM     12  H   THR A   1       6.157   2.909  18.475  0.00  0.00    +0.000 HD
BRANCH  11  13
ATOM     13  CA  THR A   1       6.298   4.902  17.773  0.00  0.00    +0.000 C 
BRANCH  13  14
ATOM     14  C   THR A   1       6.726   4.360  16.397  0.00  0.00    +0.000 C 
ATOM     15  O   THR A   1       7.583   4.862  15.689  0.00  0.00    +0.000 OA
BRANCH  14  16
ATOM     16  OXT THR A   1       6.044   3.248  16.015  0.00  0.00    +0.000 OA
ATOM     17  HXT THR A   1       5.621   3.303  15.130  0.00  0.00    +0.000 HD
ENDBRANCH  14  16
ENDBRANCH  13  14
BRANCH  13  18
ATOM     18  CB  THR A   1       7.500   5.543  18.508  0.00  0.00    +0.000 C 
ATOM     19  CG2 THR A   1       7.744   7.008  18.153  0.00  0.00    +0.000 C 
BRANCH  18  20
ATOM     20  OG1 THR A   1       7.394   5.414  19.928  0.00  0.00    +0.000 OA
ATOM     21  HG1 THR A   1       6.972   6.228  20.273  0.00  0.00    +0.000 HD
ENDBRANCH  18  20
ENDBRANCH  13  18
ENDBRANCH  11  13
ENDBRANCH   6  11
BRANCH   1  22
ATOM     22  C   UNK A   0       1.852   5.996  20.897  0.00  0.00    +0.000 C 
BRANCH  22  25
ATOM     23  C   UNK A   0       1.105   8.393  20.422  0.00  0.00    +0.000 C 
ATOM     24  C   UNK A   0       0.171   8.462  21.597  0.00  0.00    +0.000 C 
ATOM     25  C   UNK A   0       1.824   7.291  20.129  0.00  0.00    +0.000 C 
BRANCH  23  26
ATOM     26  C   UNK A   0       1.196   9.616  19.528  0.00  0.00    +0.000 C 
BRANCH  26  27
ATOM     27  C   UNK A   0       1.097  10.952  20.289  0.00  0.00    +0.000 C 
BRANCH  27  35
ATOM     28  C   UNK A   0       0.401  14.496  20.438  0.00  0.00    +0.000 C 
ATOM     29  C   UNK A   0      -0.104  13.251  20.323  0.00  0.00    +0.000 C 
ATOM     30  C   UNK A   0      -1.445  12.960  20.998  0.00  0.00    +0.000 C 
ATOM     31  C   UNK A   0      -1.344  12.089  22.248  0.00  0.00    +0.000 C 
ATOM     32  C   UNK A   0      -2.455  12.395  19.994  0.00  0.00    +0.000 C 
ATOM     33  C   UNK A   0      -1.898  11.230  19.182  0.00  0.00    +0.000 C 
ATOM     34  C   UNK A   0      -0.588  11.610  18.491  0.00  0.00    +0.000 C 
ATOM     35  C   UNK A   0       0.519  12.140  19.450  0.00  0.00    +0.000 C 
ATOM     36  C   UNK A   0       1.666  12.654  18.536  0.00  0.00    +0.000 C 
ENDBRANCH  27  35
ENDBRANCH  26  27
ENDBRANCH  23  26
ENDBRANCH  22  25
ENDBRANCH   1  22
TORSDOF 12
ENDMDL
MODEL 9
REMARK VINA RESULT:      -7.5      0.730      1.979
REMARK  Name = 
REMARK  16 active torsions:
REMARK  status: ('A' for Active; 'I' for Inactive)
REMARK    1  A    between atoms: C_3  and  C_4
REMARK    2  A    between atoms: C_8  and  C_9
REMARK    3  A    between atoms: C_8  and  C_10
REMARK    4  A    between atoms: C_10  and  C_11
REMARK    5  A    between atoms: C_11  and  C_12
REMARK    6  A    between atoms: C_12  and  C_13
REMARK    7  A    between atoms: C_14  and  C_15
REMARK    8  A    between atoms: C_15  and  C_16
REMARK    9  A    between atoms: C_17  and  O_18
REMARK   10  A    between atoms: C_22  and  N_23
REMARK   11  A    between atoms: N_23  and  CA_24
REMARK   12  A    between atoms: CA_24  and  C_25
REMARK   13  A    between atoms: CA_24  and  CB_28
REMARK   14  A    between atoms: C_25  and  OXT_27
REMARK   15  A    between atoms: CB_28  and  CG2_29
REMARK   16  A    between atoms: CB_28  and  OG1_30
REMARK                            x       y       z     vdW  Elec       q    Type
REMARK                         _______ _______ _______ _____ _____    ______ ____
ROOT
ATOM      1  C   UNK A   0       2.303   5.265  19.396  0.00  0.00    +0.000 C 
ATOM      2  C   UNK A   0       1.589   4.123  19.353  0.00  0.00    +0.000 C 
ATOM      3  C   UNK A   0       1.806   3.129  18.257  0.00  0.00    +0.000 C 
ATOM      4  O   UNK A   0       1.069   2.162  18.089  0.00  0.00    +0.000 OA
ATOM      5  C   UNK A   0       2.961   3.319  17.373  0.00  0.00    +0.000 C 
ATOM      6  C   UNK A   0       3.646   4.463  17.337  0.00  0.00    +0.000 C 
ATOM      7  C   UNK A   0       3.288   5.554  18.306  0.00  0.00    +0.000 C 
ATOM      8  O   UNK A   0       3.901   6.615  18.217  0.00  0.00    +0.000 OA
ENDROOT
BRANCH   2   9
ATOM      9  O   UNK A   0       0.642   3.760  20.297  0.00  0.00    +0.000 OA
ATOM     10  H   UNK A   0      -0.106   3.294  19.898  0.00  0.00    +0.000 HD
ENDBRANCH   2   9
BRANCH   6  11
ATOM     11  N   THR A   1       4.645   4.748  16.414  0.00  0.00    +0.000 N 
ATOM     12  H   THR A   1       4.603   5.711  16.064  0.00  0.00    +0.000 HD
BRANCH  11  13
ATOM     13  CA  THR A   1       6.016   4.183  16.456  0.00  0.00    +0.000 C 
BRANCH  13  14
ATOM     14  C   THR A   1       6.914   4.997  17.405  0.00  0.00    +0.000 C 
ATOM     15  O   THR A   1       7.100   6.200  17.322  0.00  0.00    +0.000 OA
BRANCH  14  16
ATOM     16  OXT THR A   1       7.510   4.245  18.367  0.00  0.00    +0.000 OA
ATOM     17  HXT THR A   1       7.852   3.375  18.063  0.00  0.00    +0.000 HD
ENDBRANCH  14  16
ENDBRANCH  13  14
BRANCH  13  18
ATOM     18  CB  THR A   1       6.618   4.144  15.030  0.00  0.00    +0.000 C 
ATOM     19  CG2 THR A   1       5.580   4.129  13.910  0.00  0.00    +0.000 C 
BRANCH  18  20
ATOM     20  OG1 THR A   1       7.537   5.216  14.805  0.00  0.00    +0.000 OA
ATOM     21  HG1 THR A   1       7.591   5.744  15.628  0.00  0.00    +0.000 HD
ENDBRANCH  18  20
ENDBRANCH  13  18
ENDBRANCH  11  13
ENDBRANCH   6  11
BRANCH   1  22
ATOM     22  C   UNK A   0       2.222   6.306  20.484  0.00  0.00    +0.000 C 
BRANCH  22  25
ATOM     23  C   UNK A   0       1.332   8.693  20.690  0.00  0.00    +0.000 C 
ATOM     24  C   UNK A   0       1.438   8.730  22.188  0.00  0.00    +0.000 C 
ATOM     25  C   UNK A   0       1.673   7.609  19.964  0.00  0.00    +0.000 C 
BRANCH  23  26
ATOM     26  C   UNK A   0       0.786   9.927  19.995  0.00  0.00    +0.000 C 
BRANCH  26  27
ATOM     27  C   UNK A   0      -0.612  10.349  20.484  0.00  0.00    +0.000 C 
BRANCH  27  35
ATOM     28  C   UNK A   0      -2.956  13.073  20.869  0.00  0.00    +0.000 C 
ATOM     29  C   UNK A   0      -1.851  12.616  20.247  0.00  0.00    +0.000 C 
ATOM     30  C   UNK A   0      -1.646  13.000  18.782  0.00  0.00    +0.000 C 
ATOM     31  C   UNK A   0      -1.870  11.858  17.794  0.00  0.00    +0.000 C 
ATOM     32  C   UNK A   0      -0.284  13.670  18.574  0.00  0.00    +0.000 C 
ATOM     33  C   UNK A   0       0.868  12.874  19.177  0.00  0.00    +0.000 C 
ATOM     34  C   UNK A   0       0.622  12.574  20.657  0.00  0.00    +0.000 C 
ATOM     35  C   UNK A   0      -0.718  11.838  20.953  0.00  0.00    +0.000 C 
ATOM     36  C   UNK A   0      -0.863  11.821  22.500  0.00  0.00    +0.000 C 
ENDBRANCH  27  35
ENDBRANCH  26  27
ENDBRANCH  23  26
ENDBRANCH  22  25
ENDBRANCH   1  22
TORSDOF 12
ENDMDL
