MODEL 1
REMARK VINA RESULT:      -7.7      0.000      0.000
REMARK  Name = 
REMARK  3 active torsions:
REMARK  status: ('A' for Active; 'I' for Inactive)
REMARK    1  A    between atoms: C_2  and  C_3
REMARK    2  A    between atoms: N_7  and  C_8
REMARK    3  A    between atoms: C_19  and  C_20
REMARK                            x       y       z     vdW  Elec       q    Type
REMARK                         _______ _______ _______ _____ _____    ______ ____
ROOT
ATOM      1  O   UNL     1      -1.772  10.090  17.918  0.00  0.00    +0.000 OA
ATOM      2  C   UNL     1      -1.754  10.980  18.772  0.00  0.00    +0.000 C 
ATOM      3  N   UNL     1      -2.842  11.847  18.902  0.00  0.00    +0.000 N 
ATOM      4  C   UNL     1      -2.956  12.923  19.877  0.00  0.00    +0.000 C 
ATOM      5  C   UNL     1      -3.946  12.624  21.001  0.00  0.00    +0.000 C 
ATOM      6  C   UNL     1      -5.378  12.956  20.582  0.00  0.00    +0.000 C 
ATOM      7  S   UNL     1      -6.248  11.614  19.737  0.00  0.00    +0.000 S 
ATOM      8  O   UNL     1      -7.108  12.236  18.738  0.00  0.00    +0.000 OA
ATOM      9  O   UNL     1      -6.814  10.690  20.695  0.00  0.00    +0.000 OA
ATOM     10  C   UNL     1      -5.028  10.689  18.828  0.00  0.00    +0.000 C 
ATOM     11  C   UNL     1      -4.039  11.570  18.086  0.00  0.00    +0.000 C 
ENDROOT
BRANCH   6  12
ATOM     12  C   UNL     1      -6.226  13.468  21.733  0.00  0.00    +0.000 A 
ATOM     13  C   UNL     1      -6.119  12.868  23.000  0.00  0.00    +0.000 A 
ATOM     14  C   UNL     1      -6.896  13.315  24.071  0.00  0.00    +0.000 A 
ATOM     15  C   UNL     1      -7.783  14.375  23.898  0.00  0.00    +0.000 A 
ATOM     16  C   UNL     1      -7.916  14.968  22.645  0.00  0.00    +0.000 A 
ATOM     17  C   UNL     1      -7.158  14.501  21.575  0.00  0.00    +0.000 A 
ATOM     18  F   UNL     1      -7.362  15.036  20.363  0.00  0.00    +0.000 F 
ENDBRANCH   6  12
BRANCH   2  19
ATOM     19  C   UNL     1      -0.591  11.060  19.772  0.00  0.00    +0.000 C 
ATOM     20  C   UNL     1       0.614  11.873  19.332  0.00  0.00    +0.000 C 
ATOM     21  C   UNL     1       1.518  10.871  18.671  0.00  0.00    +0.000 C 
ATOM     22  O   UNL     1       2.407  11.207  17.904  0.00  0.00    +0.000 OA
ATOM     23  N   UNL     1       1.174   9.605  19.147  0.00  0.00    +0.000 N 
ATOM     24  C   UNL     1       0.027   9.682  20.029  0.00  0.00    +0.000 C 
BRANCH  23  25
ATOM     25  C   UNL     1       1.923   8.410  18.950  0.00  0.00    +0.000 A 
ATOM     26  C   UNL     1       2.653   8.191  17.771  0.00  0.00    +0.000 A 
ATOM     27  C   UNL     1       3.420   7.036  17.592  0.00  0.00    +0.000 A 
ATOM     28  C   UNL     1       3.453   6.077  18.590  0.00  0.00    +0.000 A 
ATOM     29  F   UNL     1       4.184   4.968  18.422  0.00  0.00    +0.000 F 
ATOM     30  C   UNL     1       2.736   6.256  19.763  0.00  0.00    +0.000 A 
ATOM     31  C   UNL     1       1.979   7.420  19.944  0.00  0.00    +0.000 A 
ENDBRANCH  23  25
ENDBRANCH   2  19
TORSDOF 3
ENDMDL
MODEL 2
REMARK VINA RESULT:      -7.2      7.212     12.075
REMARK  Name = 
REMARK  3 active torsions:
REMARK  status: ('A' for Active; 'I' for Inactive)
REMARK    1  A    between atoms: C_2  and  C_3
REMARK    2  A    between atoms: N_7  and  C_8
REMARK    3  A    between atoms: C_19  and  C_20
REMARK                            x       y       z     vdW  Elec       q    Type
REMARK                         _______ _______ _______ _____ _____    ______ ____
ROOT
ATOM      1  O   UNL     1       3.906  16.556  20.590  0.00  0.00    +0.000 OA
ATOM      2  C   UNL     1       4.499  16.227  19.560  0.00  0.00    +0.000 C 
ATOM      3  N   UNL     1       5.896  16.212  19.531  0.00  0.00    +0.000 N 
ATOM      4  C   UNL     1       6.716  15.827  18.391  0.00  0.00    +0.000 C 
ATOM      5  C   UNL     1       7.395  14.468  18.560  0.00  0.00    +0.000 C 
ATOM      6  C   UNL     1       8.694  14.592  19.354  0.00  0.00    +0.000 C 
ATOM      7  S   UNL     1       8.495  14.485  21.149  0.00  0.00    +0.000 S 
ATOM      8  O   UNL     1       9.480  15.386  21.733  0.00  0.00    +0.000 OA
ATOM      9  O   UNL     1       8.445  13.104  21.575  0.00  0.00    +0.000 OA
ATOM     10  C   UNL     1       6.902  15.175  21.541  0.00  0.00    +0.000 C 
ATOM     11  C   UNL     1       6.609  16.466  20.797  0.00  0.00    +0.000 C 
ENDROOT
BRANCH   6  12
ATOM     12  C   UNL     1       9.760  13.610  18.899  0.00  0.00    +0.000 A 
ATOM     13  C   UNL     1       9.380  12.364  18.370  0.00  0.00    +0.000 A 
ATOM     14  C   UNL     1      10.342  11.441  17.955  0.00  0.00    +0.000 A 
ATOM     15  C   UNL     1      11.697  11.750  18.051  0.00  0.00    +0.000 A 
ATOM     16  C   UNL     1      12.091  12.972  18.592  0.00  0.00    +0.000 A 
ATOM     17  C   UNL     1      11.128  13.878  19.027  0.00  0.00    +0.000 A 
ATOM     18  F   UNL     1      11.535  15.012  19.615  0.00  0.00    +0.000 F 
ENDBRANCH   6  12
BRANCH   2  19
ATOM     19  C   UNL     1       3.706  15.718  18.347  0.00  0.00    +0.000 C 
ATOM     20  C   UNL     1       2.277  16.219  18.224  0.00  0.00    +0.000 C 
ATOM     21  C   UNL     1       1.456  15.184  18.940  0.00  0.00    +0.000 C 
ATOM     22  O   UNL     1       0.326  15.415  19.340  0.00  0.00    +0.000 OA
ATOM     23  N   UNL     1       2.196  14.000  18.973  0.00  0.00    +0.000 N 
ATOM     24  C   UNL     1       3.511  14.200  18.398  0.00  0.00    +0.000 C 
BRANCH  23  25
ATOM     25  C   UNL     1       1.703  12.721  19.356  0.00  0.00    +0.000 A 
ATOM     26  C   UNL     1       1.214  12.484  20.652  0.00  0.00    +0.000 A 
ATOM     27  C   UNL     1       0.693  11.239  21.018  0.00  0.00    +0.000 A 
ATOM     28  C   UNL     1       0.669  10.210  20.092  0.00  0.00    +0.000 A 
ATOM     29  F   UNL     1       0.173   9.016  20.439  0.00  0.00    +0.000 F 
ATOM     30  C   UNL     1       1.153  10.406  18.808  0.00  0.00    +0.000 A 
ATOM     31  C   UNL     1       1.662  11.658  18.440  0.00  0.00    +0.000 A 
ENDBRANCH  23  25
ENDBRANCH   2  19
TORSDOF 3
ENDMDL
MODEL 3
REMARK VINA RESULT:      -7.1      3.269     10.399
REMARK  Name = 
REMARK  3 active torsions:
REMARK  status: ('A' for Active; 'I' for Inactive)
REMARK    1  A    between atoms: C_2  and  C_3
REMARK    2  A    between atoms: N_7  and  C_8
REMARK    3  A    between atoms: C_19  and  C_20
REMARK                            x       y       z     vdW  Elec       q    Type
REMARK                         _______ _______ _______ _____ _____    ______ ____
ROOT
ATOM      1  O   UNL     1      -0.676   9.569  20.618  0.00  0.00    +0.000 OA
ATOM      2  C   UNL     1       0.141   9.686  19.701  0.00  0.00    +0.000 C 
ATOM      3  N   UNL     1       1.329   8.952  19.726  0.00  0.00    +0.000 N 
ATOM      4  C   UNL     1       2.365   8.983  18.701  0.00  0.00    +0.000 C 
ATOM      5  C   UNL     1       2.412   7.718  17.846  0.00  0.00    +0.000 C 
ATOM      6  C   UNL     1       3.226   6.618  18.526  0.00  0.00    +0.000 C 
ATOM      7  S   UNL     1       2.280   5.569  19.656  0.00  0.00    +0.000 S 
ATOM      8  O   UNL     1       3.176   5.222  20.752  0.00  0.00    +0.000 OA
ATOM      9  O   UNL     1       1.597   4.522  18.930  0.00  0.00    +0.000 OA
ATOM     10  C   UNL     1       1.002   6.584  20.367  0.00  0.00    +0.000 C 
ATOM     11  C   UNL     1       1.496   7.953  20.798  0.00  0.00    +0.000 C 
ENDROOT
BRANCH   6  12
ATOM     12  C   UNL     1       3.984   5.748  17.538  0.00  0.00    +0.000 A 
ATOM     13  C   UNL     1       3.623   4.400  17.375  0.00  0.00    +0.000 A 
ATOM     14  C   UNL     1       4.312   3.578  16.480  0.00  0.00    +0.000 A 
ATOM     15  C   UNL     1       5.365   4.093  15.725  0.00  0.00    +0.000 A 
ATOM     16  C   UNL     1       5.748   5.421  15.889  0.00  0.00    +0.000 A 
ATOM     17  C   UNL     1       5.074   6.228  16.802  0.00  0.00    +0.000 A 
ATOM     18  F   UNL     1       5.513   7.479  16.997  0.00  0.00    +0.000 F 
ENDBRANCH   6  12
BRANCH   2  19
ATOM     19  C   UNL     1      -0.201  10.545  18.475  0.00  0.00    +0.000 C 
ATOM     20  C   UNL     1       0.005  12.042  18.628  0.00  0.00    +0.000 C 
ATOM     21  C   UNL     1      -1.324  12.554  19.104  0.00  0.00    +0.000 C 
ATOM     22  O   UNL     1      -1.442  13.638  19.656  0.00  0.00    +0.000 OA
ATOM     23  N   UNL     1      -2.297  11.621  18.742  0.00  0.00    +0.000 N 
ATOM     24  C   UNL     1      -1.689  10.459  18.124  0.00  0.00    +0.000 C 
BRANCH  23  25
ATOM     25  C   UNL     1      -3.705  11.820  18.803  0.00  0.00    +0.000 A 
ATOM     26  C   UNL     1      -4.541  11.461  17.733  0.00  0.00    +0.000 A 
ATOM     27  C   UNL     1      -5.928  11.620  17.806  0.00  0.00    +0.000 A 
ATOM     28  C   UNL     1      -6.494  12.156  18.951  0.00  0.00    +0.000 A 
ATOM     29  F   UNL     1      -7.822  12.311  19.024  0.00  0.00    +0.000 F 
ATOM     30  C   UNL     1      -5.698  12.530  20.022  0.00  0.00    +0.000 A 
ATOM     31  C   UNL     1      -4.310  12.358  19.951  0.00  0.00    +0.000 A 
ENDBRANCH  23  25
ENDBRANCH   2  19
TORSDOF 3
ENDMDL
MODEL 4
REMARK VINA RESULT:      -7.0      6.711     11.523
REMARK  Name = 
REMARK  3 active torsions:
REMARK  status: ('A' for Active; 'I' for Inactive)
REMARK    1  A    between atoms: C_2  and  C_3
REMARK    2  A    between atoms: N_7  and  C_8
REMARK    3  A    between atoms: C_19  and  C_20
REMARK                            x       y       z     vdW  Elec       q    Type
REMARK                         _______ _______ _______ _____ _____    ______ ____
ROOT
ATOM      1  O   UNL     1       2.843  15.694  20.415  0.00  0.00    +0.000 OA
ATOM      2  C   UNL     1       3.351  15.303  19.361  0.00  0.00    +0.000 C 
ATOM      3  N   UNL     1       4.689  15.591  19.081  0.00  0.00    +0.000 N 
ATOM      4  C   UNL     1       5.413  15.175  17.887  0.00  0.00    +0.000 C 
ATOM      5  C   UNL     1       6.428  14.063  18.149  0.00  0.00    +0.000 C 
ATOM      6  C   UNL     1       7.752  14.629  18.660  0.00  0.00    +0.000 C 
ATOM      7  S   UNL     1       7.837  14.846  20.455  0.00  0.00    +0.000 S 
ATOM      8  O   UNL     1       8.635  16.041  20.695  0.00  0.00    +0.000 OA
ATOM      9  O   UNL     1       8.195  13.603  21.102  0.00  0.00    +0.000 OA
ATOM     10  C   UNL     1       6.191  15.231  21.014  0.00  0.00    +0.000 C 
ATOM     11  C   UNL     1       5.484  16.248  20.136  0.00  0.00    +0.000 C 
ENDROOT
BRANCH   6  12
ATOM     12  C   UNL     1       8.957  13.836  18.185  0.00  0.00    +0.000 A 
ATOM     13  C   UNL     1       8.900  12.432  18.159  0.00  0.00    +0.000 A 
ATOM     14  C   UNL     1       9.999  11.680  17.735  0.00  0.00    +0.000 A 
ATOM     15  C   UNL     1      11.166  12.318  17.321  0.00  0.00    +0.000 A 
ATOM     16  C   UNL     1      11.246  13.708  17.360  0.00  0.00    +0.000 A 
ATOM     17  C   UNL     1      10.156  14.451  17.808  0.00  0.00    +0.000 A 
ATOM     18  F   UNL     1      10.286  15.781  17.909  0.00  0.00    +0.000 F 
ENDBRANCH   6  12
BRANCH   2  19
ATOM     19  C   UNL     1       2.551  14.397  18.413  0.00  0.00    +0.000 C 
ATOM     20  C   UNL     1       1.110  14.803  18.159  0.00  0.00    +0.000 C 
ATOM     21  C   UNL     1       0.324  14.062  19.203  0.00  0.00    +0.000 C 
ATOM     22  O   UNL     1      -0.806  14.398  19.525  0.00  0.00    +0.000 OA
ATOM     23  N   UNL     1       1.091  12.973  19.623  0.00  0.00    +0.000 N 
ATOM     24  C   UNL     1       2.391  12.985  18.984  0.00  0.00    +0.000 C 
BRANCH  23  25
ATOM     25  C   UNL     1       0.632  11.894  20.431  0.00  0.00    +0.000 A 
ATOM     26  C   UNL     1      -0.010  12.123  21.659  0.00  0.00    +0.000 A 
ATOM     27  C   UNL     1      -0.495  11.066  22.436  0.00  0.00    +0.000 A 
ATOM     28  C   UNL     1      -0.330   9.764  21.996  0.00  0.00    +0.000 A 
ATOM     29  F   UNL     1      -0.792   8.749  22.737  0.00  0.00    +0.000 F 
ATOM     30  C   UNL     1       0.308   9.502  20.794  0.00  0.00    +0.000 A 
ATOM     31  C   UNL     1       0.782  10.563  20.012  0.00  0.00    +0.000 A 
ENDBRANCH  23  25
ENDBRANCH   2  19
TORSDOF 3
ENDMDL
MODEL 5
REMARK VINA RESULT:      -7.0      0.934      1.569
REMARK  Name = 
REMARK  3 active torsions:
REMARK  status: ('A' for Active; 'I' for Inactive)
REMARK    1  A    between atoms: C_2  and  C_3
REMARK    2  A    between atoms: N_7  and  C_8
REMARK    3  A    between atoms: C_19  and  C_20
REMARK                            x       y       z     vdW  Elec       q    Type
REMARK                         _______ _______ _______ _____ _____    ______ ____
ROOT
ATOM      1  O   UNL     1      -1.685   9.732  17.684  0.00  0.00    +0.000 OA
ATOM      2  C   UNL     1      -1.684  10.720  18.422  0.00  0.00    +0.000 C 
ATOM      3  N   UNL     1      -2.746  11.627  18.377  0.00  0.00    +0.000 N 
ATOM      4  C   UNL     1      -2.878  12.820  19.204  0.00  0.00    +0.000 C 
ATOM      5  C   UNL     1      -3.941  12.691  20.293  0.00  0.00    +0.000 C 
ATOM      6  C   UNL     1      -5.333  13.008  19.750  0.00  0.00    +0.000 C 
ATOM      7  S   UNL     1      -6.201  11.596  19.025  0.00  0.00    +0.000 S 
ATOM      8  O   UNL     1      -6.980  12.113  17.907  0.00  0.00    +0.000 OA
ATOM      9  O   UNL     1      -6.853  10.815  20.052  0.00  0.00    +0.000 OA
ATOM     10  C   UNL     1      -4.964  10.531  18.313  0.00  0.00    +0.000 C 
ATOM     11  C   UNL     1      -3.904  11.285  17.530  0.00  0.00    +0.000 C 
ENDROOT
BRANCH   6  12
ATOM     12  C   UNL     1      -6.227  13.683  20.776  0.00  0.00    +0.000 A 
ATOM     13  C   UNL     1      -7.092  14.716  20.376  0.00  0.00    +0.000 A 
ATOM     14  C   UNL     1      -7.916  15.358  21.303  0.00  0.00    +0.000 A 
ATOM     15  C   UNL     1      -7.899  14.972  22.641  0.00  0.00    +0.000 A 
ATOM     16  C   UNL     1      -7.033  13.963  23.058  0.00  0.00    +0.000 A 
ATOM     17  C   UNL     1      -6.195  13.345  22.134  0.00  0.00    +0.000 A 
ATOM     18  F   UNL     1      -5.317  12.433  22.575  0.00  0.00    +0.000 F 
ENDBRANCH   6  12
BRANCH   2  19
ATOM     19  C   UNL     1      -0.578  10.892  19.474  0.00  0.00    +0.000 C 
ATOM     20  C   UNL     1       0.635  11.697  19.043  0.00  0.00    +0.000 C 
ATOM     21  C   UNL     1       1.590  10.671  18.501  0.00  0.00    +0.000 C 
ATOM     22  O   UNL     1       2.513  10.971  17.761  0.00  0.00    +0.000 OA
ATOM     23  N   UNL     1       1.241   9.433  19.045  0.00  0.00    +0.000 N 
ATOM     24  C   UNL     1       0.047   9.548  19.858  0.00  0.00    +0.000 C 
BRANCH  23  25
ATOM     25  C   UNL     1       2.019   8.243  18.971  0.00  0.00    +0.000 A 
ATOM     26  C   UNL     1       2.009   7.298  20.010  0.00  0.00    +0.000 A 
ATOM     27  C   UNL     1       2.742   6.110  19.922  0.00  0.00    +0.000 A 
ATOM     28  C   UNL     1       3.505   5.861  18.794  0.00  0.00    +0.000 A 
ATOM     29  F   UNL     1       4.209   4.726  18.707  0.00  0.00    +0.000 F 
ATOM     30  C   UNL     1       3.546   6.776  17.754  0.00  0.00    +0.000 A 
ATOM     31  C   UNL     1       2.801   7.959  17.840  0.00  0.00    +0.000 A 
ENDBRANCH  23  25
ENDBRANCH   2  19
TORSDOF 3
ENDMDL
MODEL 6
REMARK VINA RESULT:      -6.9      5.886      9.526
REMARK  Name = 
REMARK  3 active torsions:
REMARK  status: ('A' for Active; 'I' for Inactive)
REMARK    1  A    between atoms: C_2  and  C_3
REMARK    2  A    between atoms: N_7  and  C_8
REMARK    3  A    between atoms: C_19  and  C_20
REMARK                            x       y       z     vdW  Elec       q    Type
REMARK                         _______ _______ _______ _____ _____    ______ ____
ROOT
ATOM      1  O   UNL     1       0.989  13.075  21.155  0.00  0.00    +0.000 OA
ATOM      2  C   UNL     1       1.438  13.577  20.123  0.00  0.00    +0.000 C 
ATOM      3  N   UNL     1       2.332  14.648  20.197  0.00  0.00    +0.000 N 
ATOM      4  C   UNL     1       2.948  15.318  19.060  0.00  0.00    +0.000 C 
ATOM      5  C   UNL     1       4.431  14.992  18.892  0.00  0.00    +0.000 C 
ATOM      6  C   UNL     1       5.299  15.878  19.785  0.00  0.00    +0.000 C 
ATOM      7  S   UNL     1       5.559  15.239  21.458  0.00  0.00    +0.000 S 
ATOM      8  O   UNL     1       5.605  16.394  22.344  0.00  0.00    +0.000 OA
ATOM      9  O   UNL     1       6.640  14.278  21.475  0.00  0.00    +0.000 OA
ATOM     10  C   UNL     1       4.094  14.332  21.906  0.00  0.00    +0.000 C 
ATOM     11  C   UNL     1       2.809  15.050  21.534  0.00  0.00    +0.000 C 
ENDROOT
BRANCH   6  12
ATOM     12  C   UNL     1       6.638  16.219  19.156  0.00  0.00    +0.000 A 
ATOM     13  C   UNL     1       7.312  15.256  18.385  0.00  0.00    +0.000 A 
ATOM     14  C   UNL     1       8.550  15.543  17.805  0.00  0.00    +0.000 A 
ATOM     15  C   UNL     1       9.129  16.800  17.975  0.00  0.00    +0.000 A 
ATOM     16  C   UNL     1       8.483  17.758  18.753  0.00  0.00    +0.000 A 
ATOM     17  C   UNL     1       7.262  17.457  19.349  0.00  0.00    +0.000 A 
ATOM     18  F   UNL     1       6.701  18.369  20.155  0.00  0.00    +0.000 F 
ENDBRANCH   6  12
BRANCH   2  19
ATOM     19  C   UNL     1       1.110  12.950  18.759  0.00  0.00    +0.000 C 
ATOM     20  C   UNL     1      -0.309  12.438  18.582  0.00  0.00    +0.000 C 
ATOM     21  C   UNL     1      -0.240  10.997  19.001  0.00  0.00    +0.000 C 
ATOM     22  O   UNL     1      -1.237  10.365  19.315  0.00  0.00    +0.000 OA
ATOM     23  N   UNL     1       1.089  10.583  18.891  0.00  0.00    +0.000 N 
ATOM     24  C   UNL     1       1.941  11.689  18.505  0.00  0.00    +0.000 C 
BRANCH  23  25
ATOM     25  C   UNL     1       1.551   9.239  18.975  0.00  0.00    +0.000 A 
ATOM     26  C   UNL     1       2.129   8.595  17.868  0.00  0.00    +0.000 A 
ATOM     27  C   UNL     1       2.619   7.288  17.960  0.00  0.00    +0.000 A 
ATOM     28  C   UNL     1       2.522   6.605  19.160  0.00  0.00    +0.000 A 
ATOM     29  F   UNL     1       2.988   5.353  19.251  0.00  0.00    +0.000 F 
ATOM     30  C   UNL     1       1.948   7.206  20.269  0.00  0.00    +0.000 A 
ATOM     31  C   UNL     1       1.470   8.520  20.178  0.00  0.00    +0.000 A 
ENDBRANCH  23  25
ENDBRANCH   2  19
TORSDOF 3
ENDMDL
MODEL 7
REMARK VINA RESULT:      -6.9      5.935     10.032
REMARK  Name = 
REMARK  3 active torsions:
REMARK  status: ('A' for Active; 'I' for Inactive)
REMARK    1  A    between atoms: C_2  and  C_3
REMARK    2  A    between atoms: N_7  and  C_8
REMARK    3  A    between atoms: C_19  and  C_20
REMARK                            x       y       z     vdW  Elec       q    Type
REMARK                         _______ _______ _______ _____ _____    ______ ____
ROOT
ATOM      1  O   UNL     1       0.968  14.278  20.584  0.00  0.00    +0.000 OA
ATOM      2  C   UNL     1       1.597  14.337  19.525  0.00  0.00    +0.000 C 
ATOM      3  N   UNL     1       2.733  15.145  19.431  0.00  0.00    +0.000 N 
ATOM      4  C   UNL     1       3.574  15.290  18.250  0.00  0.00    +0.000 C 
ATOM      5  C   UNL     1       4.928  14.594  18.378  0.00  0.00    +0.000 C 
ATOM      6  C   UNL     1       5.938  15.476  19.110  0.00  0.00    +0.000 C 
ATOM      7  S   UNL     1       5.915  15.314  20.912  0.00  0.00    +0.000 S 
ATOM      8  O   UNL     1       6.206  16.635  21.455  0.00  0.00    +0.000 OA
ATOM      9  O   UNL     1       6.705  14.177  21.332  0.00  0.00    +0.000 OA
ATOM     10  C   UNL     1       4.239  14.945  21.384  0.00  0.00    +0.000 C 
ATOM     11  C   UNL     1       3.212  15.799  20.663  0.00  0.00    +0.000 C 
ENDROOT
BRANCH   6  12
ATOM     12  C   UNL     1       7.357  15.297  18.600  0.00  0.00    +0.000 A 
ATOM     13  C   UNL     1       7.835  14.009  18.306  0.00  0.00    +0.000 A 
ATOM     14  C   UNL     1       9.140  13.819  17.845  0.00  0.00    +0.000 A 
ATOM     15  C   UNL     1       9.984  14.913  17.660  0.00  0.00    +0.000 A 
ATOM     16  C   UNL     1       9.532  16.194  17.965  0.00  0.00    +0.000 A 
ATOM     17  C   UNL     1       8.239  16.374  18.449  0.00  0.00    +0.000 A 
ATOM     18  F   UNL     1       7.856  17.607  18.809  0.00  0.00    +0.000 F 
ENDBRANCH   6  12
BRANCH   2  19
ATOM     19  C   UNL     1       1.204  13.431  18.348  0.00  0.00    +0.000 C 
ATOM     20  C   UNL     1      -0.262  13.046  18.261  0.00  0.00    +0.000 C 
ATOM     21  C   UNL     1      -0.354  11.754  19.022  0.00  0.00    +0.000 C 
ATOM     22  O   UNL     1      -1.414  11.329  19.453  0.00  0.00    +0.000 OA
ATOM     23  N   UNL     1       0.921  11.186  19.056  0.00  0.00    +0.000 N 
ATOM     24  C   UNL     1       1.891  12.065  18.435  0.00  0.00    +0.000 C 
BRANCH  23  25
ATOM     25  C   UNL     1       1.232   9.863  19.480  0.00  0.00    +0.000 A 
ATOM     26  C   UNL     1       0.852   9.393  20.748  0.00  0.00    +0.000 A 
ATOM     27  C   UNL     1       1.122   8.082  21.151  0.00  0.00    +0.000 A 
ATOM     28  C   UNL     1       1.791   7.228  20.290  0.00  0.00    +0.000 A 
ATOM     29  F   UNL     1       2.053   5.972  20.673  0.00  0.00    +0.000 F 
ATOM     30  C   UNL     1       2.190   7.661  19.036  0.00  0.00    +0.000 A 
ATOM     31  C   UNL     1       1.906   8.971  18.630  0.00  0.00    +0.000 A 
ENDBRANCH  23  25
ENDBRANCH   2  19
TORSDOF 3
ENDMDL
MODEL 8
REMARK VINA RESULT:      -6.9      7.287     12.185
REMARK  Name = 
REMARK  3 active torsions:
REMARK  status: ('A' for Active; 'I' for Inactive)
REMARK    1  A    between atoms: C_2  and  C_3
REMARK    2  A    between atoms: N_7  and  C_8
REMARK    3  A    between atoms: C_19  and  C_20
REMARK                            x       y       z     vdW  Elec       q    Type
REMARK                         _______ _______ _______ _____ _____    ______ ____
ROOT
ATOM      1  O   UNL     1       4.316  16.880  20.335  0.00  0.00    +0.000 OA
ATOM      2  C   UNL     1       4.955  16.443  19.376  0.00  0.00    +0.000 C 
ATOM      3  N   UNL     1       6.346  16.328  19.457  0.00  0.00    +0.000 N 
ATOM      4  C   UNL     1       7.216  15.812  18.408  0.00  0.00    +0.000 C 
ATOM      5  C   UNL     1       7.776  14.423  18.711  0.00  0.00    +0.000 C 
ATOM      6  C   UNL     1       9.020  14.507  19.594  0.00  0.00    +0.000 C 
ATOM      7  S   UNL     1       8.683  14.533  21.372  0.00  0.00    +0.000 S 
ATOM      8  O   UNL     1       9.688  15.398  21.975  0.00  0.00    +0.000 OA
ATOM      9  O   UNL     1       8.499  13.189  21.875  0.00  0.00    +0.000 OA
ATOM     10  C   UNL     1       7.122  15.358  21.598  0.00  0.00    +0.000 C 
ATOM     11  C   UNL     1       6.982  16.614  20.757  0.00  0.00    +0.000 C 
ENDROOT
BRANCH   6  12
ATOM     12  C   UNL     1      10.039  13.424  19.284  0.00  0.00    +0.000 A 
ATOM     13  C   UNL     1      11.124  13.218  20.153  0.00  0.00    +0.000 A 
ATOM     14  C   UNL     1      12.079  12.235  19.883  0.00  0.00    +0.000 A 
ATOM     15  C   UNL     1      11.959  11.435  18.748  0.00  0.00    +0.000 A 
ATOM     16  C   UNL     1      10.900  11.640  17.866  0.00  0.00    +0.000 A 
ATOM     17  C   UNL     1       9.966  12.638  18.128  0.00  0.00    +0.000 A 
ATOM     18  F   UNL     1       9.003  12.867  17.224  0.00  0.00    +0.000 F 
ENDBRANCH   6  12
BRANCH   2  19
ATOM     19  C   UNL     1       4.216  15.913  18.138  0.00  0.00    +0.000 C 
ATOM     20  C   UNL     1       2.823  16.468  17.903  0.00  0.00    +0.000 C 
ATOM     21  C   UNL     1       1.913  15.503  18.609  0.00  0.00    +0.000 C 
ATOM     22  O   UNL     1       0.772  15.800  18.925  0.00  0.00    +0.000 OA
ATOM     23  N   UNL     1       2.595  14.292  18.742  0.00  0.00    +0.000 N 
ATOM     24  C   UNL     1       3.950  14.408  18.243  0.00  0.00    +0.000 C 
BRANCH  23  25
ATOM     25  C   UNL     1       2.021  13.054  19.148  0.00  0.00    +0.000 A 
ATOM     26  C   UNL     1       1.457  12.894  20.424  0.00  0.00    +0.000 A 
ATOM     27  C   UNL     1       0.858  11.690  20.811  0.00  0.00    +0.000 A 
ATOM     28  C   UNL     1       0.830  10.627  19.925  0.00  0.00    +0.000 A 
ATOM     29  F   UNL     1       0.259   9.472  20.293  0.00  0.00    +0.000 F 
ATOM     30  C   UNL     1       1.386  10.747  18.661  0.00  0.00    +0.000 A 
ATOM     31  C   UNL     1       1.973  11.957  18.272  0.00  0.00    +0.000 A 
ENDBRANCH  23  25
ENDBRANCH   2  19
TORSDOF 3
ENDMDL
MODEL 9
REMARK VINA RESULT:      -6.9      6.906     11.815
REMARK  Name = 
REMARK  3 active torsions:
REMARK  status: ('A' for Active; 'I' for Inactive)
REMARK    1  A    between atoms: C_2  and  C_3
REMARK    2  A    between atoms: N_7  and  C_8
REMARK    3  A    between atoms: C_19  and  C_20
REMARK                            x       y       z     vdW  Elec       q    Type
REMARK                         _______ _______ _______ _____ _____    ______ ____
ROOT
ATOM      1  O   UNL     1       3.462  15.565  20.752  0.00  0.00    +0.000 OA
ATOM      2  C   UNL     1       3.981  15.466  19.638  0.00  0.00    +0.000 C 
ATOM      3  N   UNL     1       5.330  15.788  19.465  0.00  0.00    +0.000 N 
ATOM      4  C   UNL     1       6.069  15.698  18.212  0.00  0.00    +0.000 C 
ATOM      5  C   UNL     1       7.055  14.532  18.169  0.00  0.00    +0.000 C 
ATOM      6  C   UNL     1       8.380  14.902  18.834  0.00  0.00    +0.000 C 
ATOM      7  S   UNL     1       8.436  14.614  20.619  0.00  0.00    +0.000 S 
ATOM      8  O   UNL     1       9.254  15.677  21.189  0.00  0.00    +0.000 OA
ATOM      9  O   UNL     1       8.756  13.232  20.903  0.00  0.00    +0.000 OA
ATOM     10  C   UNL     1       6.788  14.872  21.243  0.00  0.00    +0.000 C 
ATOM     11  C   UNL     1       6.118  16.108  20.670  0.00  0.00    +0.000 C 
ENDROOT
BRANCH   6  12
ATOM     12  C   UNL     1       9.577  14.240  18.174  0.00  0.00    +0.000 A 
ATOM     13  C   UNL     1      10.681  15.019  17.789  0.00  0.00    +0.000 A 
ATOM     14  C   UNL     1      11.789  14.434  17.171  0.00  0.00    +0.000 A 
ATOM     15  C   UNL     1      11.816  13.060  16.938  0.00  0.00    +0.000 A 
ATOM     16  C   UNL     1      10.722  12.277  17.295  0.00  0.00    +0.000 A 
ATOM     17  C   UNL     1       9.610  12.870  17.887  0.00  0.00    +0.000 A 
ATOM     18  F   UNL     1       8.540  12.106  18.149  0.00  0.00    +0.000 F 
ENDBRANCH   6  12
BRANCH   2  19
ATOM     19  C   UNL     1       3.181  14.877  18.468  0.00  0.00    +0.000 C 
ATOM     20  C   UNL     1       1.783  15.434  18.266  0.00  0.00    +0.000 C 
ATOM     21  C   UNL     1       0.899  14.519  19.066  0.00  0.00    +0.000 C 
ATOM     22  O   UNL     1      -0.224  14.846  19.418  0.00  0.00    +0.000 OA
ATOM     23  N   UNL     1       1.576  13.310  19.234  0.00  0.00    +0.000 N 
ATOM     24  C   UNL     1       2.907  13.384  18.668  0.00  0.00    +0.000 C 
BRANCH  23  25
ATOM     25  C   UNL     1       1.011  12.103  19.735  0.00  0.00    +0.000 A 
ATOM     26  C   UNL     1       0.908  10.955  18.931  0.00  0.00    +0.000 A 
ATOM     27  C   UNL     1       0.389   9.758  19.432  0.00  0.00    +0.000 A 
ATOM     28  C   UNL     1      -0.047   9.699  20.745  0.00  0.00    +0.000 A 
ATOM     29  F   UNL     1      -0.546   8.555  21.229  0.00  0.00    +0.000 F 
ATOM     30  C   UNL     1       0.031  10.815  21.564  0.00  0.00    +0.000 A 
ATOM     31  C   UNL     1       0.563  12.010  21.062  0.00  0.00    +0.000 A 
ENDBRANCH  23  25
ENDBRANCH   2  19
TORSDOF 3
ENDMDL
