MODEL 1
REMARK VINA RESULT:      -8.3      0.000      0.000
REMARK  Name = 
REMARK  4 active torsions:
REMARK  status: ('A' for Active; 'I' for Inactive)
REMARK    1  A    between atoms: C_1  and  C_2
REMARK    2  A    between atoms: C_5  and  N_6
REMARK    3  A    between atoms: N_13  and  N_14
REMARK    4  A    between atoms: C_15  and  C_17
REMARK                            x       y       z     vdW  Elec       q    Type
REMARK                         _______ _______ _______ _____ _____    ______ ____
ROOT
ATOM      1  N   UNL     1       2.774   6.354  18.802  0.00  0.00    +0.000 NA
ATOM      2  C   UNL     1       2.564   5.193  19.332  0.00  0.00    +0.000 C 
ATOM      3  S   UNL     1       1.506   4.825  20.674  0.00  0.00    +0.000 S 
ATOM      4  C   UNL     1       2.362   3.404  21.104  0.00  0.00    +0.000 C 
ATOM      5  O   UNL     1       2.429   2.888  22.201  0.00  0.00    +0.000 OA
ATOM      6  C   UNL     1       3.092   2.997  19.837  0.00  0.00    +0.000 C 
ATOM      7  O   UNL     1       3.604   1.897  19.709  0.00  0.00    +0.000 OA
ATOM      8  N   UNL     1       3.170   4.030  18.943  0.00  0.00    +0.000 N 
ENDROOT
BRANCH   1  13
ATOM      9  C   UNL     1       0.072  11.163  20.424  0.00  0.00    +0.000 C 
ATOM     10  C   UNL     1       0.789   9.918  19.995  0.00  0.00    +0.000 A 
ATOM     11  C   UNL     1       1.113   9.677  18.657  0.00  0.00    +0.000 A 
ATOM     12  C   UNL     1       1.783   8.498  18.289  0.00  0.00    +0.000 A 
ATOM     13  C   UNL     1       2.127   7.531  19.239  0.00  0.00    +0.000 A 
ATOM     14  C   UNL     1       1.735   7.757  20.564  0.00  0.00    +0.000 A 
ATOM     15  C   UNL     1       1.113   8.949  20.948  0.00  0.00    +0.000 A 
ENDBRANCH   1  13
BRANCH   8  16
ATOM     16  N   UNL     1       4.029   3.867  17.825  0.00  0.00    +0.000 N 
ATOM     17  C   UNL     1       5.355   4.249  17.934  0.00  0.00    +0.000 C 
ATOM     18  O   UNL     1       5.945   4.443  18.988  0.00  0.00    +0.000 OA
ATOM     19  H   UNL     1       3.561   3.945  16.924  0.00  0.00    +0.000 HD
BRANCH  17  20
ATOM     20  C   UNL     1       6.097   4.463  16.660  0.00  0.00    +0.000 A 
ATOM     21  C   UNL     1       5.792   3.749  15.501  0.00  0.00    +0.000 A 
ATOM     22  C   UNL     1       6.452   4.110  14.335  0.00  0.00    +0.000 A 
ATOM     23  N   UNL     1       7.371   5.095  14.264  0.00  0.00    +0.000 NA
ATOM     24  C   UNL     1       7.643   5.768  15.400  0.00  0.00    +0.000 A 
ATOM     25  C   UNL     1       7.037   5.495  16.612  0.00  0.00    +0.000 A 
ENDBRANCH  17  20
ENDBRANCH   8  16
TORSDOF 3
ENDMDL
MODEL 2
REMARK VINA RESULT:      -8.1      0.290      1.004
REMARK  Name = 
REMARK  4 active torsions:
REMARK  status: ('A' for Active; 'I' for Inactive)
REMARK    1  A    between atoms: C_1  and  C_2
REMARK    2  A    between atoms: C_5  and  N_6
REMARK    3  A    between atoms: N_13  and  N_14
REMARK    4  A    between atoms: C_15  and  C_17
REMARK                            x       y       z     vdW  Elec       q    Type
REMARK                         _______ _______ _______ _____ _____    ______ ____
ROOT
ATOM      1  N   UNL     1       2.719   6.317  18.938  0.00  0.00    +0.000 NA
ATOM      2  C   UNL     1       2.547   5.116  19.390  0.00  0.00    +0.000 C 
ATOM      3  S   UNL     1       1.554   4.634  20.744  0.00  0.00    +0.000 S 
ATOM      4  C   UNL     1       2.446   3.199  21.031  0.00  0.00    +0.000 C 
ATOM      5  O   UNL     1       2.567   2.606  22.083  0.00  0.00    +0.000 OA
ATOM      6  C   UNL     1       3.125   2.898  19.707  0.00  0.00    +0.000 C 
ATOM      7  O   UNL     1       3.644   1.818  19.477  0.00  0.00    +0.000 OA
ATOM      8  N   UNL     1       3.150   3.994  18.890  0.00  0.00    +0.000 N 
ENDROOT
BRANCH   1  13
ATOM      9  C   UNL     1       0.038  10.957  21.022  0.00  0.00    +0.000 C 
ATOM     10  C   UNL     1       0.750   9.756  20.474  0.00  0.00    +0.000 A 
ATOM     11  C   UNL     1       1.090   9.653  19.122  0.00  0.00    +0.000 A 
ATOM     12  C   UNL     1       1.755   8.512  18.641  0.00  0.00    +0.000 A 
ATOM     13  C   UNL     1       2.076   7.448  19.488  0.00  0.00    +0.000 A 
ATOM     14  C   UNL     1       1.668   7.537  20.824  0.00  0.00    +0.000 A 
ATOM     15  C   UNL     1       1.051   8.688  21.323  0.00  0.00    +0.000 A 
ENDBRANCH   1  13
BRANCH   8  16
ATOM     16  N   UNL     1       3.962   3.928  17.728  0.00  0.00    +0.000 N 
ATOM     17  C   UNL     1       5.294   4.295  17.814  0.00  0.00    +0.000 C 
ATOM     18  O   UNL     1       5.928   4.395  18.857  0.00  0.00    +0.000 OA
ATOM     19  H   UNL     1       3.458   4.086  16.857  0.00  0.00    +0.000 HD
BRANCH  17  20
ATOM     20  C   UNL     1       5.984   4.618  16.534  0.00  0.00    +0.000 A 
ATOM     21  C   UNL     1       7.047   5.518  16.478  0.00  0.00    +0.000 A 
ATOM     22  C   UNL     1       7.706   5.656  15.264  0.00  0.00    +0.000 A 
ATOM     23  N   UNL     1       7.368   4.983  14.144  0.00  0.00    +0.000 NA
ATOM     24  C   UNL     1       6.336   4.120  14.231  0.00  0.00    +0.000 A 
ATOM     25  C   UNL     1       5.620   3.902  15.392  0.00  0.00    +0.000 A 
ENDBRANCH  17  20
ENDBRANCH   8  16
TORSDOF 3
ENDMDL
MODEL 3
REMARK VINA RESULT:      -8.0      0.439      1.416
REMARK  Name = 
REMARK  4 active torsions:
REMARK  status: ('A' for Active; 'I' for Inactive)
REMARK    1  A    between atoms: C_1  and  C_2
REMARK    2  A    between atoms: C_5  and  N_6
REMARK    3  A    between atoms: N_13  and  N_14
REMARK    4  A    between atoms: C_15  and  C_17
REMARK                            x       y       z     vdW  Elec       q    Type
REMARK                         _______ _______ _______ _____ _____    ______ ____
ROOT
ATOM      1  N   UNL     1       2.659   6.267  18.779  0.00  0.00    +0.000 NA
ATOM      2  C   UNL     1       2.495   5.087  19.283  0.00  0.00    +0.000 C 
ATOM      3  S   UNL     1       1.550   4.666  20.692  0.00  0.00    +0.000 S 
ATOM      4  C   UNL     1       2.441   3.236  21.001  0.00  0.00    +0.000 C 
ATOM      5  O   UNL     1       2.597   2.682  22.070  0.00  0.00    +0.000 OA
ATOM      6  C   UNL     1       3.067   2.878  19.666  0.00  0.00    +0.000 C 
ATOM      7  O   UNL     1       3.570   1.785  19.459  0.00  0.00    +0.000 OA
ATOM      8  N   UNL     1       3.070   3.941  18.805  0.00  0.00    +0.000 N 
ENDROOT
BRANCH   1  13
ATOM      9  C   UNL     1       0.231  10.942  21.083  0.00  0.00    +0.000 C 
ATOM     10  C   UNL     1       0.852   9.714  20.487  0.00  0.00    +0.000 A 
ATOM     11  C   UNL     1       1.202   8.610  21.271  0.00  0.00    +0.000 A 
ATOM     12  C   UNL     1       1.784   7.476  20.680  0.00  0.00    +0.000 A 
ATOM     13  C   UNL     1       2.046   7.425  19.308  0.00  0.00    +0.000 A 
ATOM     14  C   UNL     1       1.752   8.564  18.549  0.00  0.00    +0.000 A 
ATOM     15  C   UNL     1       1.126   9.678  19.118  0.00  0.00    +0.000 A 
ENDBRANCH   1  13
BRANCH   8  16
ATOM     16  N   UNL     1       3.838   3.823  17.618  0.00  0.00    +0.000 N 
ATOM     17  C   UNL     1       5.177   4.171  17.643  0.00  0.00    +0.000 C 
ATOM     18  O   UNL     1       5.850   4.296  18.657  0.00  0.00    +0.000 OA
ATOM     19  H   UNL     1       3.303   3.958  16.761  0.00  0.00    +0.000 HD
BRANCH  17  20
ATOM     20  C   UNL     1       5.823   4.440  16.328  0.00  0.00    +0.000 A 
ATOM     21  C   UNL     1       7.071   5.055  16.233  0.00  0.00    +0.000 A 
ATOM     22  C   UNL     1       7.645   5.147  14.973  0.00  0.00    +0.000 A 
ATOM     23  N   UNL     1       7.063   4.688  13.845  0.00  0.00    +0.000 NA
ATOM     24  C   UNL     1       5.858   4.096  13.970  0.00  0.00    +0.000 A 
ATOM     25  C   UNL     1       5.203   3.948  15.178  0.00  0.00    +0.000 A 
ENDBRANCH  17  20
ENDBRANCH   8  16
TORSDOF 3
ENDMDL
MODEL 4
REMARK VINA RESULT:      -7.4      1.333      1.768
REMARK  Name = 
REMARK  4 active torsions:
REMARK  status: ('A' for Active; 'I' for Inactive)
REMARK    1  A    between atoms: C_1  and  C_2
REMARK    2  A    between atoms: C_5  and  N_6
REMARK    3  A    between atoms: N_13  and  N_14
REMARK    4  A    between atoms: C_15  and  C_17
REMARK                            x       y       z     vdW  Elec       q    Type
REMARK                         _______ _______ _______ _____ _____    ______ ____
ROOT
ATOM      1  N   UNL     1       2.386   7.366  19.696  0.00  0.00    +0.000 NA
ATOM      2  C   UNL     1       2.307   6.095  19.925  0.00  0.00    +0.000 C 
ATOM      3  S   UNL     1       1.189   5.286  20.997  0.00  0.00    +0.000 S 
ATOM      4  C   UNL     1       2.209   3.927  21.216  0.00  0.00    +0.000 C 
ATOM      5  O   UNL     1       2.244   3.178  22.171  0.00  0.00    +0.000 OA
ATOM      6  C   UNL     1       3.119   3.930  20.001  0.00  0.00    +0.000 C 
ATOM      7  O   UNL     1       3.807   2.966  19.705  0.00  0.00    +0.000 OA
ATOM      8  N   UNL     1       3.124   5.146  19.374  0.00  0.00    +0.000 N 
ENDROOT
BRANCH   1  13
ATOM      9  C   UNL     1      -1.034  11.220  22.247  0.00  0.00    +0.000 C 
ATOM     10  C   UNL     1      -0.150  10.204  21.589  0.00  0.00    +0.000 A 
ATOM     11  C   UNL     1       0.679   9.357  22.331  0.00  0.00    +0.000 A 
ATOM     12  C   UNL     1       1.497   8.417  21.683  0.00  0.00    +0.000 A 
ATOM     13  C   UNL     1       1.521   8.312  20.289  0.00  0.00    +0.000 A 
ATOM     14  C   UNL     1       0.736   9.213  19.558  0.00  0.00    +0.000 A 
ATOM     15  C   UNL     1      -0.119  10.119  20.195  0.00  0.00    +0.000 A 
ENDBRANCH   1  13
BRANCH   8  16
ATOM     16  N   UNL     1       4.108   5.365  18.376  0.00  0.00    +0.000 N 
ATOM     17  C   UNL     1       4.023   4.672  17.181  0.00  0.00    +0.000 C 
ATOM     18  O   UNL     1       3.021   4.101  16.771  0.00  0.00    +0.000 OA
ATOM     19  H   UNL     1       5.025   5.616  18.742  0.00  0.00    +0.000 HD
BRANCH  17  20
ATOM     20  C   UNL     1       5.262   4.601  16.358  0.00  0.00    +0.000 A 
ATOM     21  C   UNL     1       5.220   4.541  14.966  0.00  0.00    +0.000 A 
ATOM     22  C   UNL     1       6.427   4.606  14.284  0.00  0.00    +0.000 A 
ATOM     23  N   UNL     1       7.628   4.712  14.890  0.00  0.00    +0.000 NA
ATOM     24  C   UNL     1       7.637   4.769  16.237  0.00  0.00    +0.000 A 
ATOM     25  C   UNL     1       6.492   4.720  17.010  0.00  0.00    +0.000 A 
ENDBRANCH  17  20
ENDBRANCH   8  16
TORSDOF 3
ENDMDL
MODEL 5
REMARK VINA RESULT:      -7.3      1.265      1.367
REMARK  Name = 
REMARK  4 active torsions:
REMARK  status: ('A' for Active; 'I' for Inactive)
REMARK    1  A    between atoms: C_1  and  C_2
REMARK    2  A    between atoms: C_5  and  N_6
REMARK    3  A    between atoms: N_13  and  N_14
REMARK    4  A    between atoms: C_15  and  C_17
REMARK                            x       y       z     vdW  Elec       q    Type
REMARK                         _______ _______ _______ _____ _____    ______ ____
ROOT
ATOM      1  N   UNL     1       2.527   7.268  19.635  0.00  0.00    +0.000 NA
ATOM      2  C   UNL     1       2.458   5.996  19.865  0.00  0.00    +0.000 C 
ATOM      3  S   UNL     1       1.366   5.182  20.959  0.00  0.00    +0.000 S 
ATOM      4  C   UNL     1       2.397   3.827  21.157  0.00  0.00    +0.000 C 
ATOM      5  O   UNL     1       2.454   3.079  22.111  0.00  0.00    +0.000 OA
ATOM      6  C   UNL     1       3.281   3.835  19.923  0.00  0.00    +0.000 C 
ATOM      7  O   UNL     1       3.968   2.874  19.613  0.00  0.00    +0.000 OA
ATOM      8  N   UNL     1       3.268   5.051  19.297  0.00  0.00    +0.000 N 
ENDROOT
BRANCH   1  13
ATOM      9  C   UNL     1      -1.049  11.115  21.975  0.00  0.00    +0.000 C 
ATOM     10  C   UNL     1      -0.107  10.124  21.359  0.00  0.00    +0.000 A 
ATOM     11  C   UNL     1       0.114  10.076  19.980  0.00  0.00    +0.000 A 
ATOM     12  C   UNL     1       1.002   9.132  19.435  0.00  0.00    +0.000 A 
ATOM     13  C   UNL     1       1.669   8.210  20.246  0.00  0.00    +0.000 A 
ATOM     14  C   UNL     1       1.384   8.227  21.617  0.00  0.00    +0.000 A 
ATOM     15  C   UNL     1       0.542   9.194  22.175  0.00  0.00    +0.000 A 
ENDBRANCH   1  13
BRANCH   8  16
ATOM     16  N   UNL     1       4.231   5.275  18.279  0.00  0.00    +0.000 N 
ATOM     17  C   UNL     1       4.088   4.630  17.063  0.00  0.00    +0.000 C 
ATOM     18  O   UNL     1       3.056   4.108  16.662  0.00  0.00    +0.000 OA
ATOM     19  H   UNL     1       5.165   5.482  18.627  0.00  0.00    +0.000 HD
BRANCH  17  20
ATOM     20  C   UNL     1       5.301   4.550  16.202  0.00  0.00    +0.000 A 
ATOM     21  C   UNL     1       5.227   4.190  14.857  0.00  0.00    +0.000 A 
ATOM     22  C   UNL     1       6.392   4.267  14.108  0.00  0.00    +0.000 A 
ATOM     23  N   UNL     1       7.584   4.656  14.608  0.00  0.00    +0.000 NA
ATOM     24  C   UNL     1       7.624   4.999  15.911  0.00  0.00    +0.000 A 
ATOM     25  C   UNL     1       6.520   4.965  16.742  0.00  0.00    +0.000 A 
ENDBRANCH  17  20
ENDBRANCH   8  16
TORSDOF 3
ENDMDL
MODEL 6
REMARK VINA RESULT:      -7.1      6.438     10.725
REMARK  Name = 
REMARK  4 active torsions:
REMARK  status: ('A' for Active; 'I' for Inactive)
REMARK    1  A    between atoms: C_1  and  C_2
REMARK    2  A    between atoms: C_5  and  N_6
REMARK    3  A    between atoms: N_13  and  N_14
REMARK    4  A    between atoms: C_15  and  C_17
REMARK                            x       y       z     vdW  Elec       q    Type
REMARK                         _______ _______ _______ _____ _____    ______ ____
ROOT
ATOM      1  N   UNL     1      -0.466  11.037  19.461  0.00  0.00    +0.000 NA
ATOM      2  C   UNL     1      -0.100  12.212  19.860  0.00  0.00    +0.000 C 
ATOM      3  S   UNL     1       1.517  12.726  20.279  0.00  0.00    +0.000 S 
ATOM      4  C   UNL     1       0.971  13.996  21.290  0.00  0.00    +0.000 C 
ATOM      5  O   UNL     1       1.555  14.487  22.235  0.00  0.00    +0.000 OA
ATOM      6  C   UNL     1      -0.434  14.298  20.804  0.00  0.00    +0.000 C 
ATOM      7  O   UNL     1      -1.031  15.310  21.136  0.00  0.00    +0.000 OA
ATOM      8  N   UNL     1      -0.942  13.273  20.053  0.00  0.00    +0.000 N 
ENDROOT
BRANCH   1  13
ATOM      9  C   UNL     1       3.147   6.607  18.842  0.00  0.00    +0.000 C 
ATOM     10  C   UNL     1       2.215   7.769  19.014  0.00  0.00    +0.000 A 
ATOM     11  C   UNL     1       1.618   8.059  20.244  0.00  0.00    +0.000 A 
ATOM     12  C   UNL     1       0.747   9.155  20.370  0.00  0.00    +0.000 A 
ATOM     13  C   UNL     1       0.439   9.968  19.276  0.00  0.00    +0.000 A 
ATOM     14  C   UNL     1       0.992   9.623  18.037  0.00  0.00    +0.000 A 
ATOM     15  C   UNL     1       1.899   8.566  17.911  0.00  0.00    +0.000 A 
ENDBRANCH   1  13
BRANCH   8  16
ATOM     16  N   UNL     1      -2.325  13.313  19.739  0.00  0.00    +0.000 N 
ATOM     17  C   UNL     1      -3.233  12.747  20.618  0.00  0.00    +0.000 C 
ATOM     18  O   UNL     1      -2.998  12.471  21.787  0.00  0.00    +0.000 OA
ATOM     19  H   UNL     1      -2.526  13.302  18.741  0.00  0.00    +0.000 HD
BRANCH  17  20
ATOM     20  C   UNL     1      -4.583  12.430  20.075  0.00  0.00    +0.000 A 
ATOM     21  C   UNL     1      -4.760  11.945  18.780  0.00  0.00    +0.000 A 
ATOM     22  C   UNL     1      -6.041  11.560  18.410  0.00  0.00    +0.000 A 
ATOM     23  N   UNL     1      -7.115  11.640  19.223  0.00  0.00    +0.000 NA
ATOM     24  C   UNL     1      -6.911  12.111  20.470  0.00  0.00    +0.000 A 
ATOM     25  C   UNL     1      -5.676  12.514  20.940  0.00  0.00    +0.000 A 
ENDBRANCH  17  20
ENDBRANCH   8  16
TORSDOF 3
ENDMDL
MODEL 7
REMARK VINA RESULT:      -7.1      6.412     10.614
REMARK  Name = 
REMARK  4 active torsions:
REMARK  status: ('A' for Active; 'I' for Inactive)
REMARK    1  A    between atoms: C_1  and  C_2
REMARK    2  A    between atoms: C_5  and  N_6
REMARK    3  A    between atoms: N_13  and  N_14
REMARK    4  A    between atoms: C_15  and  C_17
REMARK                            x       y       z     vdW  Elec       q    Type
REMARK                         _______ _______ _______ _____ _____    ______ ____
ROOT
ATOM      1  N   UNL     1      -0.405  10.906  19.331  0.00  0.00    +0.000 NA
ATOM      2  C   UNL     1      -0.073  12.088  19.739  0.00  0.00    +0.000 C 
ATOM      3  S   UNL     1       1.505  12.610  20.278  0.00  0.00    +0.000 S 
ATOM      4  C   UNL     1       0.881  13.895  21.223  0.00  0.00    +0.000 C 
ATOM      5  O   UNL     1       1.386  14.401  22.204  0.00  0.00    +0.000 OA
ATOM      6  C   UNL     1      -0.482  14.188  20.621  0.00  0.00    +0.000 C 
ATOM      7  O   UNL     1      -1.103  15.203  20.889  0.00  0.00    +0.000 OA
ATOM      8  N   UNL     1      -0.928  13.151  19.849  0.00  0.00    +0.000 N 
ENDROOT
BRANCH   1  13
ATOM      9  C   UNL     1       3.249   6.474  19.073  0.00  0.00    +0.000 C 
ATOM     10  C   UNL     1       2.305   7.637  19.151  0.00  0.00    +0.000 A 
ATOM     11  C   UNL     1       1.628   7.959  20.331  0.00  0.00    +0.000 A 
ATOM     12  C   UNL     1       0.748   9.054  20.369  0.00  0.00    +0.000 A 
ATOM     13  C   UNL     1       0.512   9.836  19.235  0.00  0.00    +0.000 A 
ATOM     14  C   UNL     1       1.145   9.459  18.045  0.00  0.00    +0.000 A 
ATOM     15  C   UNL     1       2.060   8.402  18.008  0.00  0.00    +0.000 A 
ENDBRANCH   1  13
BRANCH   8  16
ATOM     16  N   UNL     1      -2.282  13.183  19.424  0.00  0.00    +0.000 N 
ATOM     17  C   UNL     1      -3.260  12.659  20.251  0.00  0.00    +0.000 C 
ATOM     18  O   UNL     1      -3.121  12.432  21.446  0.00  0.00    +0.000 OA
ATOM     19  H   UNL     1      -2.403  13.132  18.414  0.00  0.00    +0.000 HD
BRANCH  17  20
ATOM     20  C   UNL     1      -4.565  12.326  19.616  0.00  0.00    +0.000 A 
ATOM     21  C   UNL     1      -5.778  12.539  20.270  0.00  0.00    +0.000 A 
ATOM     22  C   UNL     1      -6.943  12.316  19.548  0.00  0.00    +0.000 A 
ATOM     23  N   UNL     1      -6.965  11.898  18.266  0.00  0.00    +0.000 NA
ATOM     24  C   UNL     1      -5.776  11.702  17.660  0.00  0.00    +0.000 A 
ATOM     25  C   UNL     1      -4.560  11.902  18.285  0.00  0.00    +0.000 A 
ENDBRANCH  17  20
ENDBRANCH   8  16
TORSDOF 3
ENDMDL
MODEL 8
REMARK VINA RESULT:      -7.0      6.147     10.511
REMARK  Name = 
REMARK  4 active torsions:
REMARK  status: ('A' for Active; 'I' for Inactive)
REMARK    1  A    between atoms: C_1  and  C_2
REMARK    2  A    between atoms: C_5  and  N_6
REMARK    3  A    between atoms: N_13  and  N_14
REMARK    4  A    between atoms: C_15  and  C_17
REMARK                            x       y       z     vdW  Elec       q    Type
REMARK                         _______ _______ _______ _____ _____    ______ ____
ROOT
ATOM      1  N   UNL     1       0.011  10.833  19.033  0.00  0.00    +0.000 NA
ATOM      2  C   UNL     1       0.462  12.028  18.824  0.00  0.00    +0.000 C 
ATOM      3  S   UNL     1       2.123  12.492  18.544  0.00  0.00    +0.000 S 
ATOM      4  C   UNL     1       1.883  14.099  19.089  0.00  0.00    +0.000 C 
ATOM      5  O   UNL     1       2.713  14.846  19.567  0.00  0.00    +0.000 OA
ATOM      6  C   UNL     1       0.393  14.339  18.935  0.00  0.00    +0.000 C 
ATOM      7  O   UNL     1      -0.093  15.456  18.999  0.00  0.00    +0.000 OA
ATOM      8  N   UNL     1      -0.300  13.165  18.815  0.00  0.00    +0.000 N 
ENDROOT
BRANCH   1  13
ATOM      9  C   UNL     1       3.284   6.108  19.178  0.00  0.00    +0.000 C 
ATOM     10  C   UNL     1       2.440   7.347  19.151  0.00  0.00    +0.000 A 
ATOM     11  C   UNL     1       1.801   7.830  20.296  0.00  0.00    +0.000 A 
ATOM     12  C   UNL     1       1.015   8.994  20.235  0.00  0.00    +0.000 A 
ATOM     13  C   UNL     1       0.835   9.687  19.035  0.00  0.00    +0.000 A 
ATOM     14  C   UNL     1       1.426   9.152  17.883  0.00  0.00    +0.000 A 
ATOM     15  C   UNL     1       2.250   8.024  17.943  0.00  0.00    +0.000 A 
ENDBRANCH   1  13
BRANCH   8  16
ATOM     16  N   UNL     1      -1.715  13.225  18.908  0.00  0.00    +0.000 N 
ATOM     17  C   UNL     1      -2.322  12.975  20.126  0.00  0.00    +0.000 C 
ATOM     18  O   UNL     1      -1.754  12.993  21.210  0.00  0.00    +0.000 OA
ATOM     19  H   UNL     1      -2.200  12.973  18.048  0.00  0.00    +0.000 HD
BRANCH  17  20
ATOM     20  C   UNL     1      -3.771  12.631  20.094  0.00  0.00    +0.000 A 
ATOM     21  C   UNL     1      -4.358  12.019  18.987  0.00  0.00    +0.000 A 
ATOM     22  C   UNL     1      -5.683  11.623  19.101  0.00  0.00    +0.000 A 
ATOM     23  N   UNL     1      -6.430  11.807  20.210  0.00  0.00    +0.000 NA
ATOM     24  C   UNL     1      -5.834  12.400  21.264  0.00  0.00    +0.000 A 
ATOM     25  C   UNL     1      -4.518  12.824  21.257  0.00  0.00    +0.000 A 
ENDBRANCH  17  20
ENDBRANCH   8  16
TORSDOF 3
ENDMDL
MODEL 9
REMARK VINA RESULT:      -7.0      5.149      7.467
REMARK  Name = 
REMARK  4 active torsions:
REMARK  status: ('A' for Active; 'I' for Inactive)
REMARK    1  A    between atoms: C_1  and  C_2
REMARK    2  A    between atoms: C_5  and  N_6
REMARK    3  A    between atoms: N_13  and  N_14
REMARK    4  A    between atoms: C_15  and  C_17
REMARK                            x       y       z     vdW  Elec       q    Type
REMARK                         _______ _______ _______ _____ _____    ______ ____
ROOT
ATOM      1  N   UNL     1      -0.947  11.434  21.505  0.00  0.00    +0.000 NA
ATOM      2  C   UNL     1      -1.240  11.427  20.245  0.00  0.00    +0.000 C 
ATOM      3  S   UNL     1      -2.286  12.544  19.400  0.00  0.00    +0.000 S 
ATOM      4  C   UNL     1      -2.638  11.436  18.142  0.00  0.00    +0.000 C 
ATOM      5  O   UNL     1      -3.633  11.404  17.447  0.00  0.00    +0.000 OA
ATOM      6  C   UNL     1      -1.481  10.454  18.159  0.00  0.00    +0.000 C 
ATOM      7  O   UNL     1      -1.280   9.675  17.241  0.00  0.00    +0.000 OA
ATOM      8  N   UNL     1      -0.791  10.504  19.339  0.00  0.00    +0.000 N 
ENDROOT
BRANCH   1  13
ATOM      9  C   UNL     1      -3.024  15.272  25.249  0.00  0.00    +0.000 C 
ATOM     10  C   UNL     1      -2.495  14.273  24.264  0.00  0.00    +0.000 A 
ATOM     11  C   UNL     1      -3.174  13.083  23.983  0.00  0.00    +0.000 A 
ATOM     12  C   UNL     1      -2.649  12.167  23.056  0.00  0.00    +0.000 A 
ATOM     13  C   UNL     1      -1.436  12.406  22.405  0.00  0.00    +0.000 A 
ATOM     14  C   UNL     1      -0.735  13.570  22.748  0.00  0.00    +0.000 A 
ATOM     15  C   UNL     1      -1.273  14.511  23.632  0.00  0.00    +0.000 A 
ENDBRANCH   1  13
BRANCH   8  16
ATOM     16  N   UNL     1       0.158   9.479  19.589  0.00  0.00    +0.000 N 
ATOM     17  C   UNL     1       1.380   9.519  18.940  0.00  0.00    +0.000 C 
ATOM     18  O   UNL     1       1.851  10.506  18.391  0.00  0.00    +0.000 OA
ATOM     19  H   UNL     1      -0.255   8.577  19.819  0.00  0.00    +0.000 HD
BRANCH  17  20
ATOM     20  C   UNL     1       2.153   8.247  18.892  0.00  0.00    +0.000 A 
ATOM     21  C   UNL     1       2.014   7.262  19.869  0.00  0.00    +0.000 A 
ATOM     22  C   UNL     1       2.681   6.062  19.669  0.00  0.00    +0.000 A 
ATOM     23  N   UNL     1       3.458   5.803  18.597  0.00  0.00    +0.000 NA
ATOM     24  C   UNL     1       3.572   6.774  17.668  0.00  0.00    +0.000 A 
ATOM     25  C   UNL     1       2.944   8.001  17.767  0.00  0.00    +0.000 A 
ENDBRANCH  17  20
ENDBRANCH   8  16
TORSDOF 3
ENDMDL
