MODEL 1
REMARK VINA RESULT:      -7.8      0.000      0.000
REMARK  Name = 
REMARK  5 active torsions:
REMARK  status: ('A' for Active; 'I' for Inactive)
REMARK    1  A    between atoms: C_2  and  C_10
REMARK    2  A    between atoms: N_3  and  C_4
REMARK    3  A    between atoms: C_4  and  C_5
REMARK    4  A    between atoms: C_15  and  S_16
REMARK    5  A    between atoms: S_16  and  N_19
REMARK                            x       y       z     vdW  Elec       q    Type
REMARK                         _______ _______ _______ _____ _____    ______ ____
ROOT
ATOM      1  C   UNL     1       2.305   7.048  19.151  0.00  0.00    +0.000 A 
ATOM      2  C   UNL     1       1.617   6.768  20.339  0.00  0.00    +0.000 A 
ATOM      3  C   UNL     1       1.784   5.532  20.971  0.00  0.00    +0.000 A 
ATOM      4  C   UNL     1       2.619   4.571  20.409  0.00  0.00    +0.000 A 
ATOM      5  F   UNL     1       2.719   3.387  21.029  0.00  0.00    +0.000 F 
ATOM      6  C   UNL     1       3.292   4.831  19.220  0.00  0.00    +0.000 A 
ATOM      7  C   UNL     1       3.148   6.081  18.598  0.00  0.00    +0.000 A 
ENDROOT
BRANCH   1   9
ATOM      8  O   UNL     1       2.549   8.575  17.387  0.00  0.00    +0.000 OA
ATOM      9  C   UNL     1       2.065   8.361  18.492  0.00  0.00    +0.000 C 
ATOM     10  N   UNL     1       1.297   9.267  19.173  0.00  0.00    +0.000 N 
ATOM     11  H   UNL     1       0.883   9.060  20.073  0.00  0.00    +0.000 HD
BRANCH  10  12
ATOM     12  C   UNL     1       1.076  10.597  18.656  0.00  0.00    +0.000 C 
BRANCH  12  13
ATOM     13  C   UNL     1      -0.381  10.801  18.477  0.00  0.00    +0.000 A 
ATOM     14  C   UNL     1      -1.341  10.140  17.741  0.00  0.00    +0.000 A 
ATOM     15  C   UNL     1      -2.564  10.810  17.987  0.00  0.00    +0.000 A 
ATOM     16  C   UNL     1      -2.273  11.833  18.859  0.00  0.00    +0.000 A 
ATOM     17  O   UNL     1      -0.950  11.836  19.165  0.00  0.00    +0.000 OA
ENDBRANCH  12  13
ENDBRANCH  10  12
ENDBRANCH   1   9
BRANCH   6  18
ATOM     18  S   UNL     1       4.431   3.649  18.534  0.00  0.00    +0.000 S 
ATOM     19  O   UNL     1       5.435   3.417  19.551  0.00  0.00    +0.000 OA
ATOM     20  O   UNL     1       3.674   2.547  17.986  0.00  0.00    +0.000 OA
BRANCH  18  21
ATOM     21  N   UNL     1       5.196   4.488  17.238  0.00  0.00    +0.000 NA
ATOM     22  C   UNL     1       6.577   4.949  17.534  0.00  0.00    +0.000 C 
ATOM     23  C   UNL     1       7.229   5.682  16.369  0.00  0.00    +0.000 C 
ATOM     24  C   UNL     1       7.098   4.899  15.075  0.00  0.00    +0.000 C 
ATOM     25  C   UNL     1       5.624   4.702  14.771  0.00  0.00    +0.000 C 
ATOM     26  C   UNL     1       4.928   3.933  15.886  0.00  0.00    +0.000 C 
ENDBRANCH  18  21
ENDBRANCH   6  18
TORSDOF 5
ENDMDL
MODEL 2
REMARK VINA RESULT:      -7.5      2.542      3.167
REMARK  Name = 
REMARK  5 active torsions:
REMARK  status: ('A' for Active; 'I' for Inactive)
REMARK    1  A    between atoms: C_2  and  C_10
REMARK    2  A    between atoms: N_3  and  C_4
REMARK    3  A    between atoms: C_4  and  C_5
REMARK    4  A    between atoms: C_15  and  S_16
REMARK    5  A    between atoms: S_16  and  N_19
REMARK                            x       y       z     vdW  Elec       q    Type
REMARK                         _______ _______ _______ _____ _____    ______ ____
ROOT
ATOM      1  C   UNL     1       3.238   6.974  18.042  0.00  0.00    +0.000 A 
ATOM      2  C   UNL     1       2.702   5.810  18.610  0.00  0.00    +0.000 A 
ATOM      3  C   UNL     1       3.410   4.607  18.543  0.00  0.00    +0.000 A 
ATOM      4  C   UNL     1       4.641   4.560  17.894  0.00  0.00    +0.000 A 
ATOM      5  F   UNL     1       5.267   3.377  17.822  0.00  0.00    +0.000 F 
ATOM      6  C   UNL     1       5.173   5.704  17.310  0.00  0.00    +0.000 A 
ATOM      7  C   UNL     1       4.477   6.920  17.400  0.00  0.00    +0.000 A 
ENDROOT
BRANCH   1   9
ATOM      8  O   UNL     1       2.409   8.971  17.132  0.00  0.00    +0.000 OA
ATOM      9  C   UNL     1       2.430   8.223  18.102  0.00  0.00    +0.000 C 
ATOM     10  N   UNL     1       1.739   8.461  19.260  0.00  0.00    +0.000 N 
ATOM     11  H   UNL     1       1.748   7.816  20.040  0.00  0.00    +0.000 HD
BRANCH  10  12
ATOM     12  C   UNL     1       0.995   9.684  19.447  0.00  0.00    +0.000 C 
BRANCH  12  13
ATOM     13  C   UNL     1       0.422   9.687  20.814  0.00  0.00    +0.000 A 
ATOM     14  C   UNL     1       0.274   8.709  21.775  0.00  0.00    +0.000 A 
ATOM     15  C   UNL     1      -0.345   9.332  22.886  0.00  0.00    +0.000 A 
ATOM     16  C   UNL     1      -0.530  10.648  22.534  0.00  0.00    +0.000 A 
ATOM     17  O   UNL     1      -0.066  10.876  21.278  0.00  0.00    +0.000 OA
ENDBRANCH  12  13
ENDBRANCH  10  12
ENDBRANCH   1   9
BRANCH   6  18
ATOM     18  S   UNL     1       6.783   5.683  16.554  0.00  0.00    +0.000 S 
ATOM     19  O   UNL     1       7.263   7.050  16.586  0.00  0.00    +0.000 OA
ATOM     20  O   UNL     1       7.558   4.621  17.152  0.00  0.00    +0.000 OA
BRANCH  18  21
ATOM     21  N   UNL     1       6.482   5.282  14.905  0.00  0.00    +0.000 NA
ATOM     22  C   UNL     1       7.690   5.294  14.040  0.00  0.00    +0.000 C 
ATOM     23  C   UNL     1       7.394   4.931  12.591  0.00  0.00    +0.000 C 
ATOM     24  C   UNL     1       6.569   3.659  12.492  0.00  0.00    +0.000 C 
ATOM     25  C   UNL     1       5.257   3.872  13.226  0.00  0.00    +0.000 C 
ATOM     26  C   UNL     1       5.492   4.196  14.695  0.00  0.00    +0.000 C 
ENDBRANCH  18  21
ENDBRANCH   6  18
TORSDOF 5
ENDMDL
MODEL 3
REMARK VINA RESULT:      -7.5      0.777      1.454
REMARK  Name = 
REMARK  5 active torsions:
REMARK  status: ('A' for Active; 'I' for Inactive)
REMARK    1  A    between atoms: C_2  and  C_10
REMARK    2  A    between atoms: N_3  and  C_4
REMARK    3  A    between atoms: C_4  and  C_5
REMARK    4  A    between atoms: C_15  and  S_16
REMARK    5  A    between atoms: S_16  and  N_19
REMARK                            x       y       z     vdW  Elec       q    Type
REMARK                         _______ _______ _______ _____ _____    ______ ____
ROOT
ATOM      1  C   UNL     1       2.396   6.861  19.221  0.00  0.00    +0.000 A 
ATOM      2  C   UNL     1       1.663   6.599  20.386  0.00  0.00    +0.000 A 
ATOM      3  C   UNL     1       1.822   5.381  21.054  0.00  0.00    +0.000 A 
ATOM      4  C   UNL     1       2.695   4.421  20.551  0.00  0.00    +0.000 A 
ATOM      5  F   UNL     1       2.788   3.254  21.204  0.00  0.00    +0.000 F 
ATOM      6  C   UNL     1       3.413   4.663  19.385  0.00  0.00    +0.000 A 
ATOM      7  C   UNL     1       3.277   5.896  18.727  0.00  0.00    +0.000 A 
ENDROOT
BRANCH   1   9
ATOM      8  O   UNL     1       2.635   8.324  17.402  0.00  0.00    +0.000 OA
ATOM      9  C   UNL     1       2.164   8.154  18.520  0.00  0.00    +0.000 C 
ATOM     10  N   UNL     1       1.416   9.093  19.179  0.00  0.00    +0.000 N 
ATOM     11  H   UNL     1       1.012   8.922  20.091  0.00  0.00    +0.000 HD
BRANCH  10  12
ATOM     12  C   UNL     1       1.205  10.408  18.620  0.00  0.00    +0.000 C 
BRANCH  12  13
ATOM     13  C   UNL     1      -0.253  10.662  18.543  0.00  0.00    +0.000 A 
ATOM     14  C   UNL     1      -1.252  10.179  17.723  0.00  0.00    +0.000 A 
ATOM     15  C   UNL     1      -2.451  10.799  18.149  0.00  0.00    +0.000 A 
ATOM     16  C   UNL     1      -2.110  11.616  19.201  0.00  0.00    +0.000 A 
ATOM     17  O   UNL     1      -0.776  11.539  19.450  0.00  0.00    +0.000 OA
ENDBRANCH  12  13
ENDBRANCH  10  12
ENDBRANCH   1   9
BRANCH   6  18
ATOM     18  S   UNL     1       4.598   3.484  18.776  0.00  0.00    +0.000 S 
ATOM     19  O   UNL     1       5.053   2.734  19.929  0.00  0.00    +0.000 OA
ATOM     20  O   UNL     1       4.024   2.803  17.639  0.00  0.00    +0.000 OA
BRANCH  18  21
ATOM     21  N   UNL     1       5.922   4.443  18.231  0.00  0.00    +0.000 NA
ATOM     22  C   UNL     1       5.750   5.012  16.870  0.00  0.00    +0.000 C 
ATOM     23  C   UNL     1       6.932   5.859  16.419  0.00  0.00    +0.000 C 
ATOM     24  C   UNL     1       7.325   6.877  17.475  0.00  0.00    +0.000 C 
ATOM     25  C   UNL     1       7.702   6.140  18.746  0.00  0.00    +0.000 C 
ATOM     26  C   UNL     1       6.539   5.309  19.269  0.00  0.00    +0.000 C 
ENDBRANCH  18  21
ENDBRANCH   6  18
TORSDOF 5
ENDMDL
MODEL 4
REMARK VINA RESULT:      -7.5      4.290      8.167
REMARK  Name = 
REMARK  5 active torsions:
REMARK  status: ('A' for Active; 'I' for Inactive)
REMARK    1  A    between atoms: C_2  and  C_10
REMARK    2  A    between atoms: N_3  and  C_4
REMARK    3  A    between atoms: C_4  and  C_5
REMARK    4  A    between atoms: C_15  and  S_16
REMARK    5  A    between atoms: S_16  and  N_19
REMARK                            x       y       z     vdW  Elec       q    Type
REMARK                         _______ _______ _______ _____ _____    ______ ____
ROOT
ATOM      1  C   UNL     1       5.628   5.210  15.958  0.00  0.00    +0.000 A 
ATOM      2  C   UNL     1       5.696   6.473  16.561  0.00  0.00    +0.000 A 
ATOM      3  C   UNL     1       4.707   6.871  17.465  0.00  0.00    +0.000 A 
ATOM      4  C   UNL     1       3.642   6.022  17.750  0.00  0.00    +0.000 A 
ATOM      5  F   UNL     1       2.698   6.461  18.593  0.00  0.00    +0.000 F 
ATOM      6  C   UNL     1       3.554   4.774  17.142  0.00  0.00    +0.000 A 
ATOM      7  C   UNL     1       4.561   4.359  16.256  0.00  0.00    +0.000 A 
ENDROOT
BRANCH   1   9
ATOM      8  O   UNL     1       7.841   4.724  15.348  0.00  0.00    +0.000 OA
ATOM      9  C   UNL     1       6.681   4.843  14.971  0.00  0.00    +0.000 C 
ATOM     10  N   UNL     1       6.280   4.651  13.676  0.00  0.00    +0.000 N 
ATOM     11  H   UNL     1       5.312   4.727  13.391  0.00  0.00    +0.000 HD
BRANCH  10  12
ATOM     12  C   UNL     1       7.237   4.376  12.630  0.00  0.00    +0.000 C 
BRANCH  12  13
ATOM     13  C   UNL     1       6.842   3.124  11.943  0.00  0.00    +0.000 A 
ATOM     14  C   UNL     1       7.555   2.152  11.273  0.00  0.00    +0.000 A 
ATOM     15  C   UNL     1       6.610   1.191  10.839  0.00  0.00    +0.000 A 
ATOM     16  C   UNL     1       5.384   1.635  11.276  0.00  0.00    +0.000 A 
ATOM     17  O   UNL     1       5.513   2.808  11.949  0.00  0.00    +0.000 OA
ENDBRANCH  12  13
ENDBRANCH  10  12
ENDBRANCH   1   9
BRANCH   6  18
ATOM     18  S   UNL     1       2.249   3.640  17.560  0.00  0.00    +0.000 S 
ATOM     19  O   UNL     1       1.007   4.326  17.269  0.00  0.00    +0.000 OA
ATOM     20  O   UNL     1       2.539   2.362  16.951  0.00  0.00    +0.000 OA
BRANCH  18  21
ATOM     21  N   UNL     1       2.354   3.470  19.271  0.00  0.00    +0.000 NA
ATOM     22  C   UNL     1       1.044   3.471  19.970  0.00  0.00    +0.000 C 
ATOM     23  C   UNL     1       1.168   3.314  21.480  0.00  0.00    +0.000 C 
ATOM     24  C   UNL     1       2.069   2.148  21.847  0.00  0.00    +0.000 C 
ATOM     25  C   UNL     1       3.448   2.394  21.261  0.00  0.00    +0.000 C 
ATOM     26  C   UNL     1       3.389   2.516  19.745  0.00  0.00    +0.000 C 
ENDBRANCH  18  21
ENDBRANCH   6  18
TORSDOF 5
ENDMDL
MODEL 5
REMARK VINA RESULT:      -7.5      3.087      3.748
REMARK  Name = 
REMARK  5 active torsions:
REMARK  status: ('A' for Active; 'I' for Inactive)
REMARK    1  A    between atoms: C_2  and  C_10
REMARK    2  A    between atoms: N_3  and  C_4
REMARK    3  A    between atoms: C_4  and  C_5
REMARK    4  A    between atoms: C_15  and  S_16
REMARK    5  A    between atoms: S_16  and  N_19
REMARK                            x       y       z     vdW  Elec       q    Type
REMARK                         _______ _______ _______ _____ _____    ______ ____
ROOT
ATOM      1  C   UNL     1       1.437   8.824  20.470  0.00  0.00    +0.000 A 
ATOM      2  C   UNL     1       1.400   9.718  19.392  0.00  0.00    +0.000 A 
ATOM      3  C   UNL     1       1.874   9.322  18.138  0.00  0.00    +0.000 A 
ATOM      4  C   UNL     1       2.403   8.046  17.965  0.00  0.00    +0.000 A 
ATOM      5  F   UNL     1       2.880   7.723  16.755  0.00  0.00    +0.000 F 
ATOM      6  C   UNL     1       2.462   7.158  19.033  0.00  0.00    +0.000 A 
ATOM      7  C   UNL     1       1.960   7.542  20.287  0.00  0.00    +0.000 A 
ENDROOT
BRANCH   1   9
ATOM      8  O   UNL     1       1.754   9.398  22.723  0.00  0.00    +0.000 OA
ATOM      9  C   UNL     1       0.958   9.302  21.797  0.00  0.00    +0.000 C 
ATOM     10  N   UNL     1      -0.370   9.620  21.901  0.00  0.00    +0.000 N 
ATOM     11  H   UNL     1      -1.006   9.560  21.115  0.00  0.00    +0.000 HD
BRANCH  10  12
ATOM     12  C   UNL     1      -0.948  10.012  23.165  0.00  0.00    +0.000 C 
BRANCH  12  13
ATOM     13  C   UNL     1      -1.369  11.430  23.074  0.00  0.00    +0.000 A 
ATOM     14  C   UNL     1      -2.593  12.058  23.176  0.00  0.00    +0.000 A 
ATOM     15  C   UNL     1      -2.347  13.442  23.005  0.00  0.00    +0.000 A 
ATOM     16  C   UNL     1      -0.991  13.570  22.815  0.00  0.00    +0.000 A 
ATOM     17  O   UNL     1      -0.386  12.354  22.857  0.00  0.00    +0.000 OA
ENDBRANCH  12  13
ENDBRANCH  10  12
ENDBRANCH   1   9
BRANCH   6  18
ATOM     18  S   UNL     1       3.052   5.494  18.812  0.00  0.00    +0.000 S 
ATOM     19  O   UNL     1       3.132   4.913  20.137  0.00  0.00    +0.000 OA
ATOM     20  O   UNL     1       2.262   4.861  17.781  0.00  0.00    +0.000 OA
BRANCH  18  21
ATOM     21  N   UNL     1       4.664   5.680  18.233  0.00  0.00    +0.000 NA
ATOM     22  C   UNL     1       5.716   5.353  19.230  0.00  0.00    +0.000 C 
ATOM     23  C   UNL     1       7.130   5.521  18.688  0.00  0.00    +0.000 C 
ATOM     24  C   UNL     1       7.301   4.823  17.351  0.00  0.00    +0.000 C 
ATOM     25  C   UNL     1       6.318   5.420  16.360  0.00  0.00    +0.000 C 
ATOM     26  C   UNL     1       4.882   5.242  16.831  0.00  0.00    +0.000 C 
ENDBRANCH  18  21
ENDBRANCH   6  18
TORSDOF 5
ENDMDL
MODEL 6
REMARK VINA RESULT:      -7.4      1.267      1.444
REMARK  Name = 
REMARK  5 active torsions:
REMARK  status: ('A' for Active; 'I' for Inactive)
REMARK    1  A    between atoms: C_2  and  C_10
REMARK    2  A    between atoms: N_3  and  C_4
REMARK    3  A    between atoms: C_4  and  C_5
REMARK    4  A    between atoms: C_15  and  S_16
REMARK    5  A    between atoms: S_16  and  N_19
REMARK                            x       y       z     vdW  Elec       q    Type
REMARK                         _______ _______ _______ _____ _____    ______ ____
ROOT
ATOM      1  C   UNL     1       2.062   6.246  19.867  0.00  0.00    +0.000 A 
ATOM      2  C   UNL     1       1.069   5.597  20.613  0.00  0.00    +0.000 A 
ATOM      3  C   UNL     1       1.081   4.204  20.733  0.00  0.00    +0.000 A 
ATOM      4  C   UNL     1       2.069   3.460  20.095  0.00  0.00    +0.000 A 
ATOM      5  F   UNL     1       2.020   2.126  20.207  0.00  0.00    +0.000 F 
ATOM      6  C   UNL     1       3.048   4.093  19.337  0.00  0.00    +0.000 A 
ATOM      7  C   UNL     1       3.055   5.493  19.238  0.00  0.00    +0.000 A 
ENDROOT
BRANCH   1   9
ATOM      8  O   UNL     1       1.880   8.417  20.740  0.00  0.00    +0.000 OA
ATOM      9  C   UNL     1       1.985   7.727  19.733  0.00  0.00    +0.000 C 
ATOM     10  N   UNL     1       2.045   8.240  18.464  0.00  0.00    +0.000 N 
ATOM     11  H   UNL     1       2.160   7.654  17.647  0.00  0.00    +0.000 HD
BRANCH  10  12
ATOM     12  C   UNL     1       1.895   9.656  18.223  0.00  0.00    +0.000 C 
BRANCH  12  13
ATOM     13  C   UNL     1       0.459  10.006  18.325  0.00  0.00    +0.000 A 
ATOM     14  C   UNL     1      -0.264  10.762  19.224  0.00  0.00    +0.000 A 
ATOM     15  C   UNL     1      -1.609  10.730  18.781  0.00  0.00    +0.000 A 
ATOM     16  C   UNL     1      -1.619   9.961  17.641  0.00  0.00    +0.000 A 
ATOM     17  O   UNL     1      -0.368   9.517  17.353  0.00  0.00    +0.000 OA
ENDBRANCH  12  13
ENDBRANCH  10  12
ENDBRANCH   1   9
BRANCH   6  18
ATOM     18  S   UNL     1       4.369   3.167  18.587  0.00  0.00    +0.000 S 
ATOM     19  O   UNL     1       5.295   2.846  19.655  0.00  0.00    +0.000 OA
ATOM     20  O   UNL     1       3.793   2.118  17.779  0.00  0.00    +0.000 OA
BRANCH  18  21
ATOM     21  N   UNL     1       5.153   4.295  17.547  0.00  0.00    +0.000 NA
ATOM     22  C   UNL     1       6.524   4.675  17.975  0.00  0.00    +0.000 C 
ATOM     23  C   UNL     1       7.193   5.668  17.034  0.00  0.00    +0.000 C 
ATOM     24  C   UNL     1       7.095   5.219  15.587  0.00  0.00    +0.000 C 
ATOM     25  C   UNL     1       5.629   5.096  15.214  0.00  0.00    +0.000 C 
ATOM     26  C   UNL     1       4.917   4.080  16.097  0.00  0.00    +0.000 C 
ENDBRANCH  18  21
ENDBRANCH   6  18
TORSDOF 5
ENDMDL
MODEL 7
REMARK VINA RESULT:      -7.3      1.698      1.862
REMARK  Name = 
REMARK  5 active torsions:
REMARK  status: ('A' for Active; 'I' for Inactive)
REMARK    1  A    between atoms: C_2  and  C_10
REMARK    2  A    between atoms: N_3  and  C_4
REMARK    3  A    between atoms: C_4  and  C_5
REMARK    4  A    between atoms: C_15  and  S_16
REMARK    5  A    between atoms: S_16  and  N_19
REMARK                            x       y       z     vdW  Elec       q    Type
REMARK                         _______ _______ _______ _____ _____    ______ ____
ROOT
ATOM      1  C   UNL     1       1.853   6.370  20.235  0.00  0.00    +0.000 A 
ATOM      2  C   UNL     1       0.894   5.441  20.660  0.00  0.00    +0.000 A 
ATOM      3  C   UNL     1       1.102   4.074  20.453  0.00  0.00    +0.000 A 
ATOM      4  C   UNL     1       2.254   3.636  19.806  0.00  0.00    +0.000 A 
ATOM      5  F   UNL     1       2.393   2.320  19.596  0.00  0.00    +0.000 F 
ATOM      6  C   UNL     1       3.203   4.550  19.362  0.00  0.00    +0.000 A 
ATOM      7  C   UNL     1       3.011   5.921  19.594  0.00  0.00    +0.000 A 
ENDROOT
BRANCH   1   9
ATOM      8  O   UNL     1       1.339   8.229  21.570  0.00  0.00    +0.000 OA
ATOM      9  C   UNL     1       1.571   7.817  20.440  0.00  0.00    +0.000 C 
ATOM     10  N   UNL     1       1.596   8.618  19.329  0.00  0.00    +0.000 N 
ATOM     11  H   UNL     1       1.818   8.262  18.408  0.00  0.00    +0.000 HD
BRANCH  10  12
ATOM     12  C   UNL     1       1.253  10.019  19.411  0.00  0.00    +0.000 C 
BRANCH  12  13
ATOM     13  C   UNL     1      -0.079  10.219  18.795  0.00  0.00    +0.000 A 
ATOM     14  C   UNL     1      -0.674   9.720  17.654  0.00  0.00    +0.000 A 
ATOM     15  C   UNL     1      -1.973  10.280  17.605  0.00  0.00    +0.000 A 
ATOM     16  C   UNL     1      -2.089  11.080  18.717  0.00  0.00    +0.000 A 
ATOM     17  O   UNL     1      -0.945  11.049  19.448  0.00  0.00    +0.000 OA
ENDBRANCH  12  13
ENDBRANCH  10  12
ENDBRANCH   1   9
BRANCH   6  18
ATOM     18  S   UNL     1       4.721   4.005  18.613  0.00  0.00    +0.000 S 
ATOM     19  O   UNL     1       5.376   3.160  19.591  0.00  0.00    +0.000 OA
ATOM     20  O   UNL     1       4.425   3.500  17.292  0.00  0.00    +0.000 OA
BRANCH  18  21
ATOM     21  N   UNL     1       5.666   5.437  18.455  0.00  0.00    +0.000 NA
ATOM     22  C   UNL     1       7.076   5.295  18.898  0.00  0.00    +0.000 C 
ATOM     23  C   UNL     1       7.887   6.574  18.742  0.00  0.00    +0.000 C 
ATOM     24  C   UNL     1       7.727   7.170  17.355  0.00  0.00    +0.000 C 
ATOM     25  C   UNL     1       6.260   7.484  17.126  0.00  0.00    +0.000 C 
ATOM     26  C   UNL     1       5.404   6.229  17.227  0.00  0.00    +0.000 C 
ENDBRANCH  18  21
ENDBRANCH   6  18
TORSDOF 5
ENDMDL
MODEL 8
REMARK VINA RESULT:      -7.3      3.328      8.180
REMARK  Name = 
REMARK  5 active torsions:
REMARK  status: ('A' for Active; 'I' for Inactive)
REMARK    1  A    between atoms: C_2  and  C_10
REMARK    2  A    between atoms: N_3  and  C_4
REMARK    3  A    between atoms: C_4  and  C_5
REMARK    4  A    between atoms: C_15  and  S_16
REMARK    5  A    between atoms: S_16  and  N_19
REMARK                            x       y       z     vdW  Elec       q    Type
REMARK                         _______ _______ _______ _____ _____    ______ ____
ROOT
ATOM      1  C   UNL     1       6.458   4.725  16.208  0.00  0.00    +0.000 A 
ATOM      2  C   UNL     1       7.335   5.031  17.257  0.00  0.00    +0.000 A 
ATOM      3  C   UNL     1       6.889   4.979  18.580  0.00  0.00    +0.000 A 
ATOM      4  C   UNL     1       5.566   4.642  18.856  0.00  0.00    +0.000 A 
ATOM      5  F   UNL     1       5.174   4.642  20.137  0.00  0.00    +0.000 F 
ATOM      6  C   UNL     1       4.683   4.355  17.822  0.00  0.00    +0.000 A 
ATOM      7  C   UNL     1       5.135   4.379  16.493  0.00  0.00    +0.000 A 
ENDROOT
BRANCH   1   9
ATOM      8  O   UNL     1       7.927   5.554  14.577  0.00  0.00    +0.000 OA
ATOM      9  C   UNL     1       6.965   4.833  14.812  0.00  0.00    +0.000 C 
ATOM     10  N   UNL     1       6.316   4.098  13.856  0.00  0.00    +0.000 N 
ATOM     11  H   UNL     1       5.540   3.486  14.076  0.00  0.00    +0.000 HD
BRANCH  10  12
ATOM     12  C   UNL     1       6.678   4.199  12.462  0.00  0.00    +0.000 C 
BRANCH  12  13
ATOM     13  C   UNL     1       6.452   2.885  11.816  0.00  0.00    +0.000 A 
ATOM     14  C   UNL     1       5.317   2.149  11.550  0.00  0.00    +0.000 A 
ATOM     15  C   UNL     1       5.750   0.967  10.901  0.00  0.00    +0.000 A 
ATOM     16  C   UNL     1       7.119   1.059  10.809  0.00  0.00    +0.000 A 
ATOM     17  O   UNL     1       7.556   2.221  11.361  0.00  0.00    +0.000 OA
ENDBRANCH  12  13
ENDBRANCH  10  12
ENDBRANCH   1   9
BRANCH   6  18
ATOM     18  S   UNL     1       3.014   3.837  18.158  0.00  0.00    +0.000 S 
ATOM     19  O   UNL     1       2.417   3.537  16.873  0.00  0.00    +0.000 OA
ATOM     20  O   UNL     1       3.046   2.839  19.202  0.00  0.00    +0.000 OA
BRANCH  18  21
ATOM     21  N   UNL     1       2.237   5.248  18.770  0.00  0.00    +0.000 NA
ATOM     22  C   UNL     1       1.987   5.226  20.234  0.00  0.00    +0.000 C 
ATOM     23  C   UNL     1       1.304   6.487  20.746  0.00  0.00    +0.000 C 
ATOM     24  C   UNL     1       2.007   7.740  20.253  0.00  0.00    +0.000 C 
ATOM     25  C   UNL     1       1.983   7.747  18.735  0.00  0.00    +0.000 C 
ATOM     26  C   UNL     1       2.692   6.526  18.166  0.00  0.00    +0.000 C 
ENDBRANCH  18  21
ENDBRANCH   6  18
TORSDOF 5
ENDMDL
MODEL 9
REMARK VINA RESULT:      -7.2      4.307      8.301
REMARK  Name = 
REMARK  5 active torsions:
REMARK  status: ('A' for Active; 'I' for Inactive)
REMARK    1  A    between atoms: C_2  and  C_10
REMARK    2  A    between atoms: N_3  and  C_4
REMARK    3  A    between atoms: C_4  and  C_5
REMARK    4  A    between atoms: C_15  and  S_16
REMARK    5  A    between atoms: S_16  and  N_19
REMARK                            x       y       z     vdW  Elec       q    Type
REMARK                         _______ _______ _______ _____ _____    ______ ____
ROOT
ATOM      1  C   UNL     1       6.398   5.163  15.924  0.00  0.00    +0.000 A 
ATOM      2  C   UNL     1       7.211   5.618  16.972  0.00  0.00    +0.000 A 
ATOM      3  C   UNL     1       6.684   5.752  18.259  0.00  0.00    +0.000 A 
ATOM      4  C   UNL     1       5.346   5.453  18.498  0.00  0.00    +0.000 A 
ATOM      5  F   UNL     1       4.875   5.632  19.740  0.00  0.00    +0.000 F 
ATOM      6  C   UNL     1       4.525   5.019  17.463  0.00  0.00    +0.000 A 
ATOM      7  C   UNL     1       5.058   4.857  16.174  0.00  0.00    +0.000 A 
ENDROOT
BRANCH   1   9
ATOM      8  O   UNL     1       8.059   5.629  14.334  0.00  0.00    +0.000 OA
ATOM      9  C   UNL     1       6.990   5.075  14.561  0.00  0.00    +0.000 C 
ATOM     10  N   UNL     1       6.292   4.359  13.626  0.00  0.00    +0.000 N 
ATOM     11  H   UNL     1       5.424   3.885  13.841  0.00  0.00    +0.000 HD
BRANCH  10  12
ATOM     12  C   UNL     1       6.740   4.284  12.255  0.00  0.00    +0.000 C 
BRANCH  12  13
ATOM     13  C   UNL     1       6.482   2.917  11.745  0.00  0.00    +0.000 A 
ATOM     14  C   UNL     1       5.330   2.182  11.562  0.00  0.00    +0.000 A 
ATOM     15  C   UNL     1       5.734   0.933  11.031  0.00  0.00    +0.000 A 
ATOM     16  C   UNL     1       7.103   0.987  10.920  0.00  0.00    +0.000 A 
ATOM     17  O   UNL     1       7.569   2.189  11.349  0.00  0.00    +0.000 OA
ENDBRANCH  12  13
ENDBRANCH  10  12
ENDBRANCH   1   9
BRANCH   6  18
ATOM     18  S   UNL     1       2.837   4.548  17.766  0.00  0.00    +0.000 S 
ATOM     19  O   UNL     1       2.066   5.775  17.757  0.00  0.00    +0.000 OA
ATOM     20  O   UNL     1       2.497   3.463  16.875  0.00  0.00    +0.000 OA
BRANCH  18  21
ATOM     21  N   UNL     1       2.837   3.953  19.383  0.00  0.00    +0.000 NA
ATOM     22  C   UNL     1       1.593   4.239  20.143  0.00  0.00    +0.000 C 
ATOM     23  C   UNL     1       1.620   3.696  21.566  0.00  0.00    +0.000 C 
ATOM     24  C   UNL     1       2.049   2.240  21.599  0.00  0.00    +0.000 C 
ATOM     25  C   UNL     1       3.439   2.128  21.001  0.00  0.00    +0.000 C 
ATOM     26  C   UNL     1       3.462   2.617  19.559  0.00  0.00    +0.000 C 
ENDBRANCH  18  21
ENDBRANCH   6  18
TORSDOF 5
ENDMDL
