MODEL 1
REMARK VINA RESULT:      -8.6      0.000      0.000
REMARK  Name = 
REMARK  12 active torsions:
REMARK  status: ('A' for Active; 'I' for Inactive)
REMARK    1  A    between atoms: C_2  and  C_3
REMARK    2  A    between atoms: C_2  and  O_22
REMARK    3  A    between atoms: C_3  and  C_4
REMARK    4  A    between atoms: C_4  and  C_5
REMARK    5  A    between atoms: C_7  and  C_8
REMARK    6  A    between atoms: C_14  and  C_15
REMARK    7  A    between atoms: O_22  and  C_23
REMARK    8  A    between atoms: C_25  and  C_26
REMARK    9  A    between atoms: C_26  and  O_28
REMARK   10  A    between atoms: C_29  and  O_30
REMARK   11  A    between atoms: C_31  and  O_32
REMARK   12  A    between atoms: C_33  and  O_34
REMARK                            x       y       z     vdW  Elec       q    Type
REMARK                         _______ _______ _______ _____ _____    ______ ____
ROOT
ATOM      1  O   UNL     1       4.386   7.242  16.964  0.00  0.00    +0.000 OA
ATOM      2  C   UNL     1       3.562   6.782  17.740  0.00  0.00    +0.000 C 
ENDROOT
BRANCH   2   3
ATOM      3  C   UNL     1       2.578   7.625  18.520  0.00  0.00    +0.000 C 
BRANCH   3   4
ATOM      4  C   UNL     1       2.247   8.922  17.785  0.00  0.00    +0.000 C 
BRANCH   4   5
ATOM      5  C   UNL     1       1.129   9.649  18.446  0.00  0.00    +0.000 A 
ATOM      6  N   UNL     1       1.136  10.237  19.614  0.00  0.00    +0.000 NA
ATOM      7  C   UNL     1      -0.115  10.802  19.704  0.00  0.00    +0.000 A 
ATOM      8  C   UNL     1      -0.844  10.527  18.561  0.00  0.00    +0.000 A 
ATOM      9  O   UNL     1      -0.045   9.751  17.750  0.00  0.00    +0.000 OA
BRANCH   7  10
ATOM     10  C   UNL     1      -0.521  11.576  20.859  0.00  0.00    +0.000 A 
ATOM     11  C   UNL     1      -0.367  12.968  20.842  0.00  0.00    +0.000 A 
ATOM     12  C   UNL     1      -0.768  13.733  21.939  0.00  0.00    +0.000 A 
ATOM     13  C   UNL     1      -1.318  13.115  23.060  0.00  0.00    +0.000 A 
ATOM     14  C   UNL     1      -1.460  11.729  23.092  0.00  0.00    +0.000 A 
ATOM     15  C   UNL     1      -1.052  10.962  21.999  0.00  0.00    +0.000 A 
ENDBRANCH   7  10
BRANCH   8  16
ATOM     16  C   UNL     1      -2.155  10.881  18.025  0.00  0.00    +0.000 A 
ATOM     17  C   UNL     1      -3.084  11.575  18.816  0.00  0.00    +0.000 A 
ATOM     18  C   UNL     1      -4.358  11.878  18.331  0.00  0.00    +0.000 A 
ATOM     19  C   UNL     1      -4.715  11.508  17.038  0.00  0.00    +0.000 A 
ATOM     20  C   UNL     1      -3.800  10.837  16.231  0.00  0.00    +0.000 A 
ATOM     21  C   UNL     1      -2.527  10.525  16.722  0.00  0.00    +0.000 A 
ENDBRANCH   8  16
ENDBRANCH   4   5
ENDBRANCH   3   4
ENDBRANCH   2   3
BRANCH   2  22
ATOM     22  O   UNL     1       3.333   5.457  17.962  0.00  0.00    +0.000 OA
BRANCH  22  23
ATOM     23  C   UNL     1       4.213   4.818  18.904  0.00  0.00    +0.000 C 
ATOM     24  O   UNL     1       3.505   4.455  20.094  0.00  0.00    +0.000 OA
ATOM     25  C   UNL     1       2.433   3.529  19.905  0.00  0.00    +0.000 C 
ATOM     26  C   UNL     1       2.921   2.240  19.238  0.00  0.00    +0.000 C 
ATOM     27  C   UNL     1       3.738   2.536  17.977  0.00  0.00    +0.000 C 
ATOM     28  C   UNL     1       4.841   3.561  18.266  0.00  0.00    +0.000 C 
BRANCH  25  29
ATOM     29  C   UNL     1       1.782   3.200  21.264  0.00  0.00    +0.000 C 
ATOM     30  O   UNL     1       2.364   3.275  22.341  0.00  0.00    +0.000 OA
BRANCH  29  31
ATOM     31  O   UNL     1       0.475   2.850  21.206  0.00  0.00    +0.000 OA
ATOM     32  H   UNL     1       0.331   1.906  20.945  0.00  0.00    +0.000 HD
ENDBRANCH  29  31
ENDBRANCH  25  29
BRANCH  26  33
ATOM     33  O   UNL     1       1.769   1.428  18.918  0.00  0.00    +0.000 OA
ATOM     34  H   UNL     1       1.946   0.985  18.061  0.00  0.00    +0.000 HD
ENDBRANCH  26  33
BRANCH  27  35
ATOM     35  O   UNL     1       4.264   1.298  17.474  0.00  0.00    +0.000 OA
ATOM     36  H   UNL     1       4.970   1.496  16.831  0.00  0.00    +0.000 HD
ENDBRANCH  27  35
BRANCH  28  37
ATOM     37  O   UNL     1       5.570   3.859  17.072  0.00  0.00    +0.000 OA
ATOM     38  H   UNL     1       6.509   3.965  17.304  0.00  0.00    +0.000 HD
ENDBRANCH  28  37
ENDBRANCH  22  23
ENDBRANCH   2  22
TORSDOF 12
ENDMDL
MODEL 2
REMARK VINA RESULT:      -8.4      2.988      9.711
REMARK  Name = 
REMARK  12 active torsions:
REMARK  status: ('A' for Active; 'I' for Inactive)
REMARK    1  A    between atoms: C_2  and  C_3
REMARK    2  A    between atoms: C_2  and  O_22
REMARK    3  A    between atoms: C_3  and  C_4
REMARK    4  A    between atoms: C_4  and  C_5
REMARK    5  A    between atoms: C_7  and  C_8
REMARK    6  A    between atoms: C_14  and  C_15
REMARK    7  A    between atoms: O_22  and  C_23
REMARK    8  A    between atoms: C_25  and  C_26
REMARK    9  A    between atoms: C_26  and  O_28
REMARK   10  A    between atoms: C_29  and  O_30
REMARK   11  A    between atoms: C_31  and  O_32
REMARK   12  A    between atoms: C_33  and  O_34
REMARK                            x       y       z     vdW  Elec       q    Type
REMARK                         _______ _______ _______ _____ _____    ______ ____
ROOT
ATOM      1  O   UNL     1       0.481   9.656  20.455  0.00  0.00    +0.000 OA
ATOM      2  C   UNL     1      -0.135   9.991  19.454  0.00  0.00    +0.000 C 
ENDROOT
BRANCH   2   3
ATOM      3  C   UNL     1       0.361   9.762  18.044  0.00  0.00    +0.000 C 
BRANCH   3   4
ATOM      4  C   UNL     1       1.884   9.835  17.968  0.00  0.00    +0.000 C 
BRANCH   4   5
ATOM      5  C   UNL     1       2.488   8.476  17.890  0.00  0.00    +0.000 A 
ATOM      6  N   UNL     1       3.663   8.148  17.421  0.00  0.00    +0.000 NA
ATOM      7  C   UNL     1       3.741   6.794  17.648  0.00  0.00    +0.000 A 
ATOM      8  C   UNL     1       2.583   6.347  18.261  0.00  0.00    +0.000 A 
ATOM      9  O   UNL     1       1.752   7.439  18.394  0.00  0.00    +0.000 OA
BRANCH   7  10
ATOM     10  C   UNL     1       4.913   6.025  17.285  0.00  0.00    +0.000 A 
ATOM     11  C   UNL     1       5.723   5.488  18.294  0.00  0.00    +0.000 A 
ATOM     12  C   UNL     1       6.847   4.729  17.963  0.00  0.00    +0.000 A 
ATOM     13  C   UNL     1       7.174   4.508  16.627  0.00  0.00    +0.000 A 
ATOM     14  C   UNL     1       6.384   5.053  15.617  0.00  0.00    +0.000 A 
ATOM     15  C   UNL     1       5.264   5.818  15.946  0.00  0.00    +0.000 A 
ENDBRANCH   7  10
BRANCH   8  16
ATOM     16  C   UNL     1       2.086   5.088  18.806  0.00  0.00    +0.000 A 
ATOM     17  C   UNL     1       1.851   3.990  17.964  0.00  0.00    +0.000 A 
ATOM     18  C   UNL     1       1.331   2.796  18.466  0.00  0.00    +0.000 A 
ATOM     19  C   UNL     1       1.058   2.674  19.825  0.00  0.00    +0.000 A 
ATOM     20  C   UNL     1       1.306   3.745  20.680  0.00  0.00    +0.000 A 
ATOM     21  C   UNL     1       1.816   4.946  20.174  0.00  0.00    +0.000 A 
ENDBRANCH   8  16
ENDBRANCH   4   5
ENDBRANCH   3   4
ENDBRANCH   2   3
BRANCH   2  22
ATOM     22  O   UNL     1      -1.385  10.533  19.437  0.00  0.00    +0.000 OA
BRANCH  22  23
ATOM     23  C   UNL     1      -1.504  11.817  18.798  0.00  0.00    +0.000 C 
ATOM     24  O   UNL     1      -2.525  11.794  17.797  0.00  0.00    +0.000 OA
ATOM     25  C   UNL     1      -3.839  11.499  18.275  0.00  0.00    +0.000 C 
ATOM     26  C   UNL     1      -4.271  12.486  19.364  0.00  0.00    +0.000 C 
ATOM     27  C   UNL     1      -3.207  12.616  20.458  0.00  0.00    +0.000 C 
ATOM     28  C   UNL     1      -1.827  12.898  19.851  0.00  0.00    +0.000 C 
BRANCH  25  29
ATOM     29  C   UNL     1      -4.843  11.540  17.105  0.00  0.00    +0.000 C 
ATOM     30  O   UNL     1      -5.904  12.154  17.131  0.00  0.00    +0.000 OA
BRANCH  29  31
ATOM     31  O   UNL     1      -4.457  10.872  15.992  0.00  0.00    +0.000 OA
ATOM     32  H   UNL     1      -4.840  11.242  15.158  0.00  0.00    +0.000 HD
ENDBRANCH  29  31
ENDBRANCH  25  29
BRANCH  26  33
ATOM     33  O   UNL     1      -5.523  12.031  19.923  0.00  0.00    +0.000 OA
ATOM     34  H   UNL     1      -6.185  12.740  19.789  0.00  0.00    +0.000 HD
ENDBRANCH  26  33
BRANCH  27  35
ATOM     35  O   UNL     1      -3.618  13.641  21.375  0.00  0.00    +0.000 OA
ATOM     36  H   UNL     1      -4.515  13.432  21.696  0.00  0.00    +0.000 HD
ENDBRANCH  27  35
BRANCH  28  37
ATOM     37  O   UNL     1      -0.837  12.976  20.879  0.00  0.00    +0.000 OA
ATOM     38  H   UNL     1      -1.284  13.149  21.725  0.00  0.00    +0.000 HD
ENDBRANCH  28  37
ENDBRANCH  22  23
ENDBRANCH   2  22
TORSDOF 12
ENDMDL
MODEL 3
REMARK VINA RESULT:      -8.4      1.571      2.901
REMARK  Name = 
REMARK  12 active torsions:
REMARK  status: ('A' for Active; 'I' for Inactive)
REMARK    1  A    between atoms: C_2  and  C_3
REMARK    2  A    between atoms: C_2  and  O_22
REMARK    3  A    between atoms: C_3  and  C_4
REMARK    4  A    between atoms: C_4  and  C_5
REMARK    5  A    between atoms: C_7  and  C_8
REMARK    6  A    between atoms: C_14  and  C_15
REMARK    7  A    between atoms: O_22  and  C_23
REMARK    8  A    between atoms: C_25  and  C_26
REMARK    9  A    between atoms: C_26  and  O_28
REMARK   10  A    between atoms: C_29  and  O_30
REMARK   11  A    between atoms: C_31  and  O_32
REMARK   12  A    between atoms: C_33  and  O_34
REMARK                            x       y       z     vdW  Elec       q    Type
REMARK                         _______ _______ _______ _____ _____    ______ ____
ROOT
ATOM      1  O   UNL     1       2.119   7.684  20.379  0.00  0.00    +0.000 OA
ATOM      2  C   UNL     1       2.051   7.082  19.317  0.00  0.00    +0.000 C 
ENDROOT
BRANCH   2   3
ATOM      3  C   UNL     1       1.764   7.749  17.990  0.00  0.00    +0.000 C 
BRANCH   3   4
ATOM      4  C   UNL     1       2.263   9.191  17.969  0.00  0.00    +0.000 C 
BRANCH   4   5
ATOM      5  C   UNL     1       1.189  10.142  18.365  0.00  0.00    +0.000 A 
ATOM      6  N   UNL     1       1.289  11.180  19.155  0.00  0.00    +0.000 NA
ATOM      7  C   UNL     1       0.031  11.737  19.125  0.00  0.00    +0.000 A 
ATOM      8  C   UNL     1      -0.797  10.998  18.298  0.00  0.00    +0.000 A 
ATOM      9  O   UNL     1      -0.052   9.940  17.824  0.00  0.00    +0.000 OA
BRANCH   7  10
ATOM     10  C   UNL     1      -0.287  12.939  19.866  0.00  0.00    +0.000 A 
ATOM     11  C   UNL     1      -0.460  12.866  21.255  0.00  0.00    +0.000 A 
ATOM     12  C   UNL     1      -0.751  14.017  21.989  0.00  0.00    +0.000 A 
ATOM     13  C   UNL     1      -0.878  15.245  21.344  0.00  0.00    +0.000 A 
ATOM     14  C   UNL     1      -0.724  15.325  19.961  0.00  0.00    +0.000 A 
ATOM     15  C   UNL     1      -0.441  14.174  19.225  0.00  0.00    +0.000 A 
ENDBRANCH   7  10
BRANCH   8  16
ATOM     16  C   UNL     1      -2.167  11.094  17.806  0.00  0.00    +0.000 A 
ATOM     17  C   UNL     1      -2.483  10.706  16.495  0.00  0.00    +0.000 A 
ATOM     18  C   UNL     1      -3.781  10.838  15.997  0.00  0.00    +0.000 A 
ATOM     19  C   UNL     1      -4.790  11.340  16.813  0.00  0.00    +0.000 A 
ATOM     20  C   UNL     1      -4.500  11.711  18.124  0.00  0.00    +0.000 A 
ATOM     21  C   UNL     1      -3.197  11.589  18.618  0.00  0.00    +0.000 A 
ENDBRANCH   8  16
ENDBRANCH   4   5
ENDBRANCH   3   4
ENDBRANCH   2   3
BRANCH   2  22
ATOM     22  O   UNL     1       2.307   5.756  19.138  0.00  0.00    +0.000 OA
BRANCH  22  23
ATOM     23  C   UNL     1       2.971   5.406  17.911  0.00  0.00    +0.000 C 
ATOM     24  O   UNL     1       4.391   5.504  18.056  0.00  0.00    +0.000 OA
ATOM     25  C   UNL     1       4.963   4.643  19.042  0.00  0.00    +0.000 C 
ATOM     26  C   UNL     1       4.621   3.176  18.768  0.00  0.00    +0.000 C 
ATOM     27  C   UNL     1       3.117   2.983  18.545  0.00  0.00    +0.000 C 
ATOM     28  C   UNL     1       2.587   3.969  17.499  0.00  0.00    +0.000 C 
BRANCH  25  29
ATOM     29  C   UNL     1       6.495   4.825  19.071  0.00  0.00    +0.000 C 
ATOM     30  O   UNL     1       7.092   5.492  19.909  0.00  0.00    +0.000 OA
BRANCH  29  31
ATOM     31  O   UNL     1       7.173   4.151  18.111  0.00  0.00    +0.000 OA
ATOM     32  H   UNL     1       7.494   3.263  18.406  0.00  0.00    +0.000 HD
ENDBRANCH  29  31
ENDBRANCH  25  29
BRANCH  26  33
ATOM     33  O   UNL     1       5.075   2.383  19.887  0.00  0.00    +0.000 OA
ATOM     34  H   UNL     1       6.042   2.259  19.791  0.00  0.00    +0.000 HD
ENDBRANCH  26  33
BRANCH  27  35
ATOM     35  O   UNL     1       2.883   1.616  18.174  0.00  0.00    +0.000 OA
ATOM     36  H   UNL     1       2.622   1.588  17.235  0.00  0.00    +0.000 HD
ENDBRANCH  27  35
BRANCH  28  37
ATOM     37  O   UNL     1       1.176   3.807  17.331  0.00  0.00    +0.000 OA
ATOM     38  H   UNL     1       0.811   4.637  16.977  0.00  0.00    +0.000 HD
ENDBRANCH  28  37
ENDBRANCH  22  23
ENDBRANCH   2  22
TORSDOF 12
ENDMDL
MODEL 4
REMARK VINA RESULT:      -8.4      1.478      3.393
REMARK  Name = 
REMARK  12 active torsions:
REMARK  status: ('A' for Active; 'I' for Inactive)
REMARK    1  A    between atoms: C_2  and  C_3
REMARK    2  A    between atoms: C_2  and  O_22
REMARK    3  A    between atoms: C_3  and  C_4
REMARK    4  A    between atoms: C_4  and  C_5
REMARK    5  A    between atoms: C_7  and  C_8
REMARK    6  A    between atoms: C_14  and  C_15
REMARK    7  A    between atoms: O_22  and  C_23
REMARK    8  A    between atoms: C_25  and  C_26
REMARK    9  A    between atoms: C_26  and  O_28
REMARK   10  A    between atoms: C_29  and  O_30
REMARK   11  A    between atoms: C_31  and  O_32
REMARK   12  A    between atoms: C_33  and  O_34
REMARK                            x       y       z     vdW  Elec       q    Type
REMARK                         _______ _______ _______ _____ _____    ______ ____
ROOT
ATOM      1  O   UNL     1       1.915   7.692  20.456  0.00  0.00    +0.000 OA
ATOM      2  C   UNL     1       2.366   7.300  19.389  0.00  0.00    +0.000 C 
ENDROOT
BRANCH   2   3
ATOM      3  C   UNL     1       1.965   7.869  18.047  0.00  0.00    +0.000 C 
BRANCH   3   4
ATOM      4  C   UNL     1       2.165   9.382  17.997  0.00  0.00    +0.000 C 
BRANCH   4   5
ATOM      5  C   UNL     1       0.998  10.102  18.576  0.00  0.00    +0.000 A 
ATOM      6  N   UNL     1       0.955  10.798  19.682  0.00  0.00    +0.000 NA
ATOM      7  C   UNL     1      -0.327  11.294  19.708  0.00  0.00    +0.000 A 
ATOM      8  C   UNL     1      -1.024  10.869  18.590  0.00  0.00    +0.000 A 
ATOM      9  O   UNL     1      -0.170  10.067  17.865  0.00  0.00    +0.000 OA
BRANCH   7  10
ATOM     10  C   UNL     1      -0.793  12.150  20.779  0.00  0.00    +0.000 A 
ATOM     11  C   UNL     1      -1.232  11.574  21.979  0.00  0.00    +0.000 A 
ATOM     12  C   UNL     1      -1.668  12.384  23.029  0.00  0.00    +0.000 A 
ATOM     13  C   UNL     1      -1.675  13.770  22.888  0.00  0.00    +0.000 A 
ATOM     14  C   UNL     1      -1.255  14.351  21.693  0.00  0.00    +0.000 A 
ATOM     15  C   UNL     1      -0.827  13.542  20.638  0.00  0.00    +0.000 A 
ENDBRANCH   7  10
BRANCH   8  16
ATOM     16  C   UNL     1      -2.346  11.092  18.013  0.00  0.00    +0.000 A 
ATOM     17  C   UNL     1      -2.599  10.779  16.669  0.00  0.00    +0.000 A 
ATOM     18  C   UNL     1      -3.845  11.032  16.092  0.00  0.00    +0.000 A 
ATOM     19  C   UNL     1      -4.866  11.582  16.860  0.00  0.00    +0.000 A 
ATOM     20  C   UNL     1      -4.641  11.879  18.202  0.00  0.00    +0.000 A 
ATOM     21  C   UNL     1      -3.388  11.636  18.776  0.00  0.00    +0.000 A 
ENDBRANCH   8  16
ENDBRANCH   4   5
ENDBRANCH   3   4
ENDBRANCH   2   3
BRANCH   2  22
ATOM     22  O   UNL     1       3.349   6.369  19.238  0.00  0.00    +0.000 OA
BRANCH  22  23
ATOM     23  C   UNL     1       3.167   5.435  18.158  0.00  0.00    +0.000 C 
ATOM     24  O   UNL     1       4.075   5.713  17.087  0.00  0.00    +0.000 OA
ATOM     25  C   UNL     1       5.460   5.621  17.424  0.00  0.00    +0.000 C 
ATOM     26  C   UNL     1       5.806   4.238  17.985  0.00  0.00    +0.000 C 
ATOM     27  C   UNL     1       4.847   3.832  19.108  0.00  0.00    +0.000 C 
ATOM     28  C   UNL     1       3.387   3.995  18.669  0.00  0.00    +0.000 C 
BRANCH  25  29
ATOM     29  C   UNL     1       6.322   5.910  16.178  0.00  0.00    +0.000 C 
ATOM     30  O   UNL     1       7.529   6.122  16.211  0.00  0.00    +0.000 OA
BRANCH  29  31
ATOM     31  O   UNL     1       5.658   5.873  14.998  0.00  0.00    +0.000 OA
ATOM     32  H   UNL     1       4.911   5.223  14.986  0.00  0.00    +0.000 HD
ENDBRANCH  29  31
ENDBRANCH  25  29
BRANCH  26  33
ATOM     33  O   UNL     1       7.168   4.268  18.466  0.00  0.00    +0.000 OA
ATOM     34  H   UNL     1       7.684   4.842  17.862  0.00  0.00    +0.000 HD
ENDBRANCH  26  33
BRANCH  27  35
ATOM     35  O   UNL     1       5.150   2.485  19.501  0.00  0.00    +0.000 OA
ATOM     36  H   UNL     1       5.895   2.503  20.130  0.00  0.00    +0.000 HD
ENDBRANCH  27  35
BRANCH  28  37
ATOM     37  O   UNL     1       2.503   3.653  19.739  0.00  0.00    +0.000 OA
ATOM     38  H   UNL     1       2.921   2.953  20.271  0.00  0.00    +0.000 HD
ENDBRANCH  28  37
ENDBRANCH  22  23
ENDBRANCH   2  22
TORSDOF 12
ENDMDL
MODEL 5
REMARK VINA RESULT:      -8.3      1.571      4.650
REMARK  Name = 
REMARK  12 active torsions:
REMARK  status: ('A' for Active; 'I' for Inactive)
REMARK    1  A    between atoms: C_2  and  C_3
REMARK    2  A    between atoms: C_2  and  O_22
REMARK    3  A    between atoms: C_3  and  C_4
REMARK    4  A    between atoms: C_4  and  C_5
REMARK    5  A    between atoms: C_7  and  C_8
REMARK    6  A    between atoms: C_14  and  C_15
REMARK    7  A    between atoms: O_22  and  C_23
REMARK    8  A    between atoms: C_25  and  C_26
REMARK    9  A    between atoms: C_26  and  O_28
REMARK   10  A    between atoms: C_29  and  O_30
REMARK   11  A    between atoms: C_31  and  O_32
REMARK   12  A    between atoms: C_33  and  O_34
REMARK                            x       y       z     vdW  Elec       q    Type
REMARK                         _______ _______ _______ _____ _____    ______ ____
ROOT
ATOM      1  O   UNL     1       1.772   7.408  20.430  0.00  0.00    +0.000 OA
ATOM      2  C   UNL     1       2.300   7.153  19.358  0.00  0.00    +0.000 C 
ENDROOT
BRANCH   2   3
ATOM      3  C   UNL     1       1.933   7.830  18.057  0.00  0.00    +0.000 C 
BRANCH   3   4
ATOM      4  C   UNL     1       2.182   9.335  18.119  0.00  0.00    +0.000 C 
BRANCH   4   5
ATOM      5  C   UNL     1       0.927  10.080  18.410  0.00  0.00    +0.000 A 
ATOM      6  N   UNL     1      -0.179  10.089  17.714  0.00  0.00    +0.000 NA
ATOM      7  C   UNL     1      -1.029  10.876  18.457  0.00  0.00    +0.000 A 
ATOM      8  C   UNL     1      -0.387  11.321  19.599  0.00  0.00    +0.000 A 
ATOM      9  O   UNL     1       0.899  10.826  19.557  0.00  0.00    +0.000 OA
BRANCH   7  10
ATOM     10  C   UNL     1      -2.391  11.134  18.039  0.00  0.00    +0.000 A 
ATOM     11  C   UNL     1      -2.776  10.835  16.725  0.00  0.00    +0.000 A 
ATOM     12  C   UNL     1      -4.089  11.060  16.309  0.00  0.00    +0.000 A 
ATOM     13  C   UNL     1      -5.024  11.590  17.197  0.00  0.00    +0.000 A 
ATOM     14  C   UNL     1      -4.645  11.905  18.500  0.00  0.00    +0.000 A 
ATOM     15  C   UNL     1      -3.330  11.688  18.915  0.00  0.00    +0.000 A 
ENDBRANCH   7  10
BRANCH   8  16
ATOM     16  C   UNL     1      -0.740  12.100  20.782  0.00  0.00    +0.000 A 
ATOM     17  C   UNL     1      -0.660  13.501  20.764  0.00  0.00    +0.000 A 
ATOM     18  C   UNL     1      -0.950  14.254  21.903  0.00  0.00    +0.000 A 
ATOM     19  C   UNL     1      -1.345  13.616  23.075  0.00  0.00    +0.000 A 
ATOM     20  C   UNL     1      -1.451  12.228  23.106  0.00  0.00    +0.000 A 
ATOM     21  C   UNL     1      -1.149  11.473  21.967  0.00  0.00    +0.000 A 
ENDBRANCH   8  16
ENDBRANCH   4   5
ENDBRANCH   3   4
ENDBRANCH   2   3
BRANCH   2  22
ATOM     22  O   UNL     1       3.348   6.302  19.173  0.00  0.00    +0.000 OA
BRANCH  22  23
ATOM     23  C   UNL     1       3.208   5.361  18.093  0.00  0.00    +0.000 C 
ATOM     24  O   UNL     1       4.136   5.651  17.043  0.00  0.00    +0.000 OA
ATOM     25  C   UNL     1       5.515   5.583  17.414  0.00  0.00    +0.000 C 
ATOM     26  C   UNL     1       5.871   4.209  17.989  0.00  0.00    +0.000 C 
ATOM     27  C   UNL     1       4.891   3.790  19.090  0.00  0.00    +0.000 C 
ATOM     28  C   UNL     1       3.440   3.927  18.615  0.00  0.00    +0.000 C 
BRANCH  25  29
ATOM     29  C   UNL     1       6.401   5.882  16.187  0.00  0.00    +0.000 C 
ATOM     30  O   UNL     1       7.599   6.136  16.251  0.00  0.00    +0.000 OA
BRANCH  29  31
ATOM     31  O   UNL     1       5.772   5.804  14.990  0.00  0.00    +0.000 OA
ATOM     32  H   UNL     1       5.075   6.496  14.866  0.00  0.00    +0.000 HD
ENDBRANCH  29  31
ENDBRANCH  25  29
BRANCH  26  33
ATOM     33  O   UNL     1       7.220   4.264  18.502  0.00  0.00    +0.000 OA
ATOM     34  H   UNL     1       7.526   3.342  18.632  0.00  0.00    +0.000 HD
ENDBRANCH  26  33
BRANCH  27  35
ATOM     35  O   UNL     1       5.208   2.450  19.495  0.00  0.00    +0.000 OA
ATOM     36  H   UNL     1       5.040   2.365  20.452  0.00  0.00    +0.000 HD
ENDBRANCH  27  35
BRANCH  28  37
ATOM     37  O   UNL     1       2.536   3.573  19.665  0.00  0.00    +0.000 OA
ATOM     38  H   UNL     1       1.833   4.245  19.705  0.00  0.00    +0.000 HD
ENDBRANCH  28  37
ENDBRANCH  22  23
ENDBRANCH   2  22
TORSDOF 12
ENDMDL
MODEL 6
REMARK VINA RESULT:      -8.3      1.839      3.591
REMARK  Name = 
REMARK  12 active torsions:
REMARK  status: ('A' for Active; 'I' for Inactive)
REMARK    1  A    between atoms: C_2  and  C_3
REMARK    2  A    between atoms: C_2  and  O_22
REMARK    3  A    between atoms: C_3  and  C_4
REMARK    4  A    between atoms: C_4  and  C_5
REMARK    5  A    between atoms: C_7  and  C_8
REMARK    6  A    between atoms: C_14  and  C_15
REMARK    7  A    between atoms: O_22  and  C_23
REMARK    8  A    between atoms: C_25  and  C_26
REMARK    9  A    between atoms: C_26  and  O_28
REMARK   10  A    between atoms: C_29  and  O_30
REMARK   11  A    between atoms: C_31  and  O_32
REMARK   12  A    between atoms: C_33  and  O_34
REMARK                            x       y       z     vdW  Elec       q    Type
REMARK                         _______ _______ _______ _____ _____    ______ ____
ROOT
ATOM      1  O   UNL     1       1.462   6.012  20.832  0.00  0.00    +0.000 OA
ATOM      2  C   UNL     1       2.139   6.666  20.052  0.00  0.00    +0.000 C 
ENDROOT
BRANCH   2   3
ATOM      3  C   UNL     1       1.846   8.105  19.687  0.00  0.00    +0.000 C 
BRANCH   3   4
ATOM      4  C   UNL     1       1.164   8.846  20.834  0.00  0.00    +0.000 C 
BRANCH   4   5
ATOM      5  C   UNL     1       0.326   9.968  20.331  0.00  0.00    +0.000 A 
ATOM      6  N   UNL     1       0.400  11.232  20.659  0.00  0.00    +0.000 NA
ATOM      7  C   UNL     1      -0.546  11.834  19.862  0.00  0.00    +0.000 A 
ATOM      8  C   UNL     1      -1.167  10.888  19.065  0.00  0.00    +0.000 A 
ATOM      9  O   UNL     1      -0.620   9.666  19.390  0.00  0.00    +0.000 OA
BRANCH   7  10
ATOM     10  C   UNL     1      -0.779  13.262  19.900  0.00  0.00    +0.000 A 
ATOM     11  C   UNL     1      -0.039  14.102  19.057  0.00  0.00    +0.000 A 
ATOM     12  C   UNL     1      -0.261  15.481  19.067  0.00  0.00    +0.000 A 
ATOM     13  C   UNL     1      -1.216  16.029  19.920  0.00  0.00    +0.000 A 
ATOM     14  C   UNL     1      -1.945  15.203  20.773  0.00  0.00    +0.000 A 
ATOM     15  C   UNL     1      -1.719  13.826  20.770  0.00  0.00    +0.000 A 
ENDBRANCH   7  10
BRANCH   8  16
ATOM     16  C   UNL     1      -2.165  10.885  18.000  0.00  0.00    +0.000 A 
ATOM     17  C   UNL     1      -3.368  11.592  18.148  0.00  0.00    +0.000 A 
ATOM     18  C   UNL     1      -4.350  11.559  17.156  0.00  0.00    +0.000 A 
ATOM     19  C   UNL     1      -4.134  10.832  15.989  0.00  0.00    +0.000 A 
ATOM     20  C   UNL     1      -2.937  10.141  15.815  0.00  0.00    +0.000 A 
ATOM     21  C   UNL     1      -1.958  10.166  16.814  0.00  0.00    +0.000 A 
ENDBRANCH   8  16
ENDBRANCH   4   5
ENDBRANCH   3   4
ENDBRANCH   2   3
BRANCH   2  22
ATOM     22  O   UNL     1       3.295   6.252  19.464  0.00  0.00    +0.000 OA
BRANCH  22  23
ATOM     23  C   UNL     1       3.143   5.426  18.294  0.00  0.00    +0.000 C 
ATOM     24  O   UNL     1       4.069   5.815  17.275  0.00  0.00    +0.000 OA
ATOM     25  C   UNL     1       5.448   5.700  17.630  0.00  0.00    +0.000 C 
ATOM     26  C   UNL     1       5.796   4.271  18.059  0.00  0.00    +0.000 C 
ATOM     27  C   UNL     1       4.819   3.750  19.117  0.00  0.00    +0.000 C 
ATOM     28  C   UNL     1       3.366   3.945  18.666  0.00  0.00    +0.000 C 
BRANCH  25  29
ATOM     29  C   UNL     1       6.332   6.116  16.435  0.00  0.00    +0.000 C 
ATOM     30  O   UNL     1       7.446   6.616  16.546  0.00  0.00    +0.000 OA
BRANCH  29  31
ATOM     31  O   UNL     1       5.810   5.851  15.214  0.00  0.00    +0.000 OA
ATOM     32  H   UNL     1       6.496   5.683  14.521  0.00  0.00    +0.000 HD
ENDBRANCH  29  31
ENDBRANCH  25  29
BRANCH  26  33
ATOM     33  O   UNL     1       7.148   4.264  18.569  0.00  0.00    +0.000 OA
ATOM     34  H   UNL     1       7.692   4.823  17.976  0.00  0.00    +0.000 HD
ENDBRANCH  26  33
BRANCH  27  35
ATOM     35  O   UNL     1       5.126   2.373  19.382  0.00  0.00    +0.000 OA
ATOM     36  H   UNL     1       6.045   2.314  19.705  0.00  0.00    +0.000 HD
ENDBRANCH  27  35
BRANCH  28  37
ATOM     37  O   UNL     1       2.464   3.493  19.679  0.00  0.00    +0.000 OA
ATOM     38  H   UNL     1       1.569   3.798  19.451  0.00  0.00    +0.000 HD
ENDBRANCH  28  37
ENDBRANCH  22  23
ENDBRANCH   2  22
TORSDOF 12
ENDMDL
MODEL 7
REMARK VINA RESULT:      -8.3      3.051      9.764
REMARK  Name = 
REMARK  12 active torsions:
REMARK  status: ('A' for Active; 'I' for Inactive)
REMARK    1  A    between atoms: C_2  and  C_3
REMARK    2  A    between atoms: C_2  and  O_22
REMARK    3  A    between atoms: C_3  and  C_4
REMARK    4  A    between atoms: C_4  and  C_5
REMARK    5  A    between atoms: C_7  and  C_8
REMARK    6  A    between atoms: C_14  and  C_15
REMARK    7  A    between atoms: O_22  and  C_23
REMARK    8  A    between atoms: C_25  and  C_26
REMARK    9  A    between atoms: C_26  and  O_28
REMARK   10  A    between atoms: C_29  and  O_30
REMARK   11  A    between atoms: C_31  and  O_32
REMARK   12  A    between atoms: C_33  and  O_34
REMARK                            x       y       z     vdW  Elec       q    Type
REMARK                         _______ _______ _______ _____ _____    ______ ____
ROOT
ATOM      1  O   UNL     1       1.153  10.098  20.621  0.00  0.00    +0.000 OA
ATOM      2  C   UNL     1       0.365  10.244  19.698  0.00  0.00    +0.000 C 
ENDROOT
BRANCH   2   3
ATOM      3  C   UNL     1       0.620   9.758  18.289  0.00  0.00    +0.000 C 
BRANCH   3   4
ATOM      4  C   UNL     1       2.113   9.600  18.012  0.00  0.00    +0.000 C 
BRANCH   4   5
ATOM      5  C   UNL     1       2.525   8.170  18.061  0.00  0.00    +0.000 A 
ATOM      6  N   UNL     1       1.825   7.150  18.483  0.00  0.00    +0.000 NA
ATOM      7  C   UNL     1       2.645   6.070  18.249  0.00  0.00    +0.000 A 
ATOM      8  C   UNL     1       3.835   6.492  17.680  0.00  0.00    +0.000 A 
ATOM      9  O   UNL     1       3.770   7.865  17.583  0.00  0.00    +0.000 OA
BRANCH   7  10
ATOM     10  C   UNL     1       2.234   4.718  18.562  0.00  0.00    +0.000 A 
ATOM     11  C   UNL     1       1.567   4.464  19.768  0.00  0.00    +0.000 A 
ATOM     12  C   UNL     1       1.147   3.169  20.080  0.00  0.00    +0.000 A 
ATOM     13  C   UNL     1       1.397   2.121  19.197  0.00  0.00    +0.000 A 
ATOM     14  C   UNL     1       2.074   2.361  18.004  0.00  0.00    +0.000 A 
ATOM     15  C   UNL     1       2.501   3.654  17.693  0.00  0.00    +0.000 A 
ENDBRANCH   7  10
BRANCH   8  16
ATOM     16  C   UNL     1       5.041   5.864  17.151  0.00  0.00    +0.000 A 
ATOM     17  C   UNL     1       5.208   5.692  15.768  0.00  0.00    +0.000 A 
ATOM     18  C   UNL     1       6.335   5.050  15.253  0.00  0.00    +0.000 A 
ATOM     19  C   UNL     1       7.326   4.589  16.114  0.00  0.00    +0.000 A 
ATOM     20  C   UNL     1       7.189   4.769  17.488  0.00  0.00    +0.000 A 
ATOM     21  C   UNL     1       6.052   5.402  18.004  0.00  0.00    +0.000 A 
ENDBRANCH   8  16
ENDBRANCH   4   5
ENDBRANCH   3   4
ENDBRANCH   2   3
BRANCH   2  22
ATOM     22  O   UNL     1      -0.885  10.776  19.799  0.00  0.00    +0.000 OA
BRANCH  22  23
ATOM     23  C   UNL     1      -1.074  12.058  19.174  0.00  0.00    +0.000 C 
ATOM     24  O   UNL     1      -1.644  11.908  17.870  0.00  0.00    +0.000 OA
ATOM     25  C   UNL     1      -2.931  11.289  17.836  0.00  0.00    +0.000 C 
ATOM     26  C   UNL     1      -3.939  12.050  18.703  0.00  0.00    +0.000 C 
ATOM     27  C   UNL     1      -3.389  12.304  20.110  0.00  0.00    +0.000 C 
ATOM     28  C   UNL     1      -1.994  12.937  20.048  0.00  0.00    +0.000 C 
BRANCH  25  29
ATOM     29  C   UNL     1      -3.440  11.221  16.381  0.00  0.00    +0.000 C 
ATOM     30  O   UNL     1      -4.625  11.228  16.067  0.00  0.00    +0.000 OA
BRANCH  29  31
ATOM     31  O   UNL     1      -2.473  11.195  15.434  0.00  0.00    +0.000 OA
ATOM     32  H   UNL     1      -2.695  10.620  14.660  0.00  0.00    +0.000 HD
ENDBRANCH  29  31
ENDBRANCH  25  29
BRANCH  26  33
ATOM     33  O   UNL     1      -5.160  11.280  18.765  0.00  0.00    +0.000 OA
ATOM     34  H   UNL     1      -4.914  10.342  18.906  0.00  0.00    +0.000 HD
ENDBRANCH  26  33
BRANCH  27  35
ATOM     35  O   UNL     1      -4.327  13.122  20.825  0.00  0.00    +0.000 OA
ATOM     36  H   UNL     1      -4.899  12.544  21.363  0.00  0.00    +0.000 HD
ENDBRANCH  27  35
BRANCH  28  37
ATOM     37  O   UNL     1      -1.475  13.130  21.366  0.00  0.00    +0.000 OA
ATOM     38  H   UNL     1      -0.662  12.603  21.458  0.00  0.00    +0.000 HD
ENDBRANCH  28  37
ENDBRANCH  22  23
ENDBRANCH   2  22
TORSDOF 12
ENDMDL
MODEL 8
REMARK VINA RESULT:      -8.3      3.449      9.625
REMARK  Name = 
REMARK  12 active torsions:
REMARK  status: ('A' for Active; 'I' for Inactive)
REMARK    1  A    between atoms: C_2  and  C_3
REMARK    2  A    between atoms: C_2  and  O_22
REMARK    3  A    between atoms: C_3  and  C_4
REMARK    4  A    between atoms: C_4  and  C_5
REMARK    5  A    between atoms: C_7  and  C_8
REMARK    6  A    between atoms: C_14  and  C_15
REMARK    7  A    between atoms: O_22  and  C_23
REMARK    8  A    between atoms: C_25  and  C_26
REMARK    9  A    between atoms: C_26  and  O_28
REMARK   10  A    between atoms: C_29  and  O_30
REMARK   11  A    between atoms: C_31  and  O_32
REMARK   12  A    between atoms: C_33  and  O_34
REMARK                            x       y       z     vdW  Elec       q    Type
REMARK                         _______ _______ _______ _____ _____    ______ ____
ROOT
ATOM      1  O   UNL     1      -0.520   9.774  20.263  0.00  0.00    +0.000 OA
ATOM      2  C   UNL     1       0.296  10.238  19.481  0.00  0.00    +0.000 C 
ENDROOT
BRANCH   2   3
ATOM      3  C   UNL     1       0.519   9.705  18.083  0.00  0.00    +0.000 C 
BRANCH   3   4
ATOM      4  C   UNL     1       2.005   9.526  17.783  0.00  0.00    +0.000 C 
BRANCH   4   5
ATOM      5  C   UNL     1       2.443   8.125  18.035  0.00  0.00    +0.000 A 
ATOM      6  N   UNL     1       1.776   7.174  18.634  0.00  0.00    +0.000 NA
ATOM      7  C   UNL     1       2.606   6.081  18.538  0.00  0.00    +0.000 A 
ATOM      8  C   UNL     1       3.767   6.423  17.868  0.00  0.00    +0.000 A 
ATOM      9  O   UNL     1       3.676   7.764  17.564  0.00  0.00    +0.000 OA
BRANCH   7  10
ATOM     10  C   UNL     1       2.230   4.788  19.071  0.00  0.00    +0.000 A 
ATOM     11  C   UNL     1       1.601   3.856  18.235  0.00  0.00    +0.000 A 
ATOM     12  C   UNL     1       1.247   2.598  18.726  0.00  0.00    +0.000 A 
ATOM     13  C   UNL     1       1.510   2.265  20.053  0.00  0.00    +0.000 A 
ATOM     14  C   UNL     1       2.121   3.191  20.895  0.00  0.00    +0.000 A 
ATOM     15  C   UNL     1       2.468   4.452  20.408  0.00  0.00    +0.000 A 
ENDBRANCH   7  10
BRANCH   8  16
ATOM     16  C   UNL     1       4.965   5.735  17.397  0.00  0.00    +0.000 A 
ATOM     17  C   UNL     1       4.879   4.765  16.386  0.00  0.00    +0.000 A 
ATOM     18  C   UNL     1       6.011   4.066  15.961  0.00  0.00    +0.000 A 
ATOM     19  C   UNL     1       7.252   4.344  16.525  0.00  0.00    +0.000 A 
ATOM     20  C   UNL     1       7.360   5.319  17.514  0.00  0.00    +0.000 A 
ATOM     21  C   UNL     1       6.224   6.010  17.948  0.00  0.00    +0.000 A 
ENDBRANCH   8  16
ENDBRANCH   4   5
ENDBRANCH   3   4
ENDBRANCH   2   3
BRANCH   2  22
ATOM     22  O   UNL     1       1.060  11.346  19.695  0.00  0.00    +0.000 OA
BRANCH  22  23
ATOM     23  C   UNL     1       0.486  12.595  19.270  0.00  0.00    +0.000 C 
ATOM     24  O   UNL     1      -0.208  13.229  20.348  0.00  0.00    +0.000 OA
ATOM     25  C   UNL     1       0.599  13.561  21.480  0.00  0.00    +0.000 C 
ATOM     26  C   UNL     1       1.771  14.463  21.083  0.00  0.00    +0.000 C 
ATOM     27  C   UNL     1       2.545  13.886  19.894  0.00  0.00    +0.000 C 
ATOM     28  C   UNL     1       1.596  13.529  18.743  0.00  0.00    +0.000 C 
BRANCH  25  29
ATOM     29  C   UNL     1      -0.263  14.265  22.548  0.00  0.00    +0.000 C 
ATOM     30  O   UNL     1       0.127  15.199  23.240  0.00  0.00    +0.000 OA
BRANCH  29  31
ATOM     31  O   UNL     1      -1.533  13.806  22.656  0.00  0.00    +0.000 OA
ATOM     32  H   UNL     1      -1.673  12.927  22.223  0.00  0.00    +0.000 HD
ENDBRANCH  29  31
ENDBRANCH  25  29
BRANCH  26  33
ATOM     33  O   UNL     1       2.638  14.615  22.228  0.00  0.00    +0.000 OA
ATOM     34  H   UNL     1       2.819  15.572  22.340  0.00  0.00    +0.000 HD
ENDBRANCH  26  33
BRANCH  27  35
ATOM     35  O   UNL     1       3.547  14.835  19.499  0.00  0.00    +0.000 OA
ATOM     36  H   UNL     1       3.719  15.438  20.246  0.00  0.00    +0.000 HD
ENDBRANCH  27  35
BRANCH  28  37
ATOM     37  O   UNL     1       2.326  12.954  17.656  0.00  0.00    +0.000 OA
ATOM     38  H   UNL     1       2.658  12.083  17.935  0.00  0.00    +0.000 HD
ENDBRANCH  28  37
ENDBRANCH  22  23
ENDBRANCH   2  22
TORSDOF 12
ENDMDL
MODEL 9
REMARK VINA RESULT:      -8.2      3.004      9.413
REMARK  Name = 
REMARK  12 active torsions:
REMARK  status: ('A' for Active; 'I' for Inactive)
REMARK    1  A    between atoms: C_2  and  C_3
REMARK    2  A    between atoms: C_2  and  O_22
REMARK    3  A    between atoms: C_3  and  C_4
REMARK    4  A    between atoms: C_4  and  C_5
REMARK    5  A    between atoms: C_7  and  C_8
REMARK    6  A    between atoms: C_14  and  C_15
REMARK    7  A    between atoms: O_22  and  C_23
REMARK    8  A    between atoms: C_25  and  C_26
REMARK    9  A    between atoms: C_26  and  O_28
REMARK   10  A    between atoms: C_29  and  O_30
REMARK   11  A    between atoms: C_31  and  O_32
REMARK   12  A    between atoms: C_33  and  O_34
REMARK                            x       y       z     vdW  Elec       q    Type
REMARK                         _______ _______ _______ _____ _____    ______ ____
ROOT
ATOM      1  O   UNL     1       2.284  12.608  18.678  0.00  0.00    +0.000 OA
ATOM      2  C   UNL     1       1.393  11.785  18.830  0.00  0.00    +0.000 C 
ENDROOT
BRANCH   2   3
ATOM      3  C   UNL     1       1.639  10.307  19.033  0.00  0.00    +0.000 C 
BRANCH   3   4
ATOM      4  C   UNL     1       2.068   9.628  17.735  0.00  0.00    +0.000 C 
BRANCH   4   5
ATOM      5  C   UNL     1       2.489   8.220  17.973  0.00  0.00    +0.000 A 
ATOM      6  N   UNL     1       1.797   7.261  18.531  0.00  0.00    +0.000 NA
ATOM      7  C   UNL     1       2.622   6.164  18.440  0.00  0.00    +0.000 A 
ATOM      8  C   UNL     1       3.807   6.512  17.815  0.00  0.00    +0.000 A 
ATOM      9  O   UNL     1       3.734   7.860  17.535  0.00  0.00    +0.000 OA
BRANCH   7  10
ATOM     10  C   UNL     1       2.221   4.864  18.934  0.00  0.00    +0.000 A 
ATOM     11  C   UNL     1       2.347   4.578  20.300  0.00  0.00    +0.000 A 
ATOM     12  C   UNL     1       1.948   3.336  20.799  0.00  0.00    +0.000 A 
ATOM     13  C   UNL     1       1.430   2.371  19.938  0.00  0.00    +0.000 A 
ATOM     14  C   UNL     1       1.317   2.640  18.576  0.00  0.00    +0.000 A 
ATOM     15  C   UNL     1       1.721   3.879  18.075  0.00  0.00    +0.000 A 
ENDBRANCH   7  10
BRANCH   8  16
ATOM     16  C   UNL     1       5.016   5.826  17.370  0.00  0.00    +0.000 A 
ATOM     17  C   UNL     1       5.175   5.463  16.024  0.00  0.00    +0.000 A 
ATOM     18  C   UNL     1       6.304   4.764  15.595  0.00  0.00    +0.000 A 
ATOM     19  C   UNL     1       7.305   4.436  16.504  0.00  0.00    +0.000 A 
ATOM     20  C   UNL     1       7.175   4.806  17.841  0.00  0.00    +0.000 A 
ATOM     21  C   UNL     1       6.037   5.496  18.272  0.00  0.00    +0.000 A 
ENDBRANCH   8  16
ENDBRANCH   4   5
ENDBRANCH   3   4
ENDBRANCH   2   3
BRANCH   2  22
ATOM     22  O   UNL     1       0.063  12.065  18.932  0.00  0.00    +0.000 OA
BRANCH  22  23
ATOM     23  C   UNL     1      -0.777  10.973  19.349  0.00  0.00    +0.000 C 
ATOM     24  O   UNL     1      -1.272  11.190  20.674  0.00  0.00    +0.000 OA
ATOM     25  C   UNL     1      -2.079  12.358  20.837  0.00  0.00    +0.000 C 
ATOM     26  C   UNL     1      -3.278  12.346  19.884  0.00  0.00    +0.000 C 
ATOM     27  C   UNL     1      -2.845  12.065  18.442  0.00  0.00    +0.000 C 
ATOM     28  C   UNL     1      -1.958  10.817  18.368  0.00  0.00    +0.000 C 
BRANCH  25  29
ATOM     29  C   UNL     1      -2.572  12.453  22.296  0.00  0.00    +0.000 C 
ATOM     30  O   UNL     1      -3.746  12.337  22.633  0.00  0.00    +0.000 OA
BRANCH  29  31
ATOM     31  O   UNL     1      -1.600  12.635  23.221  0.00  0.00    +0.000 OA
ATOM     32  H   UNL     1      -1.799  13.363  23.862  0.00  0.00    +0.000 HD
ENDBRANCH  29  31
ENDBRANCH  25  29
BRANCH  26  33
ATOM     33  O   UNL     1      -3.947  13.623  19.975  0.00  0.00    +0.000 OA
ATOM     34  H   UNL     1      -3.891  13.923  20.906  0.00  0.00    +0.000 HD
ENDBRANCH  26  33
BRANCH  27  35
ATOM     35  O   UNL     1      -4.021  11.946  17.628  0.00  0.00    +0.000 OA
ATOM     36  H   UNL     1      -4.457  11.097  17.830  0.00  0.00    +0.000 HD
ENDBRANCH  27  35
BRANCH  28  37
ATOM     37  O   UNL     1      -1.527  10.590  17.024  0.00  0.00    +0.000 OA
ATOM     38  H   UNL     1      -0.887  11.283  16.785  0.00  0.00    +0.000 HD
ENDBRANCH  28  37
ENDBRANCH  22  23
ENDBRANCH   2  22
TORSDOF 12
ENDMDL
