MODEL 1
REMARK VINA RESULT:      -8.6      0.000      0.000
REMARK  Name = 
REMARK  3 active torsions:
REMARK  status: ('A' for Active; 'I' for Inactive)
REMARK    1  A    between atoms: C_1  and  N_2
REMARK    2  A    between atoms: C_9  and  N_10
REMARK    3  A    between atoms: C_11  and  C_13
REMARK                            x       y       z     vdW  Elec       q    Type
REMARK                         _______ _______ _______ _____ _____    ______ ____
ROOT
ATOM      1  C   UNL     1       2.200   6.910  19.671  0.00  0.00    +0.000 A 
ATOM      2  C   UNL     1       2.974   7.017  18.522  0.00  0.00    +0.000 A 
ATOM      3  N   UNL     1       3.452   5.765  18.140  0.00  0.00    +0.000 N 
ATOM      4  C   UNL     1       4.350   5.555  17.074  0.00  0.00    +0.000 A 
ATOM      5  N   UNL     1       4.854   6.543  16.359  0.00  0.00    +0.000 NA
ATOM      6  C   UNL     1       5.751   6.022  15.442  0.00  0.00    +0.000 A 
ATOM      7  C   UNL     1       5.892   4.651  15.453  0.00  0.00    +0.000 A 
ATOM      8  S   UNL     1       4.877   3.986  16.657  0.00  0.00    +0.000 S 
ATOM      9  C   UNL     1       2.902   4.836  19.023  0.00  0.00    +0.000 A 
ATOM     10  N   UNL     1       3.088   3.492  18.979  0.00  0.00    +0.000 NA
ATOM     11  C   UNL     1       2.487   2.814  19.978  0.00  0.00    +0.000 A 
ATOM     12  C   UNL     1       1.725   3.382  20.977  0.00  0.00    +0.000 A 
ATOM     13  F   UNL     1       1.170   2.614  21.923  0.00  0.00    +0.000 F 
ATOM     14  C   UNL     1       1.539   4.757  20.996  0.00  0.00    +0.000 A 
ATOM     15  C   UNL     1       2.150   5.521  19.983  0.00  0.00    +0.000 A 
ENDROOT
BRANCH   1  17
ATOM     16  N   UNL     1       0.947   8.948  19.664  0.00  0.00    +0.000 N 
ATOM     17  C   UNL     1       1.581   7.998  20.436  0.00  0.00    +0.000 C 
ATOM     18  O   UNL     1       1.613   8.036  21.656  0.00  0.00    +0.000 OA
ATOM     19  H   UNL     1       0.707   8.672  18.721  0.00  0.00    +0.000 HD
BRANCH  16  28
ATOM     20  C   UNL     1      -0.151  13.995  18.500  0.00  0.00    +0.000 C 
ATOM     21  N   UNL     1       0.013  12.640  19.020  0.00  0.00    +0.000 NA
ATOM     22  C   UNL     1      -1.282  11.938  19.154  0.00  0.00    +0.000 C 
ATOM     23  C   UNL     1      -2.146  12.441  20.337  0.00  0.00    +0.000 C 
ATOM     24  O   UNL     1      -1.438  12.400  21.579  0.00  0.00    +0.000 OA
ATOM     25  C   UNL     1      -0.221  13.143  21.488  0.00  0.00    +0.000 C 
ATOM     26  C   UNL     1       0.675  12.623  20.342  0.00  0.00    +0.000 C 
ATOM     27  C   UNL     1       1.148  11.187  20.609  0.00  0.00    +0.000 C 
ATOM     28  C   UNL     1       0.166  10.061  20.234  0.00  0.00    +0.000 C 
ATOM     29  C   UNL     1      -0.972  10.439  19.269  0.00  0.00    +0.000 C 
ENDBRANCH  16  28
ENDBRANCH   1  17
TORSDOF 2
ENDMDL
MODEL 2
REMARK VINA RESULT:      -8.4      3.861      8.578
REMARK  Name = 
REMARK  3 active torsions:
REMARK  status: ('A' for Active; 'I' for Inactive)
REMARK    1  A    between atoms: C_1  and  N_2
REMARK    2  A    between atoms: C_9  and  N_10
REMARK    3  A    between atoms: C_11  and  C_13
REMARK                            x       y       z     vdW  Elec       q    Type
REMARK                         _______ _______ _______ _____ _____    ______ ____
ROOT
ATOM      1  C   UNL     1       0.849   9.949  18.869  0.00  0.00    +0.000 A 
ATOM      2  C   UNL     1       1.093  10.927  19.826  0.00  0.00    +0.000 A 
ATOM      3  N   UNL     1       0.038  11.838  19.869  0.00  0.00    +0.000 N 
ATOM      4  C   UNL     1       0.035  13.002  20.662  0.00  0.00    +0.000 A 
ATOM      5  N   UNL     1       1.059  13.358  21.415  0.00  0.00    +0.000 NA
ATOM      6  C   UNL     1       0.776  14.576  22.012  0.00  0.00    +0.000 A 
ATOM      7  C   UNL     1      -0.462  15.109  21.728  0.00  0.00    +0.000 A 
ATOM      8  S   UNL     1      -1.304  14.061  20.672  0.00  0.00    +0.000 S 
ATOM      9  C   UNL     1      -0.928  11.379  18.974  0.00  0.00    +0.000 A 
ATOM     10  N   UNL     1      -2.132  11.961  18.739  0.00  0.00    +0.000 NA
ATOM     11  C   UNL     1      -2.869  11.350  17.788  0.00  0.00    +0.000 A 
ATOM     12  C   UNL     1      -2.491  10.221  17.093  0.00  0.00    +0.000 A 
ATOM     13  F   UNL     1      -3.302   9.694  16.168  0.00  0.00    +0.000 F 
ATOM     14  C   UNL     1      -1.260   9.637  17.358  0.00  0.00    +0.000 A 
ATOM     15  C   UNL     1      -0.441  10.234  18.334  0.00  0.00    +0.000 A 
ENDROOT
BRANCH   1  17
ATOM     16  N   UNL     1       1.834   7.827  19.370  0.00  0.00    +0.000 N 
ATOM     17  C   UNL     1       1.740   8.858  18.460  0.00  0.00    +0.000 C 
ATOM     18  O   UNL     1       2.327   8.864  17.389  0.00  0.00    +0.000 OA
ATOM     19  H   UNL     1       1.091   7.764  20.053  0.00  0.00    +0.000 HD
BRANCH  16  28
ATOM     20  C   UNL     1       0.850   2.639  18.968  0.00  0.00    +0.000 C 
ATOM     21  N   UNL     1       1.356   4.009  19.037  0.00  0.00    +0.000 NA
ATOM     22  C   UNL     1       2.009   4.422  17.775  0.00  0.00    +0.000 C 
ATOM     23  C   UNL     1       3.395   3.769  17.548  0.00  0.00    +0.000 C 
ATOM     24  O   UNL     1       4.281   3.985  18.649  0.00  0.00    +0.000 OA
ATOM     25  C   UNL     1       3.694   3.516  19.865  0.00  0.00    +0.000 C 
ATOM     26  C   UNL     1       2.331   4.192  20.132  0.00  0.00    +0.000 C 
ATOM     27  C   UNL     1       2.491   5.701  20.366  0.00  0.00    +0.000 C 
ATOM     28  C   UNL     1       2.583   6.584  19.108  0.00  0.00    +0.000 C 
ATOM     29  C   UNL     1       2.093   5.954  17.792  0.00  0.00    +0.000 C 
ENDBRANCH  16  28
ENDBRANCH   1  17
TORSDOF 2
ENDMDL
MODEL 3
REMARK VINA RESULT:      -8.3      1.258      1.869
REMARK  Name = 
REMARK  3 active torsions:
REMARK  status: ('A' for Active; 'I' for Inactive)
REMARK    1  A    between atoms: C_1  and  N_2
REMARK    2  A    between atoms: C_9  and  N_10
REMARK    3  A    between atoms: C_11  and  C_13
REMARK                            x       y       z     vdW  Elec       q    Type
REMARK                         _______ _______ _______ _____ _____    ______ ____
ROOT
ATOM      1  C   UNL     1       2.574   7.240  18.616  0.00  0.00    +0.000 A 
ATOM      2  C   UNL     1       3.395   7.093  17.504  0.00  0.00    +0.000 A 
ATOM      3  N   UNL     1       3.941   5.810  17.470  0.00  0.00    +0.000 N 
ATOM      4  C   UNL     1       4.895   5.385  16.525  0.00  0.00    +0.000 A 
ATOM      5  N   UNL     1       5.392   6.185  15.600  0.00  0.00    +0.000 NA
ATOM      6  C   UNL     1       6.351   5.495  14.876  0.00  0.00    +0.000 A 
ATOM      7  C   UNL     1       6.546   4.181  15.241  0.00  0.00    +0.000 A 
ATOM      8  S   UNL     1       5.504   3.790  16.539  0.00  0.00    +0.000 S 
ATOM      9  C   UNL     1       3.389   5.108  18.541  0.00  0.00    +0.000 A 
ATOM     10  N   UNL     1       3.631   3.808  18.846  0.00  0.00    +0.000 NA
ATOM     11  C   UNL     1       3.012   3.374  19.964  0.00  0.00    +0.000 A 
ATOM     12  C   UNL     1       2.182   4.136  20.759  0.00  0.00    +0.000 A 
ATOM     13  F   UNL     1       1.616   3.605  21.849  0.00  0.00    +0.000 F 
ATOM     14  C   UNL     1       1.940   5.460  20.421  0.00  0.00    +0.000 A 
ATOM     15  C   UNL     1       2.566   5.974  19.269  0.00  0.00    +0.000 A 
ENDROOT
BRANCH   1  17
ATOM     16  N   UNL     1       1.582   9.340  18.045  0.00  0.00    +0.000 N 
ATOM     17  C   UNL     1       1.877   8.453  19.057  0.00  0.00    +0.000 C 
ATOM     18  O   UNL     1       1.569   8.639  20.223  0.00  0.00    +0.000 OA
ATOM     19  H   UNL     1       1.590   8.967  17.105  0.00  0.00    +0.000 HD
BRANCH  16  28
ATOM     20  C   UNL     1      -0.518  12.049  22.081  0.00  0.00    +0.000 C 
ATOM     21  N   UNL     1      -0.039  11.475  20.825  0.00  0.00    +0.000 NA
ATOM     22  C   UNL     1       0.831  12.414  20.084  0.00  0.00    +0.000 C 
ATOM     23  C   UNL     1       0.065  13.586  19.422  0.00  0.00    +0.000 C 
ATOM     24  O   UNL     1      -0.993  13.129  18.575  0.00  0.00    +0.000 OA
ATOM     25  C   UNL     1      -1.888  12.285  19.301  0.00  0.00    +0.000 C 
ATOM     26  C   UNL     1      -1.147  11.083  19.929  0.00  0.00    +0.000 C 
ATOM     27  C   UNL     1      -0.570  10.156  18.851  0.00  0.00    +0.000 C 
ATOM     28  C   UNL     1       0.788  10.565  18.250  0.00  0.00    +0.000 C 
ATOM     29  C   UNL     1       1.612  11.586  19.054  0.00  0.00    +0.000 C 
ENDBRANCH  16  28
ENDBRANCH   1  17
TORSDOF 2
ENDMDL
MODEL 4
REMARK VINA RESULT:      -8.2      0.894      1.155
REMARK  Name = 
REMARK  3 active torsions:
REMARK  status: ('A' for Active; 'I' for Inactive)
REMARK    1  A    between atoms: C_1  and  N_2
REMARK    2  A    between atoms: C_9  and  N_10
REMARK    3  A    between atoms: C_11  and  C_13
REMARK                            x       y       z     vdW  Elec       q    Type
REMARK                         _______ _______ _______ _____ _____    ______ ____
ROOT
ATOM      1  C   UNL     1       2.367   6.730  19.416  0.00  0.00    +0.000 A 
ATOM      2  C   UNL     1       3.163   6.732  18.277  0.00  0.00    +0.000 A 
ATOM      3  N   UNL     1       3.565   5.434  17.964  0.00  0.00    +0.000 N 
ATOM      4  C   UNL     1       4.464   5.117  16.925  0.00  0.00    +0.000 A 
ATOM      5  N   UNL     1       5.040   6.035  16.173  0.00  0.00    +0.000 NA
ATOM      6  C   UNL     1       5.916   5.413  15.297  0.00  0.00    +0.000 A 
ATOM      7  C   UNL     1       5.968   4.039  15.377  0.00  0.00    +0.000 A 
ATOM      8  S   UNL     1       4.895   3.499  16.594  0.00  0.00    +0.000 S 
ATOM      9  C   UNL     1       2.945   4.586  18.881  0.00  0.00    +0.000 A 
ATOM     10  N   UNL     1       3.045   3.233  18.904  0.00  0.00    +0.000 NA
ATOM     11  C   UNL     1       2.387   2.644  19.924  0.00  0.00    +0.000 A 
ATOM     12  C   UNL     1       1.649   3.307  20.881  0.00  0.00    +0.000 A 
ATOM     13  F   UNL     1       1.032   2.623  21.853  0.00  0.00    +0.000 F 
ATOM     14  C   UNL     1       1.551   4.691  20.831  0.00  0.00    +0.000 A 
ATOM     15  C   UNL     1       2.224   5.364  19.793  0.00  0.00    +0.000 A 
ENDROOT
BRANCH   1  17
ATOM     16  N   UNL     1       1.596   8.992  19.315  0.00  0.00    +0.000 N 
ATOM     17  C   UNL     1       1.808   7.891  20.117  0.00  0.00    +0.000 C 
ATOM     18  O   UNL     1       1.537   7.865  21.307  0.00  0.00    +0.000 OA
ATOM     19  H   UNL     1       1.552   8.820  18.320  0.00  0.00    +0.000 HD
BRANCH  16  28
ATOM     20  C   UNL     1      -2.605  11.958  18.055  0.00  0.00    +0.000 C 
ATOM     21  N   UNL     1      -1.407  11.307  18.579  0.00  0.00    +0.000 NA
ATOM     22  C   UNL     1      -1.562  10.924  20.000  0.00  0.00    +0.000 C 
ATOM     23  C   UNL     1      -1.512  12.123  20.979  0.00  0.00    +0.000 C 
ATOM     24  O   UNL     1      -0.328  12.907  20.811  0.00  0.00    +0.000 OA
ATOM     25  C   UNL     1      -0.208  13.353  19.458  0.00  0.00    +0.000 C 
ATOM     26  C   UNL     1      -0.209  12.165  18.470  0.00  0.00    +0.000 C 
ATOM     27  C   UNL     1       1.024  11.273  18.668  0.00  0.00    +0.000 C 
ATOM     28  C   UNL     1       0.938  10.223  19.791  0.00  0.00    +0.000 C 
ATOM     29  C   UNL     1      -0.473   9.887  20.307  0.00  0.00    +0.000 C 
ENDBRANCH  16  28
ENDBRANCH   1  17
TORSDOF 2
ENDMDL
MODEL 5
REMARK VINA RESULT:      -8.1      2.515      4.200
REMARK  Name = 
REMARK  3 active torsions:
REMARK  status: ('A' for Active; 'I' for Inactive)
REMARK    1  A    between atoms: C_1  and  N_2
REMARK    2  A    between atoms: C_9  and  N_10
REMARK    3  A    between atoms: C_11  and  C_13
REMARK                            x       y       z     vdW  Elec       q    Type
REMARK                         _______ _______ _______ _____ _____    ______ ____
ROOT
ATOM      1  C   UNL     1       2.723   7.239  18.409  0.00  0.00    +0.000 A 
ATOM      2  C   UNL     1       2.362   6.437  19.485  0.00  0.00    +0.000 A 
ATOM      3  N   UNL     1       3.050   5.225  19.439  0.00  0.00    +0.000 N 
ATOM      4  C   UNL     1       2.826   4.157  20.331  0.00  0.00    +0.000 A 
ATOM      5  N   UNL     1       1.906   4.197  21.277  0.00  0.00    +0.000 NA
ATOM      6  C   UNL     1       1.885   2.977  21.934  0.00  0.00    +0.000 A 
ATOM      7  C   UNL     1       2.803   2.046  21.499  0.00  0.00    +0.000 A 
ATOM      8  S   UNL     1       3.722   2.709  20.219  0.00  0.00    +0.000 S 
ATOM      9  C   UNL     1       3.922   5.297  18.353  0.00  0.00    +0.000 A 
ATOM     10  N   UNL     1       4.802   4.334  17.977  0.00  0.00    +0.000 NA
ATOM     11  C   UNL     1       5.501   4.625  16.860  0.00  0.00    +0.000 A 
ATOM     12  C   UNL     1       5.385   5.789  16.131  0.00  0.00    +0.000 A 
ATOM     13  F   UNL     1       6.130   5.977  15.036  0.00  0.00    +0.000 F 
ATOM     14  C   UNL     1       4.487   6.765  16.541  0.00  0.00    +0.000 A 
ATOM     15  C   UNL     1       3.721   6.515  17.696  0.00  0.00    +0.000 A 
ENDROOT
BRANCH   1  17
ATOM     16  N   UNL     1       1.253   9.048  18.947  0.00  0.00    +0.000 N 
ATOM     17  C   UNL     1       2.175   8.552  18.051  0.00  0.00    +0.000 C 
ATOM     18  O   UNL     1       2.531   9.155  17.051  0.00  0.00    +0.000 OA
ATOM     19  H   UNL     1       1.263   8.640  19.873  0.00  0.00    +0.000 HD
BRANCH  16  28
ATOM     20  C   UNL     1      -0.553  12.835  22.177  0.00  0.00    +0.000 C 
ATOM     21  N   UNL     1      -0.118  11.944  21.105  0.00  0.00    +0.000 NA
ATOM     22  C   UNL     1       0.931  12.560  20.264  0.00  0.00    +0.000 C 
ATOM     23  C   UNL     1       0.404  13.670  19.322  0.00  0.00    +0.000 C 
ATOM     24  O   UNL     1      -0.674  13.214  18.500  0.00  0.00    +0.000 OA
ATOM     25  C   UNL     1      -1.732  12.689  19.305  0.00  0.00    +0.000 C 
ATOM     26  C   UNL     1      -1.233  11.547  20.218  0.00  0.00    +0.000 C 
ATOM     27  C   UNL     1      -0.768  10.337  19.397  0.00  0.00    +0.000 C 
ATOM     28  C   UNL     1       0.666  10.396  18.839  0.00  0.00    +0.000 C 
ATOM     29  C   UNL     1       1.611  11.424  19.487  0.00  0.00    +0.000 C 
ENDBRANCH  16  28
ENDBRANCH   1  17
TORSDOF 2
ENDMDL
MODEL 6
REMARK VINA RESULT:      -8.0      1.211      1.266
REMARK  Name = 
REMARK  3 active torsions:
REMARK  status: ('A' for Active; 'I' for Inactive)
REMARK    1  A    between atoms: C_1  and  N_2
REMARK    2  A    between atoms: C_9  and  N_10
REMARK    3  A    between atoms: C_11  and  C_13
REMARK                            x       y       z     vdW  Elec       q    Type
REMARK                         _______ _______ _______ _____ _____    ______ ____
ROOT
ATOM      1  C   UNL     1       2.540   6.579  18.823  0.00  0.00    +0.000 A 
ATOM      2  C   UNL     1       3.659   6.809  18.031  0.00  0.00    +0.000 A 
ATOM      3  N   UNL     1       4.074   5.625  17.422  0.00  0.00    +0.000 N 
ATOM      4  C   UNL     1       5.240   5.507  16.641  0.00  0.00    +0.000 A 
ATOM      5  N   UNL     1       6.075   6.511  16.446  0.00  0.00    +0.000 NA
ATOM      6  C   UNL     1       7.153   6.061  15.701  0.00  0.00    +0.000 A 
ATOM      7  C   UNL     1       7.106   4.739  15.318  0.00  0.00    +0.000 A 
ATOM      8  S   UNL     1       5.673   4.024  15.915  0.00  0.00    +0.000 S 
ATOM      9  C   UNL     1       3.148   4.643  17.776  0.00  0.00    +0.000 A 
ATOM     10  N   UNL     1       3.166   3.350  17.364  0.00  0.00    +0.000 NA
ATOM     11  C   UNL     1       2.186   2.586  17.887  0.00  0.00    +0.000 A 
ATOM     12  C   UNL     1       1.214   3.027  18.759  0.00  0.00    +0.000 A 
ATOM     13  F   UNL     1       0.283   2.182  19.219  0.00  0.00    +0.000 F 
ATOM     14  C   UNL     1       1.208   4.357  19.158  0.00  0.00    +0.000 A 
ATOM     15  C   UNL     1       2.213   5.204  18.652  0.00  0.00    +0.000 A 
ENDROOT
BRANCH   1  17
ATOM     16  N   UNL     1       1.360   8.650  19.029  0.00  0.00    +0.000 N 
ATOM     17  C   UNL     1       1.845   7.540  19.686  0.00  0.00    +0.000 C 
ATOM     18  O   UNL     1       1.696   7.350  20.883  0.00  0.00    +0.000 OA
ATOM     19  H   UNL     1       1.254   8.567  18.026  0.00  0.00    +0.000 HD
BRANCH  16  28
ATOM     20  C   UNL     1       0.439  13.844  18.573  0.00  0.00    +0.000 C 
ATOM     21  N   UNL     1       0.534  12.421  18.886  0.00  0.00    +0.000 NA
ATOM     22  C   UNL     1      -0.775  11.740  18.775  0.00  0.00    +0.000 C 
ATOM     23  C   UNL     1      -1.752  12.075  19.929  0.00  0.00    +0.000 C 
ATOM     24  O   UNL     1      -1.178  11.821  21.214  0.00  0.00    +0.000 OA
ATOM     25  C   UNL     1       0.049  12.538  21.365  0.00  0.00    +0.000 C 
ATOM     26  C   UNL     1       1.055  12.180  20.248  0.00  0.00    +0.000 C 
ATOM     27  C   UNL     1       1.482  10.708  20.332  0.00  0.00    +0.000 C 
ATOM     28  C   UNL     1       0.535   9.681  19.685  0.00  0.00    +0.000 C 
ATOM     29  C   UNL     1      -0.493  10.235  18.682  0.00  0.00    +0.000 C 
ENDBRANCH  16  28
ENDBRANCH   1  17
TORSDOF 2
ENDMDL
MODEL 7
REMARK VINA RESULT:      -7.9      1.401      1.600
REMARK  Name = 
REMARK  3 active torsions:
REMARK  status: ('A' for Active; 'I' for Inactive)
REMARK    1  A    between atoms: C_1  and  N_2
REMARK    2  A    between atoms: C_9  and  N_10
REMARK    3  A    between atoms: C_11  and  C_13
REMARK                            x       y       z     vdW  Elec       q    Type
REMARK                         _______ _______ _______ _____ _____    ______ ____
ROOT
ATOM      1  C   UNL     1       2.714   6.563  18.684  0.00  0.00    +0.000 A 
ATOM      2  C   UNL     1       3.763   6.696  17.781  0.00  0.00    +0.000 A 
ATOM      3  N   UNL     1       4.061   5.465  17.199  0.00  0.00    +0.000 N 
ATOM      4  C   UNL     1       5.142   5.251  16.320  0.00  0.00    +0.000 A 
ATOM      5  N   UNL     1       6.000   6.200  15.997  0.00  0.00    +0.000 NA
ATOM      6  C   UNL     1       6.979   5.660  15.179  0.00  0.00    +0.000 A 
ATOM      7  C   UNL     1       6.834   4.325  14.871  0.00  0.00    +0.000 A 
ATOM      8  S   UNL     1       5.433   3.715  15.635  0.00  0.00    +0.000 S 
ATOM      9  C   UNL     1       3.128   4.551  17.688  0.00  0.00    +0.000 A 
ATOM     10  N   UNL     1       3.047   3.240  17.343  0.00  0.00    +0.000 NA
ATOM     11  C   UNL     1       2.085   2.553  17.994  0.00  0.00    +0.000 A 
ATOM     12  C   UNL     1       1.223   3.085  18.928  0.00  0.00    +0.000 A 
ATOM     13  F   UNL     1       0.302   2.312  19.515  0.00  0.00    +0.000 F 
ATOM     14  C   UNL     1       1.318   4.430  19.257  0.00  0.00    +0.000 A 
ATOM     15  C   UNL     1       2.308   5.199  18.617  0.00  0.00    +0.000 A 
ENDROOT
BRANCH   1  17
ATOM     16  N   UNL     1       1.914   8.803  18.933  0.00  0.00    +0.000 N 
ATOM     17  C   UNL     1       2.151   7.598  19.558  0.00  0.00    +0.000 C 
ATOM     18  O   UNL     1       1.897   7.390  20.734  0.00  0.00    +0.000 OA
ATOM     19  H   UNL     1       1.858   8.782  17.924  0.00  0.00    +0.000 HD
BRANCH  16  28
ATOM     20  C   UNL     1      -2.164  12.058  18.032  0.00  0.00    +0.000 C 
ATOM     21  N   UNL     1      -1.008  11.290  18.487  0.00  0.00    +0.000 NA
ATOM     22  C   UNL     1      -1.249  10.652  19.799  0.00  0.00    +0.000 C 
ATOM     23  C   UNL     1      -1.237  11.644  20.988  0.00  0.00    +0.000 C 
ATOM     24  O   UNL     1      -0.035  12.417  21.035  0.00  0.00    +0.000 OA
ATOM     25  C   UNL     1       0.169  13.104  19.798  0.00  0.00    +0.000 C 
ATOM     26  C   UNL     1       0.207  12.123  18.606  0.00  0.00    +0.000 C 
ATOM     27  C   UNL     1       1.414  11.179  18.697  0.00  0.00    +0.000 C 
ATOM     28  C   UNL     1       1.248   9.940  19.597  0.00  0.00    +0.000 C 
ATOM     29  C   UNL     1      -0.195   9.549  19.964  0.00  0.00    +0.000 C 
ENDBRANCH  16  28
ENDBRANCH   1  17
TORSDOF 2
ENDMDL
MODEL 8
REMARK VINA RESULT:      -7.9      3.887      8.813
REMARK  Name = 
REMARK  3 active torsions:
REMARK  status: ('A' for Active; 'I' for Inactive)
REMARK    1  A    between atoms: C_1  and  N_2
REMARK    2  A    between atoms: C_9  and  N_10
REMARK    3  A    between atoms: C_11  and  C_13
REMARK                            x       y       z     vdW  Elec       q    Type
REMARK                         _______ _______ _______ _____ _____    ______ ____
ROOT
ATOM      1  C   UNL     1      -0.162  10.399  19.261  0.00  0.00    +0.000 A 
ATOM      2  C   UNL     1      -0.464  11.230  20.333  0.00  0.00    +0.000 A 
ATOM      3  N   UNL     1      -1.703  11.840  20.139  0.00  0.00    +0.000 N 
ATOM      4  C   UNL     1      -2.242  12.818  20.998  0.00  0.00    +0.000 A 
ATOM      5  N   UNL     1      -1.597  13.276  22.055  0.00  0.00    +0.000 NA
ATOM      6  C   UNL     1      -2.357  14.272  22.648  0.00  0.00    +0.000 A 
ATOM      7  C   UNL     1      -3.572  14.532  22.054  0.00  0.00    +0.000 A 
ATOM      8  S   UNL     1      -3.775  13.507  20.702  0.00  0.00    +0.000 S 
ATOM      9  C   UNL     1      -2.228  11.321  18.956  0.00  0.00    +0.000 A 
ATOM     10  N   UNL     1      -3.439  11.628  18.424  0.00  0.00    +0.000 NA
ATOM     11  C   UNL     1      -3.695  11.028  17.243  0.00  0.00    +0.000 A 
ATOM     12  C   UNL     1      -2.846  10.158  16.593  0.00  0.00    +0.000 A 
ATOM     13  F   UNL     1      -3.201   9.615  15.422  0.00  0.00    +0.000 F 
ATOM     14  C   UNL     1      -1.618   9.850  17.162  0.00  0.00    +0.000 A 
ATOM     15  C   UNL     1      -1.289  10.452  18.391  0.00  0.00    +0.000 A 
ENDROOT
BRANCH   1  17
ATOM     16  N   UNL     1       1.173   8.484  19.785  0.00  0.00    +0.000 N 
ATOM     17  C   UNL     1       1.074   9.639  19.041  0.00  0.00    +0.000 C 
ATOM     18  O   UNL     1       1.926  10.000  18.244  0.00  0.00    +0.000 OA
ATOM     19  H   UNL     1       0.308   8.118  20.161  0.00  0.00    +0.000 HD
BRANCH  16  28
ATOM     20  C   UNL     1       1.967   3.706  17.645  0.00  0.00    +0.000 C 
ATOM     21  N   UNL     1       1.984   5.010  18.304  0.00  0.00    +0.000 NA
ATOM     22  C   UNL     1       2.978   5.923  17.699  0.00  0.00    +0.000 C 
ATOM     23  C   UNL     1       4.444   5.569  18.047  0.00  0.00    +0.000 C 
ATOM     24  O   UNL     1       4.658   5.482  19.459  0.00  0.00    +0.000 OA
ATOM     25  C   UNL     1       3.756   4.541  20.045  0.00  0.00    +0.000 C 
ATOM     26  C   UNL     1       2.285   4.906  19.747  0.00  0.00    +0.000 C 
ATOM     27  C   UNL     1       1.896   6.238  20.403  0.00  0.00    +0.000 C 
ATOM     28  C   UNL     1       2.276   7.518  19.635  0.00  0.00    +0.000 C 
ATOM     29  C   UNL     1       2.611   7.346  18.142  0.00  0.00    +0.000 C 
ENDBRANCH  16  28
ENDBRANCH   1  17
TORSDOF 2
ENDMDL
MODEL 9
REMARK VINA RESULT:      -7.7      3.600      8.213
REMARK  Name = 
REMARK  3 active torsions:
REMARK  status: ('A' for Active; 'I' for Inactive)
REMARK    1  A    between atoms: C_1  and  N_2
REMARK    2  A    between atoms: C_9  and  N_10
REMARK    3  A    between atoms: C_11  and  C_13
REMARK                            x       y       z     vdW  Elec       q    Type
REMARK                         _______ _______ _______ _____ _____    ______ ____
ROOT
ATOM      1  C   UNL     1       0.974   9.108  18.762  0.00  0.00    +0.000 A 
ATOM      2  C   UNL     1       0.091   9.559  17.787  0.00  0.00    +0.000 A 
ATOM      3  N   UNL     1      -0.975  10.237  18.374  0.00  0.00    +0.000 N 
ATOM      4  C   UNL     1      -2.089  10.723  17.661  0.00  0.00    +0.000 A 
ATOM      5  N   UNL     1      -2.241  10.542  16.362  0.00  0.00    +0.000 NA
ATOM      6  C   UNL     1      -3.461  11.071  15.975  0.00  0.00    +0.000 A 
ATOM      7  C   UNL     1      -4.200  11.668  16.973  0.00  0.00    +0.000 A 
ATOM      8  S   UNL     1      -3.349  11.560  18.452  0.00  0.00    +0.000 S 
ATOM      9  C   UNL     1      -0.718  10.284  19.745  0.00  0.00    +0.000 A 
ATOM     10  N   UNL     1      -1.497  10.889  20.677  0.00  0.00    +0.000 NA
ATOM     11  C   UNL     1      -1.056  10.751  21.945  0.00  0.00    +0.000 A 
ATOM     12  C   UNL     1       0.088  10.078  22.319  0.00  0.00    +0.000 A 
ATOM     13  F   UNL     1       0.436  10.003  23.609  0.00  0.00    +0.000 F 
ATOM     14  C   UNL     1       0.875   9.477  21.346  0.00  0.00    +0.000 A 
ATOM     15  C   UNL     1       0.461   9.578  20.005  0.00  0.00    +0.000 A 
ENDROOT
BRANCH   1  17
ATOM     16  N   UNL     1       2.174   7.101  19.265  0.00  0.00    +0.000 N 
ATOM     17  C   UNL     1       2.176   8.290  18.568  0.00  0.00    +0.000 C 
ATOM     18  O   UNL     1       3.086   8.634  17.831  0.00  0.00    +0.000 OA
ATOM     19  H   UNL     1       1.272   6.769  19.582  0.00  0.00    +0.000 HD
BRANCH  16  28
ATOM     20  C   UNL     1       2.600   2.052  17.727  0.00  0.00    +0.000 C 
ATOM     21  N   UNL     1       2.724   3.431  18.194  0.00  0.00    +0.000 NA
ATOM     22  C   UNL     1       3.662   4.215  17.360  0.00  0.00    +0.000 C 
ATOM     23  C   UNL     1       5.150   3.853  17.587  0.00  0.00    +0.000 C 
ATOM     24  O   UNL     1       5.526   3.948  18.964  0.00  0.00    +0.000 OA
ATOM     25  C   UNL     1       4.677   3.130  19.772  0.00  0.00    +0.000 C 
ATOM     26  C   UNL     1       3.190   3.510  19.594  0.00  0.00    +0.000 C 
ATOM     27  C   UNL     1       2.911   4.931  20.100  0.00  0.00    +0.000 C 
ATOM     28  C   UNL     1       3.229   6.081  19.126  0.00  0.00    +0.000 C 
ATOM     29  C   UNL     1       3.383   5.698  17.643  0.00  0.00    +0.000 C 
ENDBRANCH  16  28
ENDBRANCH   1  17
TORSDOF 2
ENDMDL
