MODEL 1
REMARK VINA RESULT:      -8.5      0.000      0.000
REMARK  Name = 
REMARK  4 active torsions:
REMARK  status: ('A' for Active; 'I' for Inactive)
REMARK    1  A    between atoms: S_2  and  C_4
REMARK    2  A    between atoms: S_2  and  N_25
REMARK    3  A    between atoms: N_10  and  C_11
REMARK    4  A    between atoms: C_16  and  C_17
REMARK                            x       y       z     vdW  Elec       q    Type
REMARK                         _______ _______ _______ _____ _____    ______ ____
ROOT
ATOM      1  C   UNL     1       0.104  10.730  20.170  0.00  0.00    +0.000 A 
ATOM      2  C   UNL     1      -0.345  10.257  21.417  0.00  0.00    +0.000 A 
ATOM      3  C   UNL     1       0.061   9.001  21.901  0.00  0.00    +0.000 A 
ATOM      4  C   UNL     1       0.914   8.283  21.069  0.00  0.00    +0.000 A 
ATOM      5  O   UNL     1       1.466   7.050  21.284  0.00  0.00    +0.000 OA
ATOM      6  C   UNL     1       2.217   6.822  20.157  0.00  0.00    +0.000 A 
ATOM      7  N   UNL     1       2.916   5.673  20.135  0.00  0.00    +0.000 N 
ATOM      8  N   UNL     1       2.176   7.797  19.273  0.00  0.00    +0.000 NA
ATOM      9  C   UNL     1       1.361   8.730  19.838  0.00  0.00    +0.000 A 
ATOM     10  C   UNL     1       0.962   9.977  19.360  0.00  0.00    +0.000 A 
ATOM     11  H   UNL     1       2.911   5.105  20.969  0.00  0.00    +0.000 HD
ENDROOT
BRANCH   7  12
ATOM     12  C   UNL     1       3.689   5.199  19.059  0.00  0.00    +0.000 A 
ATOM     13  C   UNL     1       3.135   4.562  17.945  0.00  0.00    +0.000 A 
ATOM     14  C   UNL     1       3.930   4.159  16.871  0.00  0.00    +0.000 A 
ATOM     15  C   UNL     1       5.305   4.398  16.874  0.00  0.00    +0.000 A 
ATOM     16 CL   UNL     1       6.183   3.844  15.496  0.00  0.00    +0.000 Cl
ATOM     17  C   UNL     1       5.896   5.056  17.955  0.00  0.00    +0.000 A 
ATOM     18  C   UNL     1       5.069   5.452  19.037  0.00  0.00    +0.000 A 
BRANCH  17  19
ATOM     19  C   UNL     1       7.360   5.395  18.047  0.00  0.00    +0.000 C 
ATOM     20  F   UNL     1       7.799   5.905  19.224  0.00  0.00    +0.000 F 
ATOM     21  F   UNL     1       8.146   4.305  17.806  0.00  0.00    +0.000 F 
ATOM     22  F   UNL     1       7.721   6.312  17.100  0.00  0.00    +0.000 F 
ENDBRANCH  17  19
ENDBRANCH   7  12
BRANCH   1  24
ATOM     23  O   UNL     1       0.084  12.408  18.192  0.00  0.00    +0.000 OA
ATOM     24  S   UNL     1      -0.496  12.267  19.512  0.00  0.00    +0.000 S 
ATOM     25  O   UNL     1      -1.926  12.300  19.700  0.00  0.00    +0.000 OA
BRANCH  24  26
ATOM     26  N   UNL     1       0.221  13.438  20.529  0.00  0.00    +0.000 NA
ATOM     27  C   UNL     1      -0.059  14.877  20.222  0.00  0.00    +0.000 C 
ATOM     28  C   UNL     1       0.780  15.371  19.037  0.00  0.00    +0.000 C 
ATOM     29  O   UNL     1       2.182  15.168  19.268  0.00  0.00    +0.000 OA
ATOM     30  C   UNL     1       2.475  13.782  19.511  0.00  0.00    +0.000 C 
ATOM     31  C   UNL     1       1.700  13.264  20.727  0.00  0.00    +0.000 C 
ENDBRANCH  24  26
ENDBRANCH   1  24
TORSDOF 4
ENDMDL
MODEL 2
REMARK VINA RESULT:      -8.5      0.730      1.020
REMARK  Name = 
REMARK  4 active torsions:
REMARK  status: ('A' for Active; 'I' for Inactive)
REMARK    1  A    between atoms: S_2  and  C_4
REMARK    2  A    between atoms: S_2  and  N_25
REMARK    3  A    between atoms: N_10  and  C_11
REMARK    4  A    between atoms: C_16  and  C_17
REMARK                            x       y       z     vdW  Elec       q    Type
REMARK                         _______ _______ _______ _____ _____    ______ ____
ROOT
ATOM      1  C   UNL     1       0.102  10.683  20.265  0.00  0.00    +0.000 A 
ATOM      2  C   UNL     1      -0.313  10.202  21.521  0.00  0.00    +0.000 A 
ATOM      3  C   UNL     1       0.112   8.946  21.988  0.00  0.00    +0.000 A 
ATOM      4  C   UNL     1       0.950   8.238  21.133  0.00  0.00    +0.000 A 
ATOM      5  O   UNL     1       1.514   7.007  21.329  0.00  0.00    +0.000 OA
ATOM      6  C   UNL     1       2.239   6.788  20.183  0.00  0.00    +0.000 A 
ATOM      7  N   UNL     1       2.945   5.644  20.138  0.00  0.00    +0.000 N 
ATOM      8  N   UNL     1       2.171   7.767  19.305  0.00  0.00    +0.000 NA
ATOM      9  C   UNL     1       1.364   8.692  19.894  0.00  0.00    +0.000 A 
ATOM     10  C   UNL     1       0.945   9.939  19.431  0.00  0.00    +0.000 A 
ATOM     11  H   UNL     1       2.963   5.073  20.971  0.00  0.00    +0.000 HD
ENDROOT
BRANCH   7  12
ATOM     12  C   UNL     1       3.694   5.180  19.043  0.00  0.00    +0.000 A 
ATOM     13  C   UNL     1       3.119   4.533  17.945  0.00  0.00    +0.000 A 
ATOM     14  C   UNL     1       3.889   4.140  16.849  0.00  0.00    +0.000 A 
ATOM     15  C   UNL     1       5.260   4.399  16.814  0.00  0.00    +0.000 A 
ATOM     16 CL   UNL     1       6.107   3.856  15.413  0.00  0.00    +0.000 Cl
ATOM     17  C   UNL     1       5.871   5.067  17.878  0.00  0.00    +0.000 A 
ATOM     18  C   UNL     1       5.069   5.453  18.982  0.00  0.00    +0.000 A 
BRANCH  17  19
ATOM     19  C   UNL     1       7.332   5.428  17.928  0.00  0.00    +0.000 C 
ATOM     20  F   UNL     1       7.786   5.987  19.077  0.00  0.00    +0.000 F 
ATOM     21  F   UNL     1       8.128   4.339  17.713  0.00  0.00    +0.000 F 
ATOM     22  F   UNL     1       7.663   6.312  16.940  0.00  0.00    +0.000 F 
ENDBRANCH  17  19
ENDBRANCH   7  12
BRANCH   1  24
ATOM     23  O   UNL     1      -0.502  12.109  18.185  0.00  0.00    +0.000 OA
ATOM     24  S   UNL     1      -0.523  12.219  19.629  0.00  0.00    +0.000 S 
ATOM     25  O   UNL     1      -1.747  12.523  20.331  0.00  0.00    +0.000 OA
BRANCH  24  26
ATOM     26  N   UNL     1       0.671  13.351  20.087  0.00  0.00    +0.000 NA
ATOM     27  C   UNL     1       0.451  14.102  21.365  0.00  0.00    +0.000 C 
ATOM     28  C   UNL     1      -0.571  15.231  21.184  0.00  0.00    +0.000 C 
ATOM     29  O   UNL     1      -0.178  16.127  20.134  0.00  0.00    +0.000 OA
ATOM     30  C   UNL     1      -0.015  15.431  18.887  0.00  0.00    +0.000 C 
ATOM     31  C   UNL     1       1.044  14.330  19.010  0.00  0.00    +0.000 C 
ENDBRANCH  24  26
ENDBRANCH   1  24
TORSDOF 4
ENDMDL
MODEL 3
REMARK VINA RESULT:      -8.5      3.528      4.431
REMARK  Name = 
REMARK  4 active torsions:
REMARK  status: ('A' for Active; 'I' for Inactive)
REMARK    1  A    between atoms: S_2  and  C_4
REMARK    2  A    between atoms: S_2  and  N_25
REMARK    3  A    between atoms: N_10  and  C_11
REMARK    4  A    between atoms: C_16  and  C_17
REMARK                            x       y       z     vdW  Elec       q    Type
REMARK                         _______ _______ _______ _____ _____    ______ ____
ROOT
ATOM      1  C   UNL     1       0.030  11.266  20.909  0.00  0.00    +0.000 A 
ATOM      2  C   UNL     1       0.113  11.958  19.686  0.00  0.00    +0.000 A 
ATOM      3  C   UNL     1       0.720  11.367  18.564  0.00  0.00    +0.000 A 
ATOM      4  C   UNL     1       1.219  10.083  18.755  0.00  0.00    +0.000 A 
ATOM      5  O   UNL     1       1.847   9.276  17.847  0.00  0.00    +0.000 OA
ATOM      6  C   UNL     1       2.127   8.134  18.558  0.00  0.00    +0.000 A 
ATOM      7  N   UNL     1       2.714   7.138  17.870  0.00  0.00    +0.000 N 
ATOM      8  N   UNL     1       1.731   8.167  19.812  0.00  0.00    +0.000 NA
ATOM      9  C   UNL     1       1.151   9.391  19.951  0.00  0.00    +0.000 A 
ATOM     10  C   UNL     1       0.546   9.974  21.063  0.00  0.00    +0.000 A 
ATOM     11  H   UNL     1       2.830   7.261  16.874  0.00  0.00    +0.000 HD
ENDROOT
BRANCH   7  12
ATOM     12  C   UNL     1       3.156   5.916  18.405  0.00  0.00    +0.000 A 
ATOM     13  C   UNL     1       4.507   5.616  18.606  0.00  0.00    +0.000 A 
ATOM     14  C   UNL     1       4.903   4.414  19.196  0.00  0.00    +0.000 A 
ATOM     15  C   UNL     1       3.954   3.481  19.617  0.00  0.00    +0.000 A 
ATOM     16 CL   UNL     1       4.565   2.030  20.320  0.00  0.00    +0.000 Cl
ATOM     17  C   UNL     1       2.592   3.752  19.459  0.00  0.00    +0.000 A 
ATOM     18  C   UNL     1       2.215   4.978  18.854  0.00  0.00    +0.000 A 
BRANCH  17  19
ATOM     19  C   UNL     1       1.486   2.835  19.908  0.00  0.00    +0.000 C 
ATOM     20  F   UNL     1       0.215   3.265  19.711  0.00  0.00    +0.000 F 
ATOM     21  F   UNL     1       1.559   1.618  19.293  0.00  0.00    +0.000 F 
ATOM     22  F   UNL     1       1.572   2.564  21.245  0.00  0.00    +0.000 F 
ENDBRANCH  17  19
ENDBRANCH   7  12
BRANCH   1  24
ATOM     23  O   UNL     1      -0.618  11.065  23.412  0.00  0.00    +0.000 OA
ATOM     24  S   UNL     1      -0.638  12.054  22.354  0.00  0.00    +0.000 S 
ATOM     25  O   UNL     1       0.028  13.323  22.514  0.00  0.00    +0.000 OA
BRANCH  24  26
ATOM     26  N   UNL     1      -2.269  12.337  21.931  0.00  0.00    +0.000 NA
ATOM     27  C   UNL     1      -2.568  13.571  21.137  0.00  0.00    +0.000 C 
ATOM     28  C   UNL     1      -2.565  14.823  22.022  0.00  0.00    +0.000 C 
ATOM     29  O   UNL     1      -3.486  14.692  23.115  0.00  0.00    +0.000 OA
ATOM     30  C   UNL     1      -3.180  13.541  23.921  0.00  0.00    +0.000 C 
ATOM     31  C   UNL     1      -3.231  12.259  23.083  0.00  0.00    +0.000 C 
ENDBRANCH  24  26
ENDBRANCH   1  24
TORSDOF 4
ENDMDL
MODEL 4
REMARK VINA RESULT:      -8.5      6.452     10.361
REMARK  Name = 
REMARK  4 active torsions:
REMARK  status: ('A' for Active; 'I' for Inactive)
REMARK    1  A    between atoms: S_2  and  C_4
REMARK    2  A    between atoms: S_2  and  N_25
REMARK    3  A    between atoms: N_10  and  C_11
REMARK    4  A    between atoms: C_16  and  C_17
REMARK                            x       y       z     vdW  Elec       q    Type
REMARK                         _______ _______ _______ _____ _____    ______ ____
ROOT
ATOM      1  C   UNL     1       2.662   6.979  19.184  0.00  0.00    +0.000 A 
ATOM      2  C   UNL     1       2.964   7.602  17.958  0.00  0.00    +0.000 A 
ATOM      3  C   UNL     1       2.399   8.845  17.622  0.00  0.00    +0.000 A 
ATOM      4  C   UNL     1       1.541   9.391  18.570  0.00  0.00    +0.000 A 
ATOM      5  O   UNL     1       0.862  10.578  18.513  0.00  0.00    +0.000 OA
ATOM      6  C   UNL     1       0.170  10.622  19.699  0.00  0.00    +0.000 A 
ATOM      7  N   UNL     1      -0.555  11.732  19.920  0.00  0.00    +0.000 N 
ATOM      8  N   UNL     1       0.361   9.575  20.475  0.00  0.00    +0.000 NA
ATOM      9  C   UNL     1       1.228   8.792  19.777  0.00  0.00    +0.000 A 
ATOM     10  C   UNL     1       1.791   7.561  20.113  0.00  0.00    +0.000 A 
ATOM     11  H   UNL     1      -0.477  12.484  19.251  0.00  0.00    +0.000 HD
ENDROOT
BRANCH   7  12
ATOM     12  C   UNL     1      -1.396  11.961  21.024  0.00  0.00    +0.000 A 
ATOM     13  C   UNL     1      -0.950  11.901  22.347  0.00  0.00    +0.000 A 
ATOM     14  C   UNL     1      -1.803  12.193  23.414  0.00  0.00    +0.000 A 
ATOM     15  C   UNL     1      -3.126  12.572  23.183  0.00  0.00    +0.000 A 
ATOM     16 CL   UNL     1      -4.085  12.897  24.580  0.00  0.00    +0.000 Cl
ATOM     17  C   UNL     1      -3.606  12.671  21.875  0.00  0.00    +0.000 A 
ATOM     18  C   UNL     1      -2.723  12.365  20.808  0.00  0.00    +0.000 A 
BRANCH  17  19
ATOM     19  C   UNL     1      -5.002  13.101  21.512  0.00  0.00    +0.000 C 
ATOM     20  F   UNL     1      -6.022  12.368  22.022  0.00  0.00    +0.000 F 
ATOM     21  F   UNL     1      -5.249  14.388  21.897  0.00  0.00    +0.000 F 
ATOM     22  F   UNL     1      -5.191  13.091  20.158  0.00  0.00    +0.000 F 
ENDBRANCH  17  19
ENDBRANCH   7  12
BRANCH   1  24
ATOM     23  O   UNL     1       4.733   5.473  19.592  0.00  0.00    +0.000 OA
ATOM     24  S   UNL     1       3.289   5.360  19.558  0.00  0.00    +0.000 S 
ATOM     25  O   UNL     1       2.559   4.855  20.696  0.00  0.00    +0.000 OA
BRANCH  24  26
ATOM     26  N   UNL     1       2.866   4.444  18.181  0.00  0.00    +0.000 NA
ATOM     27  C   UNL     1       1.451   3.961  18.086  0.00  0.00    +0.000 C 
ATOM     28  C   UNL     1       1.213   2.743  18.987  0.00  0.00    +0.000 C 
ATOM     29  O   UNL     1       2.130   1.681  18.683  0.00  0.00    +0.000 OA
ATOM     30  C   UNL     1       3.494   2.114  18.822  0.00  0.00    +0.000 C 
ATOM     31  C   UNL     1       3.789   3.295  17.892  0.00  0.00    +0.000 C 
ENDBRANCH  24  26
ENDBRANCH   1  24
TORSDOF 4
ENDMDL
MODEL 5
REMARK VINA RESULT:      -8.3      2.379      3.324
REMARK  Name = 
REMARK  4 active torsions:
REMARK  status: ('A' for Active; 'I' for Inactive)
REMARK    1  A    between atoms: S_2  and  C_4
REMARK    2  A    between atoms: S_2  and  N_25
REMARK    3  A    between atoms: N_10  and  C_11
REMARK    4  A    between atoms: C_16  and  C_17
REMARK                            x       y       z     vdW  Elec       q    Type
REMARK                         _______ _______ _______ _____ _____    ______ ____
ROOT
ATOM      1  C   UNL     1      -0.692  10.375  19.575  0.00  0.00    +0.000 A 
ATOM      2  C   UNL     1      -0.693  10.308  20.981  0.00  0.00    +0.000 A 
ATOM      3  C   UNL     1       0.139   9.400  21.660  0.00  0.00    +0.000 A 
ATOM      4  C   UNL     1       0.936   8.595  20.853  0.00  0.00    +0.000 A 
ATOM      5  O   UNL     1       1.834   7.638  21.238  0.00  0.00    +0.000 OA
ATOM      6  C   UNL     1       2.335   7.158  20.052  0.00  0.00    +0.000 A 
ATOM      7  N   UNL     1       3.294   6.220  20.151  0.00  0.00    +0.000 N 
ATOM      8  N   UNL     1       1.828   7.730  18.980  0.00  0.00    +0.000 NA
ATOM      9  C   UNL     1       0.946   8.643  19.471  0.00  0.00    +0.000 A 
ATOM     10  C   UNL     1       0.125   9.547  18.797  0.00  0.00    +0.000 A 
ATOM     11  H   UNL     1       3.637   5.996  21.074  0.00  0.00    +0.000 HD
ENDROOT
BRANCH   7  12
ATOM     12  C   UNL     1       3.893   5.537  19.078  0.00  0.00    +0.000 A 
ATOM     13  C   UNL     1       3.168   4.772  18.161  0.00  0.00    +0.000 A 
ATOM     14  C   UNL     1       3.792   4.157  17.074  0.00  0.00    +0.000 A 
ATOM     15  C   UNL     1       5.164   4.306  16.864  0.00  0.00    +0.000 A 
ATOM     16 CL   UNL     1       5.823   3.492  15.494  0.00  0.00    +0.000 Cl
ATOM     17  C   UNL     1       5.923   5.085  17.741  0.00  0.00    +0.000 A 
ATOM     18  C   UNL     1       5.267   5.696  18.840  0.00  0.00    +0.000 A 
BRANCH  17  19
ATOM     19  C   UNL     1       7.399   5.341  17.590  0.00  0.00    +0.000 C 
ATOM     20  F   UNL     1       8.209   4.254  17.555  0.00  0.00    +0.000 F 
ATOM     21  F   UNL     1       7.676   6.040  16.451  0.00  0.00    +0.000 F 
ATOM     22  F   UNL     1       7.878   6.115  18.610  0.00  0.00    +0.000 F 
ENDBRANCH  17  19
ENDBRANCH   7  12
BRANCH   1  24
ATOM     23  O   UNL     1      -2.550  12.178  19.731  0.00  0.00    +0.000 OA
ATOM     24  S   UNL     1      -1.821  11.445  18.717  0.00  0.00    +0.000 S 
ATOM     25  O   UNL     1      -1.080  12.137  17.691  0.00  0.00    +0.000 OA
BRANCH  24  26
ATOM     26  N   UNL     1      -2.907  10.356  17.973  0.00  0.00    +0.000 NA
ATOM     27  C   UNL     1      -2.577   9.897  16.586  0.00  0.00    +0.000 C 
ATOM     28  C   UNL     1      -2.915  10.970  15.544  0.00  0.00    +0.000 C 
ATOM     29  O   UNL     1      -4.293  11.365  15.630  0.00  0.00    +0.000 OA
ATOM     30  C   UNL     1      -4.613  11.860  16.941  0.00  0.00    +0.000 C 
ATOM     31  C   UNL     1      -4.344  10.793  18.008  0.00  0.00    +0.000 C 
ENDBRANCH  24  26
ENDBRANCH   1  24
TORSDOF 4
ENDMDL
MODEL 6
REMARK VINA RESULT:      -8.2      3.139      4.535
REMARK  Name = 
REMARK  4 active torsions:
REMARK  status: ('A' for Active; 'I' for Inactive)
REMARK    1  A    between atoms: S_2  and  C_4
REMARK    2  A    between atoms: S_2  and  N_25
REMARK    3  A    between atoms: N_10  and  C_11
REMARK    4  A    between atoms: C_16  and  C_17
REMARK                            x       y       z     vdW  Elec       q    Type
REMARK                         _______ _______ _______ _____ _____    ______ ____
ROOT
ATOM      1  C   UNL     1       1.588   7.314  20.497  0.00  0.00    +0.000 A 
ATOM      2  C   UNL     1       1.233   6.106  21.127  0.00  0.00    +0.000 A 
ATOM      3  C   UNL     1       1.767   4.881  20.690  0.00  0.00    +0.000 A 
ATOM      4  C   UNL     1       2.646   4.957  19.615  0.00  0.00    +0.000 A 
ATOM      5  O   UNL     1       3.311   3.937  18.993  0.00  0.00    +0.000 OA
ATOM      6  C   UNL     1       4.034   4.565  18.007  0.00  0.00    +0.000 A 
ATOM      7  N   UNL     1       4.830   3.776  17.263  0.00  0.00    +0.000 N 
ATOM      8  N   UNL     1       3.872   5.871  17.967  0.00  0.00    +0.000 NA
ATOM      9  C   UNL     1       3.001   6.134  18.980  0.00  0.00    +0.000 A 
ATOM     10  C   UNL     1       2.475   7.349  19.415  0.00  0.00    +0.000 A 
ATOM     11  H   UNL     1       4.908   2.805  17.529  0.00  0.00    +0.000 HD
ENDROOT
BRANCH   7  12
ATOM     12  C   UNL     1       5.597   4.187  16.158  0.00  0.00    +0.000 A 
ATOM     13  C   UNL     1       6.758   4.955  16.280  0.00  0.00    +0.000 A 
ATOM     14  C   UNL     1       7.525   5.293  15.163  0.00  0.00    +0.000 A 
ATOM     15  C   UNL     1       7.158   4.855  13.890  0.00  0.00    +0.000 A 
ATOM     16 CL   UNL     1       8.178   5.345  12.588  0.00  0.00    +0.000 Cl
ATOM     17  C   UNL     1       6.019   4.063  13.726  0.00  0.00    +0.000 A 
ATOM     18  C   UNL     1       5.254   3.737  14.874  0.00  0.00    +0.000 A 
BRANCH  17  19
ATOM     19  C   UNL     1       5.552   3.509  12.406  0.00  0.00    +0.000 C 
ATOM     20  F   UNL     1       5.882   4.213  11.295  0.00  0.00    +0.000 F 
ATOM     21  F   UNL     1       6.025   2.247  12.193  0.00  0.00    +0.000 F 
ATOM     22  F   UNL     1       4.190   3.392  12.368  0.00  0.00    +0.000 F 
ENDBRANCH  17  19
ENDBRANCH   7  12
BRANCH   1  24
ATOM     23  O   UNL     1      -0.470   8.511  21.527  0.00  0.00    +0.000 OA
ATOM     24  S   UNL     1       0.829   8.846  20.979  0.00  0.00    +0.000 S 
ATOM     25  O   UNL     1       1.790   9.590  21.755  0.00  0.00    +0.000 OA
BRANCH  24  26
ATOM     26  N   UNL     1       0.581   9.648  19.492  0.00  0.00    +0.000 NA
ATOM     27  C   UNL     1       1.502  10.782  19.161  0.00  0.00    +0.000 C 
ATOM     28  C   UNL     1       1.123  12.055  19.928  0.00  0.00    +0.000 C 
ATOM     29  O   UNL     1      -0.241  12.426  19.682  0.00  0.00    +0.000 OA
ATOM     30  C   UNL     1      -1.144  11.368  20.045  0.00  0.00    +0.000 C 
ATOM     31  C   UNL     1      -0.835  10.091  19.255  0.00  0.00    +0.000 C 
ENDBRANCH  24  26
ENDBRANCH   1  24
TORSDOF 4
ENDMDL
MODEL 7
REMARK VINA RESULT:      -8.1      6.557      9.155
REMARK  Name = 
REMARK  4 active torsions:
REMARK  status: ('A' for Active; 'I' for Inactive)
REMARK    1  A    between atoms: S_2  and  C_4
REMARK    2  A    between atoms: S_2  and  N_25
REMARK    3  A    between atoms: N_10  and  C_11
REMARK    4  A    between atoms: C_16  and  C_17
REMARK                            x       y       z     vdW  Elec       q    Type
REMARK                         _______ _______ _______ _____ _____    ______ ____
ROOT
ATOM      1  C   UNL     1       5.285   4.219  18.018  0.00  0.00    +0.000 A 
ATOM      2  C   UNL     1       5.643   3.977  16.678  0.00  0.00    +0.000 A 
ATOM      3  C   UNL     1       6.467   4.877  15.979  0.00  0.00    +0.000 A 
ATOM      4  C   UNL     1       6.884   5.993  16.696  0.00  0.00    +0.000 A 
ATOM      5  O   UNL     1       7.687   7.017  16.275  0.00  0.00    +0.000 OA
ATOM      6  C   UNL     1       7.774   7.842  17.371  0.00  0.00    +0.000 A 
ATOM      7  N   UNL     1       8.562   8.923  17.236  0.00  0.00    +0.000 N 
ATOM      8  N   UNL     1       7.102   7.419  18.420  0.00  0.00    +0.000 NA
ATOM      9  C   UNL     1       6.538   6.249  18.011  0.00  0.00    +0.000 A 
ATOM     10  C   UNL     1       5.724   5.356  18.706  0.00  0.00    +0.000 A 
ATOM     11  H   UNL     1       9.096   9.011  16.383  0.00  0.00    +0.000 HD
ENDROOT
BRANCH   7  12
ATOM     12  C   UNL     1       8.740   9.938  18.193  0.00  0.00    +0.000 A 
ATOM     13  C   UNL     1       9.283   9.703  19.460  0.00  0.00    +0.000 A 
ATOM     14  C   UNL     1       9.498  10.748  20.361  0.00  0.00    +0.000 A 
ATOM     15  C   UNL     1       9.192  12.064  20.012  0.00  0.00    +0.000 A 
ATOM     16 CL   UNL     1       9.493  13.265  21.212  0.00  0.00    +0.000 Cl
ATOM     17  C   UNL     1       8.673  12.347  18.746  0.00  0.00    +0.000 A 
ATOM     18  C   UNL     1       8.459  11.269  17.849  0.00  0.00    +0.000 A 
BRANCH  17  19
ATOM     19  C   UNL     1       8.340  13.730  18.253  0.00  0.00    +0.000 C 
ATOM     20  F   UNL     1       9.384  14.552  17.984  0.00  0.00    +0.000 F 
ATOM     21  F   UNL     1       7.600  13.692  17.107  0.00  0.00    +0.000 F 
ATOM     22  F   UNL     1       7.568  14.408  19.154  0.00  0.00    +0.000 F 
ENDBRANCH  17  19
ENDBRANCH   7  12
BRANCH   1  24
ATOM     23  O   UNL     1       3.671   2.194  17.881  0.00  0.00    +0.000 OA
ATOM     24  S   UNL     1       4.156   3.140  18.865  0.00  0.00    +0.000 S 
ATOM     25  O   UNL     1       4.800   2.687  20.073  0.00  0.00    +0.000 OA
BRANCH  24  26
ATOM     26  N   UNL     1       2.862   4.173  19.284  0.00  0.00    +0.000 NA
ATOM     27  C   UNL     1       2.725   4.551  20.726  0.00  0.00    +0.000 C 
ATOM     28  C   UNL     1       2.103   3.415  21.548  0.00  0.00    +0.000 C 
ATOM     29  O   UNL     1       0.835   3.014  21.009  0.00  0.00    +0.000 OA
ATOM     30  C   UNL     1       0.958   2.596  19.639  0.00  0.00    +0.000 C 
ATOM     31  C   UNL     1       1.522   3.727  18.772  0.00  0.00    +0.000 C 
ENDBRANCH  24  26
ENDBRANCH   1  24
TORSDOF 4
ENDMDL
MODEL 8
REMARK VINA RESULT:      -8.1      1.066      1.436
REMARK  Name = 
REMARK  4 active torsions:
REMARK  status: ('A' for Active; 'I' for Inactive)
REMARK    1  A    between atoms: S_2  and  C_4
REMARK    2  A    between atoms: S_2  and  N_25
REMARK    3  A    between atoms: N_10  and  C_11
REMARK    4  A    between atoms: C_16  and  C_17
REMARK                            x       y       z     vdW  Elec       q    Type
REMARK                         _______ _______ _______ _____ _____    ______ ____
ROOT
ATOM      1  C   UNL     1       0.101  10.828  20.440  0.00  0.00    +0.000 A 
ATOM      2  C   UNL     1      -0.440  10.289  21.622  0.00  0.00    +0.000 A 
ATOM      3  C   UNL     1      -0.110   8.987  22.038  0.00  0.00    +0.000 A 
ATOM      4  C   UNL     1       0.766   8.295  21.210  0.00  0.00    +0.000 A 
ATOM      5  O   UNL     1       1.259   7.029  21.370  0.00  0.00    +0.000 OA
ATOM      6  C   UNL     1       2.069   6.848  20.276  0.00  0.00    +0.000 A 
ATOM      7  N   UNL     1       2.727   5.676  20.214  0.00  0.00    +0.000 N 
ATOM      8  N   UNL     1       2.119   7.882  19.463  0.00  0.00    +0.000 NA
ATOM      9  C   UNL     1       1.304   8.806  20.043  0.00  0.00    +0.000 A 
ATOM     10  C   UNL     1       0.981  10.098  19.631  0.00  0.00    +0.000 A 
ATOM     11  H   UNL     1       2.650   5.053  21.005  0.00  0.00    +0.000 HD
ENDROOT
BRANCH   7  12
ATOM     12  C   UNL     1       3.547   5.246  19.156  0.00  0.00    +0.000 A 
ATOM     13  C   UNL     1       3.045   4.644  17.998  0.00  0.00    +0.000 A 
ATOM     14  C   UNL     1       3.887   4.285  16.944  0.00  0.00    +0.000 A 
ATOM     15  C   UNL     1       5.258   4.534  17.012  0.00  0.00    +0.000 A 
ATOM     16 CL   UNL     1       6.196   4.036  15.653  0.00  0.00    +0.000 Cl
ATOM     17  C   UNL     1       5.799   5.159  18.139  0.00  0.00    +0.000 A 
ATOM     18  C   UNL     1       4.924   5.511  19.199  0.00  0.00    +0.000 A 
BRANCH  17  19
ATOM     19  C   UNL     1       7.255   5.506  18.302  0.00  0.00    +0.000 C 
ATOM     20  F   UNL     1       7.741   6.494  17.511  0.00  0.00    +0.000 F 
ATOM     21  F   UNL     1       7.542   5.887  19.581  0.00  0.00    +0.000 F 
ATOM     22  F   UNL     1       8.056   4.424  18.063  0.00  0.00    +0.000 F 
ENDBRANCH  17  19
ENDBRANCH   7  12
BRANCH   1  24
ATOM     23  O   UNL     1       0.788  13.073  19.339  0.00  0.00    +0.000 OA
ATOM     24  S   UNL     1      -0.401  12.429  19.858  0.00  0.00    +0.000 S 
ATOM     25  O   UNL     1      -1.569  12.253  19.030  0.00  0.00    +0.000 OA
BRANCH  24  26
ATOM     26  N   UNL     1      -0.857  13.243  21.289  0.00  0.00    +0.000 NA
ATOM     27  C   UNL     1      -2.106  14.069  21.240  0.00  0.00    +0.000 C 
ATOM     28  C   UNL     1      -1.866  15.410  20.536  0.00  0.00    +0.000 C 
ATOM     29  O   UNL     1      -0.801  16.143  21.159  0.00  0.00    +0.000 OA
ATOM     30  C   UNL     1       0.421  15.385  21.165  0.00  0.00    +0.000 C 
ATOM     31  C   UNL     1       0.238  14.061  21.913  0.00  0.00    +0.000 C 
ENDBRANCH  24  26
ENDBRANCH   1  24
TORSDOF 4
ENDMDL
MODEL 9
REMARK VINA RESULT:      -8.1      5.028      8.801
REMARK  Name = 
REMARK  4 active torsions:
REMARK  status: ('A' for Active; 'I' for Inactive)
REMARK    1  A    between atoms: S_2  and  C_4
REMARK    2  A    between atoms: S_2  and  N_25
REMARK    3  A    between atoms: N_10  and  C_11
REMARK    4  A    between atoms: C_16  and  C_17
REMARK                            x       y       z     vdW  Elec       q    Type
REMARK                         _______ _______ _______ _____ _____    ______ ____
ROOT
ATOM      1  C   UNL     1       3.134   5.326  18.898  0.00  0.00    +0.000 A 
ATOM      2  C   UNL     1       2.551   4.741  20.038  0.00  0.00    +0.000 A 
ATOM      3  C   UNL     1       1.740   5.498  20.902  0.00  0.00    +0.000 A 
ATOM      4  C   UNL     1       1.568   6.832  20.550  0.00  0.00    +0.000 A 
ATOM      5  O   UNL     1       0.834   7.789  21.196  0.00  0.00    +0.000 OA
ATOM      6  C   UNL     1       1.010   8.915  20.429  0.00  0.00    +0.000 A 
ATOM      7  N   UNL     1       0.341  10.012  20.826  0.00  0.00    +0.000 N 
ATOM      8  N   UNL     1       1.781   8.738  19.377  0.00  0.00    +0.000 NA
ATOM      9  C   UNL     1       2.137   7.425  19.437  0.00  0.00    +0.000 A 
ATOM     10  C   UNL     1       2.939   6.674  18.578  0.00  0.00    +0.000 A 
ATOM     11  H   UNL     1      -0.302   9.915  21.599  0.00  0.00    +0.000 HD
ENDROOT
BRANCH   7  12
ATOM     12  C   UNL     1       0.428  11.288  20.241  0.00  0.00    +0.000 A 
ATOM     13  C   UNL     1      -0.549  11.802  19.385  0.00  0.00    +0.000 A 
ATOM     14  C   UNL     1      -0.455  13.097  18.871  0.00  0.00    +0.000 A 
ATOM     15  C   UNL     1       0.616  13.923  19.215  0.00  0.00    +0.000 A 
ATOM     16 CL   UNL     1       0.629  15.496  18.509  0.00  0.00    +0.000 Cl
ATOM     17  C   UNL     1       1.602  13.458  20.089  0.00  0.00    +0.000 A 
ATOM     18  C   UNL     1       1.487  12.138  20.594  0.00  0.00    +0.000 A 
BRANCH  17  19
ATOM     19  C   UNL     1       2.780  14.274  20.552  0.00  0.00    +0.000 C 
ATOM     20  F   UNL     1       3.645  13.671  21.404  0.00  0.00    +0.000 F 
ATOM     21  F   UNL     1       3.540  14.703  19.503  0.00  0.00    +0.000 F 
ATOM     22  F   UNL     1       2.378  15.413  21.192  0.00  0.00    +0.000 F 
ENDBRANCH  17  19
ENDBRANCH   7  12
BRANCH   1  24
ATOM     23  O   UNL     1       5.020   3.551  18.755  0.00  0.00    +0.000 OA
ATOM     24  S   UNL     1       4.246   4.398  17.870  0.00  0.00    +0.000 S 
ATOM     25  O   UNL     1       3.479   3.832  16.787  0.00  0.00    +0.000 OA
BRANCH  24  26
ATOM     26  N   UNL     1       5.291   5.593  17.239  0.00  0.00    +0.000 NA
ATOM     27  C   UNL     1       5.600   5.531  15.775  0.00  0.00    +0.000 C 
ATOM     28  C   UNL     1       6.634   4.442  15.465  0.00  0.00    +0.000 C 
ATOM     29  O   UNL     1       7.836   4.632  16.226  0.00  0.00    +0.000 OA
ATOM     30  C   UNL     1       7.565   4.640  17.638  0.00  0.00    +0.000 C 
ATOM     31  C   UNL     1       6.577   5.755  17.998  0.00  0.00    +0.000 C 
ENDBRANCH  24  26
ENDBRANCH   1  24
TORSDOF 4
ENDMDL
