MODEL 1
REMARK VINA RESULT:      -8.4      0.000      0.000
REMARK  Name = 
REMARK  5 active torsions:
REMARK  status: ('A' for Active; 'I' for Inactive)
REMARK    1  A    between atoms: C_1  and  C_2
REMARK    2  A    between atoms: C_2  and  C_3
REMARK    3  A    between atoms: N_5  and  C_6
REMARK    4  A    between atoms: C_9  and  C_10
REMARK    5  A    between atoms: C_11  and  C_12
REMARK                            x       y       z     vdW  Elec       q    Type
REMARK                         _______ _______ _______ _____ _____    ______ ____
ROOT
ATOM      1  C   UNL     1       5.996   5.140  17.961  0.00  0.00    +0.000 A 
ATOM      2  C   UNL     1       5.557   6.251  17.243  0.00  0.00    +0.000 A 
ATOM      3  C   UNL     1       6.302   7.427  17.229  0.00  0.00    +0.000 A 
ATOM      4  C   UNL     1       7.494   7.523  17.951  0.00  0.00    +0.000 A 
ATOM      5  C   UNL     1       7.940   6.415  18.672  0.00  0.00    +0.000 A 
ATOM      6  C   UNL     1       7.184   5.235  18.693  0.00  0.00    +0.000 A 
ENDROOT
BRANCH   1   9
ATOM      7  C   UNL     1       4.408   3.511  18.967  0.00  0.00    +0.000 C 
ATOM      8  O   UNL     1       4.055   4.176  19.936  0.00  0.00    +0.000 OA
ATOM      9  N   UNL     1       5.289   3.920  17.975  0.00  0.00    +0.000 N 
ATOM     10  H   UNL     1       5.356   3.348  17.143  0.00  0.00    +0.000 HD
BRANCH   7  12
ATOM     11  C   UNL     1       2.794   2.097  17.688  0.00  0.00    +0.000 C 
ATOM     12  C   UNL     1       3.891   2.103  18.739  0.00  0.00    +0.000 C 
ENDBRANCH   7  12
ENDBRANCH   1   9
BRANCH   4  13
ATOM     13  C   UNL     1       8.316   8.733  17.862  0.00  0.00    +0.000 C 
ATOM     14  C   UNL     1       8.831   9.295  18.961  0.00  0.00    +0.000 C 
BRANCH  14  15
ATOM     15  C   UNL     1       9.409  10.643  19.040  0.00  0.00    +0.000 A 
ATOM     16  C   UNL     1       9.938  11.144  20.256  0.00  0.00    +0.000 A 
ATOM     17  C   UNL     1      10.804  12.241  20.263  0.00  0.00    +0.000 A 
ATOM     18  C   UNL     1      11.150  12.771  19.043  0.00  0.00    +0.000 A 
ATOM     19  C   UNL     1      10.585  12.330  17.866  0.00  0.00    +0.000 A 
ATOM     20  C   UNL     1       9.684  11.294  17.831  0.00  0.00    +0.000 A 
ATOM     21  O   UNL     1      11.149  12.919  16.774  0.00  0.00    +0.000 OA
ATOM     22  C   UNL     1      12.333  13.451  17.399  0.00  0.00    +0.000 C 
ATOM     23  O   UNL     1      12.150  13.670  18.814  0.00  0.00    +0.000 OA
ENDBRANCH  14  15
ENDBRANCH   4  13
TORSDOF 4
ENDMDL
MODEL 2
REMARK VINA RESULT:      -8.2      1.455      2.338
REMARK  Name = 
REMARK  5 active torsions:
REMARK  status: ('A' for Active; 'I' for Inactive)
REMARK    1  A    between atoms: C_1  and  C_2
REMARK    2  A    between atoms: C_2  and  C_3
REMARK    3  A    between atoms: N_5  and  C_6
REMARK    4  A    between atoms: C_9  and  C_10
REMARK    5  A    between atoms: C_11  and  C_12
REMARK                            x       y       z     vdW  Elec       q    Type
REMARK                         _______ _______ _______ _____ _____    ______ ____
ROOT
ATOM      1  C   UNL     1       6.102   5.031  18.074  0.00  0.00    +0.000 A 
ATOM      2  C   UNL     1       7.281   5.278  18.776  0.00  0.00    +0.000 A 
ATOM      3  C   UNL     1       7.935   6.501  18.657  0.00  0.00    +0.000 A 
ATOM      4  C   UNL     1       7.434   7.497  17.815  0.00  0.00    +0.000 A 
ATOM      5  C   UNL     1       6.255   7.257  17.110  0.00  0.00    +0.000 A 
ATOM      6  C   UNL     1       5.602   6.022  17.223  0.00  0.00    +0.000 A 
ENDROOT
BRANCH   1   9
ATOM      7  C   UNL     1       4.314   3.597  19.040  0.00  0.00    +0.000 C 
ATOM      8  O   UNL     1       3.775   4.436  19.755  0.00  0.00    +0.000 OA
ATOM      9  N   UNL     1       5.390   3.819  18.192  0.00  0.00    +0.000 N 
ATOM     10  H   UNL     1       5.622   3.091  17.528  0.00  0.00    +0.000 HD
BRANCH   7  12
ATOM     11  C   UNL     1       2.827   1.954  17.887  0.00  0.00    +0.000 C 
ATOM     12  C   UNL     1       3.835   2.157  19.004  0.00  0.00    +0.000 C 
ENDBRANCH   7  12
ENDBRANCH   1   9
BRANCH   4  13
ATOM     13  C   UNL     1       8.080   8.812  17.761  0.00  0.00    +0.000 C 
ATOM     14  C   UNL     1       8.859   9.235  18.761  0.00  0.00    +0.000 C 
BRANCH  14  15
ATOM     15  C   UNL     1       9.314  10.617  18.964  0.00  0.00    +0.000 A 
ATOM     16  C   UNL     1       9.185  11.590  17.941  0.00  0.00    +0.000 A 
ATOM     17  C   UNL     1       9.263  12.954  18.234  0.00  0.00    +0.000 A 
ATOM     18  C   UNL     1       9.421  13.301  19.556  0.00  0.00    +0.000 A 
ATOM     19  C   UNL     1       9.615  12.357  20.542  0.00  0.00    +0.000 A 
ATOM     20  C   UNL     1       9.605  11.010  20.276  0.00  0.00    +0.000 A 
ATOM     21  O   UNL     1       9.642  12.914  21.785  0.00  0.00    +0.000 OA
ATOM     22  C   UNL     1       9.075  14.199  21.463  0.00  0.00    +0.000 C 
ATOM     23  O   UNL     1       9.280  14.552  20.078  0.00  0.00    +0.000 OA
ENDBRANCH  14  15
ENDBRANCH   4  13
TORSDOF 4
ENDMDL
MODEL 3
REMARK VINA RESULT:      -8.0      1.497      1.853
REMARK  Name = 
REMARK  5 active torsions:
REMARK  status: ('A' for Active; 'I' for Inactive)
REMARK    1  A    between atoms: C_1  and  C_2
REMARK    2  A    between atoms: C_2  and  C_3
REMARK    3  A    between atoms: N_5  and  C_6
REMARK    4  A    between atoms: C_9  and  C_10
REMARK    5  A    between atoms: C_11  and  C_12
REMARK                            x       y       z     vdW  Elec       q    Type
REMARK                         _______ _______ _______ _____ _____    ______ ____
ROOT
ATOM      1  C   UNL     1       6.388   5.226  18.375  0.00  0.00    +0.000 A 
ATOM      2  C   UNL     1       5.886   6.163  17.473  0.00  0.00    +0.000 A 
ATOM      3  C   UNL     1       6.524   7.386  17.291  0.00  0.00    +0.000 A 
ATOM      4  C   UNL     1       7.668   7.708  18.025  0.00  0.00    +0.000 A 
ATOM      5  C   UNL     1       8.176   6.776  18.930  0.00  0.00    +0.000 A 
ATOM      6  C   UNL     1       7.529   5.548  19.119  0.00  0.00    +0.000 A 
ENDROOT
BRANCH   1   9
ATOM      7  C   UNL     1       4.606   3.724  19.245  0.00  0.00    +0.000 C 
ATOM      8  O   UNL     1       3.862   4.580  19.715  0.00  0.00    +0.000 OA
ATOM      9  N   UNL     1       5.792   3.962  18.565  0.00  0.00    +0.000 N 
ATOM     10  H   UNL     1       6.215   3.183  18.075  0.00  0.00    +0.000 HD
BRANCH   7  12
ATOM     11  C   UNL     1       3.322   1.815  18.273  0.00  0.00    +0.000 C 
ATOM     12  C   UNL     1       4.290   2.245  19.361  0.00  0.00    +0.000 C 
ENDBRANCH   7  12
ENDBRANCH   1   9
BRANCH   4  13
ATOM     13  C   UNL     1       8.383   8.961  17.767  0.00  0.00    +0.000 C 
ATOM     14  C   UNL     1       9.073   9.570  18.737  0.00  0.00    +0.000 C 
BRANCH  14  15
ATOM     15  C   UNL     1       9.575  10.950  18.692  0.00  0.00    +0.000 A 
ATOM     16  C   UNL     1      10.497  11.364  17.699  0.00  0.00    +0.000 A 
ATOM     17  C   UNL     1      10.690  12.719  17.419  0.00  0.00    +0.000 A 
ATOM     18  C   UNL     1       9.915  13.617  18.114  0.00  0.00    +0.000 A 
ATOM     19  C   UNL     1       9.068  13.222  19.127  0.00  0.00    +0.000 A 
ATOM     20  C   UNL     1       8.902  11.902  19.468  0.00  0.00    +0.000 A 
ATOM     21  O   UNL     1       8.322  14.258  19.605  0.00  0.00    +0.000 OA
ATOM     22  C   UNL     1       8.539  15.196  18.533  0.00  0.00    +0.000 C 
ATOM     23  O   UNL     1       9.773  14.942  17.829  0.00  0.00    +0.000 OA
ENDBRANCH  14  15
ENDBRANCH   4  13
TORSDOF 4
ENDMDL
MODEL 4
REMARK VINA RESULT:      -7.9      1.356      2.050
REMARK  Name = 
REMARK  5 active torsions:
REMARK  status: ('A' for Active; 'I' for Inactive)
REMARK    1  A    between atoms: C_1  and  C_2
REMARK    2  A    between atoms: C_2  and  C_3
REMARK    3  A    between atoms: N_5  and  C_6
REMARK    4  A    between atoms: C_9  and  C_10
REMARK    5  A    between atoms: C_11  and  C_12
REMARK                            x       y       z     vdW  Elec       q    Type
REMARK                         _______ _______ _______ _____ _____    ______ ____
ROOT
ATOM      1  C   UNL     1       5.918   5.011  17.748  0.00  0.00    +0.000 A 
ATOM      2  C   UNL     1       5.521   6.099  16.972  0.00  0.00    +0.000 A 
ATOM      3  C   UNL     1       6.238   7.292  17.003  0.00  0.00    +0.000 A 
ATOM      4  C   UNL     1       7.356   7.430  17.829  0.00  0.00    +0.000 A 
ATOM      5  C   UNL     1       7.758   6.346  18.609  0.00  0.00    +0.000 A 
ATOM      6  C   UNL     1       7.032   5.148  18.584  0.00  0.00    +0.000 A 
ENDROOT
BRANCH   1   9
ATOM      7  C   UNL     1       4.007   3.519  18.304  0.00  0.00    +0.000 C 
ATOM      8  O   UNL     1       3.289   4.343  18.861  0.00  0.00    +0.000 OA
ATOM      9  N   UNL     1       5.241   3.775  17.721  0.00  0.00    +0.000 N 
ATOM     10  H   UNL     1       5.645   3.049  17.141  0.00  0.00    +0.000 HD
BRANCH   7  12
ATOM     11  C   UNL     1       2.220   1.839  18.775  0.00  0.00    +0.000 C 
ATOM     12  C   UNL     1       3.601   2.062  18.185  0.00  0.00    +0.000 C 
ENDBRANCH   7  12
ENDBRANCH   1   9
BRANCH   4  13
ATOM     13  C   UNL     1       8.155   8.658  17.793  0.00  0.00    +0.000 C 
ATOM     14  C   UNL     1       8.834   9.067  18.869  0.00  0.00    +0.000 C 
BRANCH  14  15
ATOM     15  C   UNL     1       9.419  10.402  19.054  0.00  0.00    +0.000 A 
ATOM     16  C   UNL     1       9.594  11.285  17.961  0.00  0.00    +0.000 A 
ATOM     17  C   UNL     1       9.792  12.653  18.167  0.00  0.00    +0.000 A 
ATOM     18  C   UNL     1       9.760  13.099  19.467  0.00  0.00    +0.000 A 
ATOM     19  C   UNL     1       9.658  12.234  20.536  0.00  0.00    +0.000 A 
ATOM     20  C   UNL     1       9.524  10.878  20.367  0.00  0.00    +0.000 A 
ATOM     21  O   UNL     1       9.538  12.896  21.721  0.00  0.00    +0.000 OA
ATOM     22  C   UNL     1       9.204  14.201  21.210  0.00  0.00    +0.000 C 
ATOM     23  O   UNL     1       9.690  14.400  19.866  0.00  0.00    +0.000 OA
ENDBRANCH  14  15
ENDBRANCH   4  13
TORSDOF 4
ENDMDL
MODEL 5
REMARK VINA RESULT:      -7.7      1.282      1.997
REMARK  Name = 
REMARK  5 active torsions:
REMARK  status: ('A' for Active; 'I' for Inactive)
REMARK    1  A    between atoms: C_1  and  C_2
REMARK    2  A    between atoms: C_2  and  C_3
REMARK    3  A    between atoms: N_5  and  C_6
REMARK    4  A    between atoms: C_9  and  C_10
REMARK    5  A    between atoms: C_11  and  C_12
REMARK                            x       y       z     vdW  Elec       q    Type
REMARK                         _______ _______ _______ _____ _____    ______ ____
ROOT
ATOM      1  C   UNL     1       5.472   5.127  18.201  0.00  0.00    +0.000 A 
ATOM      2  C   UNL     1       6.710   5.152  18.840  0.00  0.00    +0.000 A 
ATOM      3  C   UNL     1       7.608   6.191  18.609  0.00  0.00    +0.000 A 
ATOM      4  C   UNL     1       7.294   7.216  17.713  0.00  0.00    +0.000 A 
ATOM      5  C   UNL     1       6.057   7.197  17.069  0.00  0.00    +0.000 A 
ATOM      6  C   UNL     1       5.157   6.147  17.296  0.00  0.00    +0.000 A 
ENDROOT
BRANCH   1   9
ATOM      7  C   UNL     1       3.549   4.130  19.424  0.00  0.00    +0.000 C 
ATOM      8  O   UNL     1       3.325   5.058  20.195  0.00  0.00    +0.000 OA
ATOM      9  N   UNL     1       4.520   4.112  18.432  0.00  0.00    +0.000 N 
ATOM     10  H   UNL     1       4.482   3.363  17.753  0.00  0.00    +0.000 HD
BRANCH   7  12
ATOM     11  C   UNL     1       2.657   2.212  18.096  0.00  0.00    +0.000 C 
ATOM     12  C   UNL     1       2.747   2.843  19.474  0.00  0.00    +0.000 C 
ENDBRANCH   7  12
ENDBRANCH   1   9
BRANCH   4  13
ATOM     13  C   UNL     1       8.207   8.350  17.539  0.00  0.00    +0.000 C 
ATOM     14  C   UNL     1       8.395   9.236  18.523  0.00  0.00    +0.000 C 
BRANCH  14  15
ATOM     15  C   UNL     1       9.037  10.549  18.378  0.00  0.00    +0.000 A 
ATOM     16  C   UNL     1       8.421  11.590  17.640  0.00  0.00    +0.000 A 
ATOM     17  C   UNL     1       8.822  12.919  17.800  0.00  0.00    +0.000 A 
ATOM     18  C   UNL     1       9.800  13.167  18.734  0.00  0.00    +0.000 A 
ATOM     19  C   UNL     1      10.448  12.151  19.403  0.00  0.00    +0.000 A 
ATOM     20  C   UNL     1      10.119  10.830  19.222  0.00  0.00    +0.000 A 
ATOM     21  O   UNL     1      11.302  12.625  20.354  0.00  0.00    +0.000 OA
ATOM     22  C   UNL     1      10.812  13.979  20.431  0.00  0.00    +0.000 C 
ATOM     23  O   UNL     1      10.160  14.392  19.211  0.00  0.00    +0.000 OA
ENDBRANCH  14  15
ENDBRANCH   4  13
TORSDOF 4
ENDMDL
MODEL 6
REMARK VINA RESULT:      -7.6      6.724      8.189
REMARK  Name = 
REMARK  5 active torsions:
REMARK  status: ('A' for Active; 'I' for Inactive)
REMARK    1  A    between atoms: C_1  and  C_2
REMARK    2  A    between atoms: C_2  and  C_3
REMARK    3  A    between atoms: N_5  and  C_6
REMARK    4  A    between atoms: C_9  and  C_10
REMARK    5  A    between atoms: C_11  and  C_12
REMARK                            x       y       z     vdW  Elec       q    Type
REMARK                         _______ _______ _______ _____ _____    ______ ____
ROOT
ATOM      1  C   UNL     1       5.804   4.284  14.860  0.00  0.00    +0.000 A 
ATOM      2  C   UNL     1       5.196   3.591  15.905  0.00  0.00    +0.000 A 
ATOM      3  C   UNL     1       4.540   4.276  16.924  0.00  0.00    +0.000 A 
ATOM      4  C   UNL     1       4.497   5.672  16.930  0.00  0.00    +0.000 A 
ATOM      5  C   UNL     1       5.104   6.372  15.888  0.00  0.00    +0.000 A 
ATOM      6  C   UNL     1       5.772   5.683  14.867  0.00  0.00    +0.000 A 
ENDROOT
BRANCH   1   9
ATOM      7  C   UNL     1       5.864   3.301  12.576  0.00  0.00    +0.000 C 
ATOM      8  O   UNL     1       4.726   3.596  12.222  0.00  0.00    +0.000 OA
ATOM      9  N   UNL     1       6.450   3.629  13.790  0.00  0.00    +0.000 N 
ATOM     10  H   UNL     1       7.447   3.483  13.884  0.00  0.00    +0.000 HD
BRANCH   7  12
ATOM     11  C   UNL     1       6.105   1.267  11.147  0.00  0.00    +0.000 C 
ATOM     12  C   UNL     1       6.796   2.510  11.677  0.00  0.00    +0.000 C 
ENDBRANCH   7  12
ENDBRANCH   1   9
BRANCH   4  13
ATOM     13  C   UNL     1       3.732   6.382  17.959  0.00  0.00    +0.000 C 
ATOM     14  C   UNL     1       2.824   7.304  17.624  0.00  0.00    +0.000 C 
BRANCH  14  15
ATOM     15  C   UNL     1       2.216   8.278  18.541  0.00  0.00    +0.000 A 
ATOM     16  C   UNL     1       1.488   9.392  18.053  0.00  0.00    +0.000 A 
ATOM     17  C   UNL     1       0.614  10.097  18.883  0.00  0.00    +0.000 A 
ATOM     18  C   UNL     1       0.461   9.633  20.168  0.00  0.00    +0.000 A 
ATOM     19  C   UNL     1       1.218   8.593  20.665  0.00  0.00    +0.000 A 
ATOM     20  C   UNL     1       2.130   7.919  19.892  0.00  0.00    +0.000 A 
ATOM     21  O   UNL     1       0.829   8.231  21.920  0.00  0.00    +0.000 OA
ATOM     22  C   UNL     1      -0.451   8.893  21.953  0.00  0.00    +0.000 C 
ATOM     23  O   UNL     1      -0.504  10.019  21.050  0.00  0.00    +0.000 OA
ENDBRANCH  14  15
ENDBRANCH   4  13
TORSDOF 4
ENDMDL
MODEL 7
REMARK VINA RESULT:      -7.5      6.401      9.213
REMARK  Name = 
REMARK  5 active torsions:
REMARK  status: ('A' for Active; 'I' for Inactive)
REMARK    1  A    between atoms: C_1  and  C_2
REMARK    2  A    between atoms: C_2  and  C_3
REMARK    3  A    between atoms: N_5  and  C_6
REMARK    4  A    between atoms: C_9  and  C_10
REMARK    5  A    between atoms: C_11  and  C_12
REMARK                            x       y       z     vdW  Elec       q    Type
REMARK                         _______ _______ _______ _____ _____    ______ ____
ROOT
ATOM      1  C   UNL     1       0.097  10.276  20.483  0.00  0.00    +0.000 A 
ATOM      2  C   UNL     1       0.744   9.165  21.020  0.00  0.00    +0.000 A 
ATOM      3  C   UNL     1       1.533   8.346  20.218  0.00  0.00    +0.000 A 
ATOM      4  C   UNL     1       1.675   8.610  18.853  0.00  0.00    +0.000 A 
ATOM      5  C   UNL     1       1.030   9.720  18.308  0.00  0.00    +0.000 A 
ATOM      6  C   UNL     1       0.229  10.539  19.115  0.00  0.00    +0.000 A 
ENDROOT
BRANCH   1   9
ATOM      7  C   UNL     1      -0.244  12.341  21.827  0.00  0.00    +0.000 C 
ATOM      8  O   UNL     1       0.862  12.848  21.663  0.00  0.00    +0.000 OA
ATOM      9  N   UNL     1      -0.685  11.150  21.267  0.00  0.00    +0.000 N 
ATOM     10  H   UNL     1      -1.672  10.938  21.336  0.00  0.00    +0.000 HD
BRANCH   7  12
ATOM     11  C   UNL     1      -2.515  12.101  22.837  0.00  0.00    +0.000 C 
ATOM     12  C   UNL     1      -1.298  12.998  22.699  0.00  0.00    +0.000 C 
ENDBRANCH   7  12
ENDBRANCH   1   9
BRANCH   4  13
ATOM     13  C   UNL     1       2.575   7.795  18.033  0.00  0.00    +0.000 C 
ATOM     14  C   UNL     1       2.743   6.493  18.285  0.00  0.00    +0.000 C 
BRANCH  14  15
ATOM     15  C   UNL     1       3.815   5.648  17.741  0.00  0.00    +0.000 A 
ATOM     16  C   UNL     1       3.678   4.240  17.676  0.00  0.00    +0.000 A 
ATOM     17  C   UNL     1       4.501   3.476  16.845  0.00  0.00    +0.000 A 
ATOM     18  C   UNL     1       5.408   4.158  16.067  0.00  0.00    +0.000 A 
ATOM     19  C   UNL     1       5.590   5.520  16.178  0.00  0.00    +0.000 A 
ATOM     20  C   UNL     1       4.838   6.289  17.031  0.00  0.00    +0.000 A 
ATOM     21  O   UNL     1       6.457   5.999  15.244  0.00  0.00    +0.000 OA
ATOM     22  C   UNL     1       6.467   4.866  14.353  0.00  0.00    +0.000 C 
ATOM     23  O   UNL     1       6.124   3.639  15.030  0.00  0.00    +0.000 OA
ENDBRANCH  14  15
ENDBRANCH   4  13
TORSDOF 4
ENDMDL
MODEL 8
REMARK VINA RESULT:      -7.5      3.064      9.548
REMARK  Name = 
REMARK  5 active torsions:
REMARK  status: ('A' for Active; 'I' for Inactive)
REMARK    1  A    between atoms: C_1  and  C_2
REMARK    2  A    between atoms: C_2  and  C_3
REMARK    3  A    between atoms: N_5  and  C_6
REMARK    4  A    between atoms: C_9  and  C_10
REMARK    5  A    between atoms: C_11  and  C_12
REMARK                            x       y       z     vdW  Elec       q    Type
REMARK                         _______ _______ _______ _____ _____    ______ ____
ROOT
ATOM      1  C   UNL     1       9.712  13.376  18.095  0.00  0.00    +0.000 A 
ATOM      2  C   UNL     1       8.561  12.849  17.510  0.00  0.00    +0.000 A 
ATOM      3  C   UNL     1       8.241  11.503  17.661  0.00  0.00    +0.000 A 
ATOM      4  C   UNL     1       9.077  10.649  18.383  0.00  0.00    +0.000 A 
ATOM      5  C   UNL     1      10.230  11.168  18.971  0.00  0.00    +0.000 A 
ATOM      6  C   UNL     1      10.558  12.522  18.812  0.00  0.00    +0.000 A 
ENDROOT
BRANCH   1   9
ATOM      7  C   UNL     1      11.206  15.239  17.398  0.00  0.00    +0.000 C 
ATOM      8  O   UNL     1      12.053  14.579  16.804  0.00  0.00    +0.000 OA
ATOM      9  N   UNL     1      10.056  14.740  17.996  0.00  0.00    +0.000 N 
ATOM     10  H   UNL     1       9.356  15.407  18.294  0.00  0.00    +0.000 HD
BRANCH   7  12
ATOM     11  C   UNL     1      10.281  17.277  18.506  0.00  0.00    +0.000 C 
ATOM     12  C   UNL     1      11.331  16.743  17.548  0.00  0.00    +0.000 C 
ENDBRANCH   7  12
ENDBRANCH   1   9
BRANCH   4  13
ATOM     13  C   UNL     1       8.690   9.253  18.610  0.00  0.00    +0.000 C 
ATOM     14  C   UNL     1       8.127   8.531  17.636  0.00  0.00    +0.000 C 
BRANCH  14  15
ATOM     15  C   UNL     1       7.437   7.247  17.814  0.00  0.00    +0.000 A 
ATOM     16  C   UNL     1       7.834   6.333  18.821  0.00  0.00    +0.000 A 
ATOM     17  C   UNL     1       6.981   5.309  19.239  0.00  0.00    +0.000 A 
ATOM     18  C   UNL     1       5.732   5.263  18.664  0.00  0.00    +0.000 A 
ATOM     19  C   UNL     1       5.368   6.107  17.637  0.00  0.00    +0.000 A 
ATOM     20  C   UNL     1       6.208   7.084  17.162  0.00  0.00    +0.000 A 
ATOM     21  O   UNL     1       4.058   5.959  17.292  0.00  0.00    +0.000 OA
ATOM     22  C   UNL     1       3.607   5.232  18.451  0.00  0.00    +0.000 C 
ATOM     23  O   UNL     1       4.680   4.510  19.092  0.00  0.00    +0.000 OA
ENDBRANCH  14  15
ENDBRANCH   4  13
TORSDOF 4
ENDMDL
MODEL 9
REMARK VINA RESULT:      -7.5      1.486      2.073
REMARK  Name = 
REMARK  5 active torsions:
REMARK  status: ('A' for Active; 'I' for Inactive)
REMARK    1  A    between atoms: C_1  and  C_2
REMARK    2  A    between atoms: C_2  and  C_3
REMARK    3  A    between atoms: N_5  and  C_6
REMARK    4  A    between atoms: C_9  and  C_10
REMARK    5  A    between atoms: C_11  and  C_12
REMARK                            x       y       z     vdW  Elec       q    Type
REMARK                         _______ _______ _______ _____ _____    ______ ____
ROOT
ATOM      1  C   UNL     1       6.593   5.869  17.763  0.00  0.00    +0.000 A 
ATOM      2  C   UNL     1       7.602   5.803  18.723  0.00  0.00    +0.000 A 
ATOM      3  C   UNL     1       8.366   6.926  19.028  0.00  0.00    +0.000 A 
ATOM      4  C   UNL     1       8.151   8.136  18.363  0.00  0.00    +0.000 A 
ATOM      5  C   UNL     1       7.144   8.209  17.401  0.00  0.00    +0.000 A 
ATOM      6  C   UNL     1       6.381   7.076  17.088  0.00  0.00    +0.000 A 
ENDROOT
BRANCH   1   9
ATOM      7  C   UNL     1       4.603   4.418  18.106  0.00  0.00    +0.000 C 
ATOM      8  O   UNL     1       4.066   5.056  19.007  0.00  0.00    +0.000 OA
ATOM      9  N   UNL     1       5.774   4.766  17.448  0.00  0.00    +0.000 N 
ATOM     10  H   UNL     1       6.010   4.251  16.609  0.00  0.00    +0.000 HD
BRANCH   7  12
ATOM     11  C   UNL     1       2.537   3.291  17.269  0.00  0.00    +0.000 C 
ATOM     12  C   UNL     1       4.011   3.119  17.591  0.00  0.00    +0.000 C 
ENDBRANCH   7  12
ENDBRANCH   1   9
BRANCH   4  13
ATOM     13  C   UNL     1       8.901   9.335  18.749  0.00  0.00    +0.000 C 
ATOM     14  C   UNL     1       8.792  10.467  18.048  0.00  0.00    +0.000 C 
BRANCH  14  15
ATOM     15  C   UNL     1       9.692  11.624  18.147  0.00  0.00    +0.000 A 
ATOM     16  C   UNL     1      11.035  11.550  17.702  0.00  0.00    +0.000 A 
ATOM     17  C   UNL     1      11.773  12.709  17.449  0.00  0.00    +0.000 A 
ATOM     18  C   UNL     1      11.122  13.910  17.606  0.00  0.00    +0.000 A 
ATOM     19  C   UNL     1       9.838  13.987  18.104  0.00  0.00    +0.000 A 
ATOM     20  C   UNL     1       9.109  12.868  18.420  0.00  0.00    +0.000 A 
ATOM     21  O   UNL     1       9.354  15.260  18.076  0.00  0.00    +0.000 OA
ATOM     22  C   UNL     1      10.319  15.843  17.178  0.00  0.00    +0.000 C 
ATOM     23  O   UNL     1      11.572  15.126  17.188  0.00  0.00    +0.000 OA
ENDBRANCH  14  15
ENDBRANCH   4  13
TORSDOF 4
ENDMDL
