MODEL 1
REMARK VINA RESULT:      -8.0      0.000      0.000
REMARK  Name = 
REMARK  11 active torsions:
REMARK  status: ('A' for Active; 'I' for Inactive)
REMARK    1  A    between atoms: C_1  and  C_2
REMARK    2  A    between atoms: C_2  and  N_3
REMARK    3  A    between atoms: C_5  and  C_6
REMARK    4  A    between atoms: C_8  and  C_9
REMARK    5  A    between atoms: C_16  and  C_17
REMARK    6  A    between atoms: C_21  and  O_22
REMARK    7  A    between atoms: O_22  and  C_23
REMARK    8  A    between atoms: N_25  and  C_26
REMARK    9  A    between atoms: C_26  and  C_27
REMARK   10  A    between atoms: C_27  and  C_28
REMARK   11  A    between atoms: C_28  and  N_29
REMARK                            x       y       z     vdW  Elec       q    Type
REMARK                         _______ _______ _______ _____ _____    ______ ____
ROOT
ATOM      1  C   UNL     1       1.285   8.797  20.678  0.00  0.00    +0.000 C 
ATOM      2  O   UNL     1       1.944   8.149  21.488  0.00  0.00    +0.000 OA
ATOM      3  N   UNL     1       1.485   8.694  19.316  0.00  0.00    +0.000 N 
ATOM      4  C   UNL     1       2.327   7.736  18.785  0.00  0.00    +0.000 A 
ATOM      5  N   UNL     1       3.293   8.032  17.944  0.00  0.00    +0.000 NA
ATOM      6  C   UNL     1       3.835   6.831  17.568  0.00  0.00    +0.000 A 
ATOM      7  C   UNL     1       5.066   6.551  16.964  0.00  0.00    +0.000 A 
ATOM      8  C   UNL     1       5.352   5.205  16.731  0.00  0.00    +0.000 A 
ATOM      9  C   UNL     1       4.358   4.234  16.741  0.00  0.00    +0.000 A 
ATOM     10  C   UNL     1       3.247   4.447  17.549  0.00  0.00    +0.000 A 
ATOM     11  C   UNL     1       3.036   5.772  17.990  0.00  0.00    +0.000 A 
ATOM     12  N   UNL     1       2.238   6.364  18.957  0.00  0.00    +0.000 N 
ATOM     13  H   UNL     1       1.500   9.575  18.821  0.00  0.00    +0.000 HD
ENDROOT
BRANCH   1  19
ATOM     14  N   UNL     1      -0.432  10.568  20.247  0.00  0.00    +0.000 N 
ATOM     15  N   UNL     1      -1.338  11.349  20.865  0.00  0.00    +0.000 NA
ATOM     16  C   UNL     1      -1.216  11.047  22.162  0.00  0.00    +0.000 A 
ATOM     17  C   UNL     1      -2.047  11.763  23.158  0.00  0.00    +0.000 C 
ATOM     18  C   UNL     1      -0.237  10.042  22.358  0.00  0.00    +0.000 A 
ATOM     19  C   UNL     1       0.251   9.727  21.097  0.00  0.00    +0.000 A 
BRANCH  14  21
ATOM     20  C   UNL     1      -1.340  11.666  18.231  0.00  0.00    +0.000 C 
ATOM     21  C   UNL     1      -0.273  10.753  18.815  0.00  0.00    +0.000 C 
ENDBRANCH  14  21
ENDBRANCH   1  19
BRANCH   8  22
ATOM     22  C   UNL     1       6.677   4.645  17.123  0.00  0.00    +0.000 C 
ATOM     23  N   UNL     1       6.723   4.100  18.382  0.00  0.00    +0.000 N 
ATOM     24  O   UNL     1       7.580   4.462  16.312  0.00  0.00    +0.000 OA
ATOM     25  H   UNL     1       5.877   3.972  18.922  0.00  0.00    +0.000 HD
ATOM     26  H   UNL     1       7.454   3.416  18.540  0.00  0.00    +0.000 HD
ENDBRANCH   8  22
BRANCH  10  27
ATOM     27  O   UNL     1       2.452   3.422  17.987  0.00  0.00    +0.000 OA
ATOM     28  C   UNL     1       3.056   2.122  17.944  0.00  0.00    +0.000 C 
ENDBRANCH  10  27
BRANCH  12  29
ATOM     29  C   UNL     1       1.585   5.621  20.014  0.00  0.00    +0.000 C 
BRANCH  29  30
ATOM     30  C   UNL     1       2.475   4.801  20.932  0.00  0.00    +0.000 C 
BRANCH  30  31
ATOM     31  C   UNL     1       1.811   3.520  21.417  0.00  0.00    +0.000 C 
BRANCH  31  32
ATOM     32  N   UNL     1       0.717   3.181  20.516  0.00  0.00    +0.000 NA
ATOM     33  H   UNL     1       0.375   2.240  20.711  0.00  0.00    +0.000 HD
ATOM     34  H   UNL     1       1.060   3.167  19.556  0.00  0.00    +0.000 HD
ENDBRANCH  31  32
ENDBRANCH  30  31
ENDBRANCH  29  30
ENDBRANCH  12  29
TORSDOF 8
ENDMDL
MODEL 2
REMARK VINA RESULT:      -7.8      1.076      1.886
REMARK  Name = 
REMARK  11 active torsions:
REMARK  status: ('A' for Active; 'I' for Inactive)
REMARK    1  A    between atoms: C_1  and  C_2
REMARK    2  A    between atoms: C_2  and  N_3
REMARK    3  A    between atoms: C_5  and  C_6
REMARK    4  A    between atoms: C_8  and  C_9
REMARK    5  A    between atoms: C_16  and  C_17
REMARK    6  A    between atoms: C_21  and  O_22
REMARK    7  A    between atoms: O_22  and  C_23
REMARK    8  A    between atoms: N_25  and  C_26
REMARK    9  A    between atoms: C_26  and  C_27
REMARK   10  A    between atoms: C_27  and  C_28
REMARK   11  A    between atoms: C_28  and  N_29
REMARK                            x       y       z     vdW  Elec       q    Type
REMARK                         _______ _______ _______ _____ _____    ______ ____
ROOT
ATOM      1  C   UNL     1       1.074   9.037  19.584  0.00  0.00    +0.000 C 
ATOM      2  O   UNL     1       1.556   8.530  20.596  0.00  0.00    +0.000 OA
ATOM      3  N   UNL     1       1.557   8.758  18.321  0.00  0.00    +0.000 N 
ATOM      4  C   UNL     1       2.501   7.772  18.114  0.00  0.00    +0.000 A 
ATOM      5  N   UNL     1       3.619   7.990  17.458  0.00  0.00    +0.000 NA
ATOM      6  C   UNL     1       4.240   6.771  17.374  0.00  0.00    +0.000 A 
ATOM      7  C   UNL     1       5.573   6.462  17.082  0.00  0.00    +0.000 A 
ATOM      8  C   UNL     1       5.916   5.109  17.103  0.00  0.00    +0.000 A 
ATOM      9  C   UNL     1       4.952   4.109  17.045  0.00  0.00    +0.000 A 
ATOM     10  C   UNL     1       3.694   4.386  17.568  0.00  0.00    +0.000 A 
ATOM     11  C   UNL     1       3.382   5.749  17.766  0.00  0.00    +0.000 A 
ATOM     12  N   UNL     1       2.392   6.433  18.455  0.00  0.00    +0.000 N 
ATOM     13  H   UNL     1       1.665   9.565  17.721  0.00  0.00    +0.000 HD
ENDROOT
BRANCH   1  19
ATOM     14  N   UNL     1      -0.367  10.713  20.760  0.00  0.00    +0.000 N 
ATOM     15  N   UNL     1      -1.441  11.507  20.585  0.00  0.00    +0.000 NA
ATOM     16  C   UNL     1      -1.854  11.247  19.340  0.00  0.00    +0.000 A 
ATOM     17  C   UNL     1      -3.064  11.924  18.818  0.00  0.00    +0.000 C 
ATOM     18  C   UNL     1      -1.010  10.296  18.714  0.00  0.00    +0.000 A 
ATOM     19  C   UNL     1      -0.034   9.973  19.647  0.00  0.00    +0.000 A 
BRANCH  14  21
ATOM     20  C   UNL     1      -0.547   9.890  23.079  0.00  0.00    +0.000 C 
ATOM     21  C   UNL     1       0.244  10.715  22.077  0.00  0.00    +0.000 C 
ENDBRANCH  14  21
ENDBRANCH   1  19
BRANCH   8  22
ATOM     22  C   UNL     1       7.135   4.661  17.835  0.00  0.00    +0.000 C 
ATOM     23  N   UNL     1       8.153   4.204  17.035  0.00  0.00    +0.000 N 
ATOM     24  O   UNL     1       7.316   4.906  19.024  0.00  0.00    +0.000 OA
ATOM     25  H   UNL     1       8.108   4.308  16.030  0.00  0.00    +0.000 HD
ATOM     26  H   UNL     1       9.081   4.237  17.440  0.00  0.00    +0.000 HD
ENDBRANCH   8  22
BRANCH  10  27
ATOM     27  O   UNL     1       2.836   3.398  17.973  0.00  0.00    +0.000 OA
ATOM     28  C   UNL     1       3.456   2.143  18.284  0.00  0.00    +0.000 C 
ENDBRANCH  10  27
BRANCH  12  29
ATOM     29  C   UNL     1       1.540   5.815  19.448  0.00  0.00    +0.000 C 
BRANCH  29  30
ATOM     30  C   UNL     1       2.222   5.227  20.673  0.00  0.00    +0.000 C 
BRANCH  30  31
ATOM     31  C   UNL     1       1.582   3.930  21.146  0.00  0.00    +0.000 C 
BRANCH  31  32
ATOM     32  N   UNL     1       0.612   3.488  20.152  0.00  0.00    +0.000 NA
ATOM     33  H   UNL     1       0.303   2.538  20.355  0.00  0.00    +0.000 HD
ATOM     34  H   UNL     1       1.058   3.454  19.236  0.00  0.00    +0.000 HD
ENDBRANCH  31  32
ENDBRANCH  30  31
ENDBRANCH  29  30
ENDBRANCH  12  29
TORSDOF 8
ENDMDL
MODEL 3
REMARK VINA RESULT:      -7.6      2.283      3.354
REMARK  Name = 
REMARK  11 active torsions:
REMARK  status: ('A' for Active; 'I' for Inactive)
REMARK    1  A    between atoms: C_1  and  C_2
REMARK    2  A    between atoms: C_2  and  N_3
REMARK    3  A    between atoms: C_5  and  C_6
REMARK    4  A    between atoms: C_8  and  C_9
REMARK    5  A    between atoms: C_16  and  C_17
REMARK    6  A    between atoms: C_21  and  O_22
REMARK    7  A    between atoms: O_22  and  C_23
REMARK    8  A    between atoms: N_25  and  C_26
REMARK    9  A    between atoms: C_26  and  C_27
REMARK   10  A    between atoms: C_27  and  C_28
REMARK   11  A    between atoms: C_28  and  N_29
REMARK                            x       y       z     vdW  Elec       q    Type
REMARK                         _______ _______ _______ _____ _____    ______ ____
ROOT
ATOM      1  C   UNL     1       0.729  11.391  20.138  0.00  0.00    +0.000 C 
ATOM      2  O   UNL     1       1.626  11.301  20.974  0.00  0.00    +0.000 OA
ATOM      3  N   UNL     1       0.616  10.509  19.082  0.00  0.00    +0.000 N 
ATOM      4  C   UNL     1       1.410   9.382  19.000  0.00  0.00    +0.000 A 
ATOM      5  N   UNL     1       2.115   9.090  17.931  0.00  0.00    +0.000 NA
ATOM      6  C   UNL     1       2.683   7.869  18.184  0.00  0.00    +0.000 A 
ATOM      7  C   UNL     1       3.762   7.233  17.560  0.00  0.00    +0.000 A 
ATOM      8  C   UNL     1       4.131   5.988  18.074  0.00  0.00    +0.000 A 
ATOM      9  C   UNL     1       3.278   5.251  18.887  0.00  0.00    +0.000 A 
ATOM     10  C   UNL     1       2.370   5.946  19.678  0.00  0.00    +0.000 A 
ATOM     11  C   UNL     1       2.124   7.289  19.320  0.00  0.00    +0.000 A 
ATOM     12  N   UNL     1       1.514   8.369  19.940  0.00  0.00    +0.000 N 
ATOM     13  H   UNL     1       0.419  10.940  18.189  0.00  0.00    +0.000 HD
ENDROOT
BRANCH   1  19
ATOM     14  N   UNL     1      -0.105  13.709  19.687  0.00  0.00    +0.000 N 
ATOM     15  N   UNL     1      -1.168  14.515  19.868  0.00  0.00    +0.000 NA
ATOM     16  C   UNL     1      -2.042  13.772  20.557  0.00  0.00    +0.000 A 
ATOM     17  C   UNL     1      -3.333  14.367  20.976  0.00  0.00    +0.000 C 
ATOM     18  C   UNL     1      -1.529  12.471  20.787  0.00  0.00    +0.000 A 
ATOM     19  C   UNL     1      -0.273  12.441  20.197  0.00  0.00    +0.000 A 
BRANCH  14  21
ATOM     20  C   UNL     1       0.949  15.802  18.912  0.00  0.00    +0.000 C 
ATOM     21  C   UNL     1       1.057  14.290  19.039  0.00  0.00    +0.000 C 
ENDBRANCH  14  21
ENDBRANCH   1  19
BRANCH   8  22
ATOM     22  C   UNL     1       5.563   5.697  18.364  0.00  0.00    +0.000 C 
ATOM     23  N   UNL     1       5.787   4.528  19.049  0.00  0.00    +0.000 N 
ATOM     24  O   UNL     1       6.481   6.312  17.828  0.00  0.00    +0.000 OA
ATOM     25  H   UNL     1       5.037   3.868  19.205  0.00  0.00    +0.000 HD
ATOM     26  H   UNL     1       6.712   4.128  18.947  0.00  0.00    +0.000 HD
ENDBRANCH   8  22
BRANCH  10  27
ATOM     27  O   UNL     1       1.816   5.402  20.807  0.00  0.00    +0.000 OA
ATOM     28  C   UNL     1       1.255   4.093  20.639  0.00  0.00    +0.000 C 
ENDBRANCH  10  27
BRANCH  12  29
ATOM     29  C   UNL     1       1.211   8.407  21.355  0.00  0.00    +0.000 C 
BRANCH  29  30
ATOM     30  C   UNL     1      -0.256   8.348  21.748  0.00  0.00    +0.000 C 
BRANCH  30  31
ATOM     31  C   UNL     1      -0.611   9.312  22.870  0.00  0.00    +0.000 C 
BRANCH  31  32
ATOM     32  N   UNL     1       0.616   9.807  23.479  0.00  0.00    +0.000 NA
ATOM     33  H   UNL     1       1.130  10.391  22.820  0.00  0.00    +0.000 HD
ATOM     34  H   UNL     1       1.227   9.020  23.698  0.00  0.00    +0.000 HD
ENDBRANCH  31  32
ENDBRANCH  30  31
ENDBRANCH  29  30
ENDBRANCH  12  29
TORSDOF 8
ENDMDL
MODEL 4
REMARK VINA RESULT:      -7.5      1.622      1.852
REMARK  Name = 
REMARK  11 active torsions:
REMARK  status: ('A' for Active; 'I' for Inactive)
REMARK    1  A    between atoms: C_1  and  C_2
REMARK    2  A    between atoms: C_2  and  N_3
REMARK    3  A    between atoms: C_5  and  C_6
REMARK    4  A    between atoms: C_8  and  C_9
REMARK    5  A    between atoms: C_16  and  C_17
REMARK    6  A    between atoms: C_21  and  O_22
REMARK    7  A    between atoms: O_22  and  C_23
REMARK    8  A    between atoms: N_25  and  C_26
REMARK    9  A    between atoms: C_26  and  C_27
REMARK   10  A    between atoms: C_27  and  C_28
REMARK   11  A    between atoms: C_28  and  N_29
REMARK                            x       y       z     vdW  Elec       q    Type
REMARK                         _______ _______ _______ _____ _____    ______ ____
ROOT
ATOM      1  C   UNL     1       1.127   9.368  19.157  0.00  0.00    +0.000 C 
ATOM      2  O   UNL     1       1.599   8.961  20.217  0.00  0.00    +0.000 OA
ATOM      3  N   UNL     1       1.591   8.934  17.931  0.00  0.00    +0.000 N 
ATOM      4  C   UNL     1       2.499   7.899  17.833  0.00  0.00    +0.000 A 
ATOM      5  N   UNL     1       3.619   8.003  17.153  0.00  0.00    +0.000 NA
ATOM      6  C   UNL     1       4.198   6.762  17.203  0.00  0.00    +0.000 A 
ATOM      7  C   UNL     1       5.517   6.376  16.943  0.00  0.00    +0.000 A 
ATOM      8  C   UNL     1       5.814   5.022  17.114  0.00  0.00    +0.000 A 
ATOM      9  C   UNL     1       4.816   4.057  17.171  0.00  0.00    +0.000 A 
ATOM     10  C   UNL     1       3.572   4.433  17.665  0.00  0.00    +0.000 A 
ATOM     11  C   UNL     1       3.308   5.820  17.710  0.00  0.00    +0.000 A 
ATOM     12  N   UNL     1       2.347   6.611  18.322  0.00  0.00    +0.000 N 
ATOM     13  H   UNL     1       1.722   9.664  17.244  0.00  0.00    +0.000 HD
ENDROOT
BRANCH   1  19
ATOM     14  N   UNL     1       0.222  11.699  19.292  0.00  0.00    +0.000 N 
ATOM     15  N   UNL     1      -0.922  12.406  19.226  0.00  0.00    +0.000 NA
ATOM     16  C   UNL     1      -1.877  11.486  19.050  0.00  0.00    +0.000 A 
ATOM     17  C   UNL     1      -3.294  11.912  18.977  0.00  0.00    +0.000 C 
ATOM     18  C   UNL     1      -1.320  10.184  18.978  0.00  0.00    +0.000 A 
ATOM     19  C   UNL     1       0.051  10.343  19.119  0.00  0.00    +0.000 A 
BRANCH  14  21
ATOM     20  C   UNL     1       2.180  12.837  18.311  0.00  0.00    +0.000 C 
ATOM     21  C   UNL     1       1.437  12.442  19.577  0.00  0.00    +0.000 C 
ENDBRANCH  14  21
ENDBRANCH   1  19
BRANCH   8  22
ATOM     22  C   UNL     1       7.022   4.617  17.887  0.00  0.00    +0.000 C 
ATOM     23  N   UNL     1       8.098   4.242  17.121  0.00  0.00    +0.000 N 
ATOM     24  O   UNL     1       7.136   4.831  19.091  0.00  0.00    +0.000 OA
ATOM     25  H   UNL     1       8.092   4.377  16.119  0.00  0.00    +0.000 HD
ATOM     26  H   UNL     1       9.004   4.312  17.570  0.00  0.00    +0.000 HD
ENDBRANCH   8  22
BRANCH  10  27
ATOM     27  O   UNL     1       2.684   3.527  18.180  0.00  0.00    +0.000 OA
ATOM     28  C   UNL     1       2.633   2.267  17.495  0.00  0.00    +0.000 C 
ENDBRANCH  10  27
BRANCH  12  29
ATOM     29  C   UNL     1       1.482   6.137  19.381  0.00  0.00    +0.000 C 
BRANCH  29  30
ATOM     30  C   UNL     1       2.145   5.744  20.690  0.00  0.00    +0.000 C 
BRANCH  30  31
ATOM     31  C   UNL     1       1.876   4.299  21.084  0.00  0.00    +0.000 C 
BRANCH  31  32
ATOM     32  N   UNL     1       0.731   3.806  20.331  0.00  0.00    +0.000 NA
ATOM     33  H   UNL     1       1.033   3.140  19.621  0.00  0.00    +0.000 HD
ATOM     34  H   UNL     1       0.296   4.580  19.830  0.00  0.00    +0.000 HD
ENDBRANCH  31  32
ENDBRANCH  30  31
ENDBRANCH  29  30
ENDBRANCH  12  29
TORSDOF 8
ENDMDL
MODEL 5
REMARK VINA RESULT:      -7.4      2.312      4.191
REMARK  Name = 
REMARK  11 active torsions:
REMARK  status: ('A' for Active; 'I' for Inactive)
REMARK    1  A    between atoms: C_1  and  C_2
REMARK    2  A    between atoms: C_2  and  N_3
REMARK    3  A    between atoms: C_5  and  C_6
REMARK    4  A    between atoms: C_8  and  C_9
REMARK    5  A    between atoms: C_16  and  C_17
REMARK    6  A    between atoms: C_21  and  O_22
REMARK    7  A    between atoms: O_22  and  C_23
REMARK    8  A    between atoms: N_25  and  C_26
REMARK    9  A    between atoms: C_26  and  C_27
REMARK   10  A    between atoms: C_27  and  C_28
REMARK   11  A    between atoms: C_28  and  N_29
REMARK                            x       y       z     vdW  Elec       q    Type
REMARK                         _______ _______ _______ _____ _____    ______ ____
ROOT
ATOM      1  C   UNL     1       1.655   9.215  18.400  0.00  0.00    +0.000 C 
ATOM      2  O   UNL     1       1.672   8.691  17.288  0.00  0.00    +0.000 OA
ATOM      3  N   UNL     1       1.915   8.502  19.554  0.00  0.00    +0.000 N 
ATOM      4  C   UNL     1       2.366   7.198  19.505  0.00  0.00    +0.000 A 
ATOM      5  N   UNL     1       1.784   6.223  20.167  0.00  0.00    +0.000 NA
ATOM      6  C   UNL     1       2.563   5.115  19.953  0.00  0.00    +0.000 A 
ATOM      7  C   UNL     1       2.265   3.760  20.135  0.00  0.00    +0.000 A 
ATOM      8  C   UNL     1       3.269   2.852  19.793  0.00  0.00    +0.000 A 
ATOM      9  C   UNL     1       4.593   3.249  19.643  0.00  0.00    +0.000 A 
ATOM     10  C   UNL     1       4.839   4.553  19.227  0.00  0.00    +0.000 A 
ATOM     11  C   UNL     1       3.770   5.466  19.357  0.00  0.00    +0.000 A 
ATOM     12  N   UNL     1       3.507   6.736  18.867  0.00  0.00    +0.000 N 
ATOM     13  H   UNL     1       1.284   8.691  20.321  0.00  0.00    +0.000 HD
ENDROOT
BRANCH   1  19
ATOM     14  N   UNL     1       0.094  11.122  18.844  0.00  0.00    +0.000 N 
ATOM     15  N   UNL     1       0.054  12.463  18.962  0.00  0.00    +0.000 NA
ATOM     16  C   UNL     1       1.308  12.862  18.725  0.00  0.00    +0.000 A 
ATOM     17  C   UNL     1       1.626  14.308  18.730  0.00  0.00    +0.000 C 
ATOM     18  C   UNL     1       2.155  11.751  18.482  0.00  0.00    +0.000 A 
ATOM     19  C   UNL     1       1.351  10.624  18.582  0.00  0.00    +0.000 A 
BRANCH  14  21
ATOM     20  C   UNL     1      -1.837  10.208  17.609  0.00  0.00    +0.000 C 
ATOM     21  C   UNL     1      -1.168  10.414  18.959  0.00  0.00    +0.000 C 
ENDBRANCH  14  21
ENDBRANCH   1  19
BRANCH   8  22
ATOM     22  C   UNL     1       2.947   1.667  18.949  0.00  0.00    +0.000 C 
ATOM     23  N   UNL     1       1.630   1.565  18.578  0.00  0.00    +0.000 N 
ATOM     24  O   UNL     1       3.816   0.977  18.424  0.00  0.00    +0.000 OA
ATOM     25  H   UNL     1       0.981   2.320  18.755  0.00  0.00    +0.000 HD
ATOM     26  H   UNL     1       1.447   1.014  17.747  0.00  0.00    +0.000 HD
ENDBRANCH   8  22
BRANCH  10  27
ATOM     27  O   UNL     1       6.014   4.920  18.626  0.00  0.00    +0.000 OA
ATOM     28  C   UNL     1       7.014   5.442  19.513  0.00  0.00    +0.000 C 
ENDBRANCH  10  27
BRANCH  12  29
ATOM     29  C   UNL     1       4.246   7.340  17.779  0.00  0.00    +0.000 C 
BRANCH  29  30
ATOM     30  C   UNL     1       4.160   6.656  16.424  0.00  0.00    +0.000 C 
BRANCH  30  31
ATOM     31  C   UNL     1       5.524   6.399  15.800  0.00  0.00    +0.000 C 
BRANCH  31  32
ATOM     32  N   UNL     1       6.539   7.113  16.562  0.00  0.00    +0.000 NA
ATOM     33  H   UNL     1       7.417   7.143  16.044  0.00  0.00    +0.000 HD
ATOM     34  H   UNL     1       6.734   6.605  17.424  0.00  0.00    +0.000 HD
ENDBRANCH  31  32
ENDBRANCH  30  31
ENDBRANCH  29  30
ENDBRANCH  12  29
TORSDOF 8
ENDMDL
MODEL 6
REMARK VINA RESULT:      -7.2      2.399      4.866
REMARK  Name = 
REMARK  11 active torsions:
REMARK  status: ('A' for Active; 'I' for Inactive)
REMARK    1  A    between atoms: C_1  and  C_2
REMARK    2  A    between atoms: C_2  and  N_3
REMARK    3  A    between atoms: C_5  and  C_6
REMARK    4  A    between atoms: C_8  and  C_9
REMARK    5  A    between atoms: C_16  and  C_17
REMARK    6  A    between atoms: C_21  and  O_22
REMARK    7  A    between atoms: O_22  and  C_23
REMARK    8  A    between atoms: N_25  and  C_26
REMARK    9  A    between atoms: C_26  and  C_27
REMARK   10  A    between atoms: C_27  and  C_28
REMARK   11  A    between atoms: C_28  and  N_29
REMARK                            x       y       z     vdW  Elec       q    Type
REMARK                         _______ _______ _______ _____ _____    ______ ____
ROOT
ATOM      1  C   UNL     1      -0.160  10.969  20.928  0.00  0.00    +0.000 C 
ATOM      2  O   UNL     1      -0.900  10.598  20.019  0.00  0.00    +0.000 OA
ATOM      3  N   UNL     1       0.838  10.163  21.439  0.00  0.00    +0.000 N 
ATOM      4  C   UNL     1       1.164   8.961  20.845  0.00  0.00    +0.000 A 
ATOM      5  N   UNL     1       1.221   7.833  21.517  0.00  0.00    +0.000 NA
ATOM      6  C   UNL     1       1.666   6.893  20.624  0.00  0.00    +0.000 A 
ATOM      7  C   UNL     1       1.608   5.496  20.687  0.00  0.00    +0.000 A 
ATOM      8  C   UNL     1       2.124   4.803  19.590  0.00  0.00    +0.000 A 
ATOM      9  C   UNL     1       2.972   5.412  18.673  0.00  0.00    +0.000 A 
ATOM     10  C   UNL     1       2.833   6.780  18.467  0.00  0.00    +0.000 A 
ATOM     11  C   UNL     1       2.124   7.496  19.456  0.00  0.00    +0.000 A 
ATOM     12  N   UNL     1       1.565   8.763  19.533  0.00  0.00    +0.000 N 
ATOM     13  H   UNL     1       0.903  10.156  22.448  0.00  0.00    +0.000 HD
ENDROOT
BRANCH   1  19
ATOM     14  N   UNL     1      -1.157  12.578  22.567  0.00  0.00    +0.000 N 
ATOM     15  N   UNL     1      -1.111  13.864  22.963  0.00  0.00    +0.000 NA
ATOM     16  C   UNL     1      -0.224  14.439  22.143  0.00  0.00    +0.000 A 
ATOM     17  C   UNL     1       0.049  15.890  22.267  0.00  0.00    +0.000 C 
ATOM     18  C   UNL     1       0.314  13.492  21.236  0.00  0.00    +0.000 A 
ATOM     19  C   UNL     1      -0.291  12.280  21.539  0.00  0.00    +0.000 A 
BRANCH  14  21
ATOM     20  C   UNL     1      -3.385  12.473  23.624  0.00  0.00    +0.000 C 
ATOM     21  C   UNL     1      -2.123  11.721  23.231  0.00  0.00    +0.000 C 
ENDBRANCH  14  21
ENDBRANCH   1  19
BRANCH   8  22
ATOM     22  C   UNL     1       1.339   3.698  18.970  0.00  0.00    +0.000 C 
ATOM     23  N   UNL     1       0.546   2.994  19.842  0.00  0.00    +0.000 N 
ATOM     24  O   UNL     1       1.217   3.580  17.754  0.00  0.00    +0.000 OA
ATOM     25  H   UNL     1       0.414   3.311  20.793  0.00  0.00    +0.000 HD
ATOM     26  H   UNL     1      -0.239   2.506  19.427  0.00  0.00    +0.000 HD
ENDBRANCH   8  22
BRANCH  10  27
ATOM     27  O   UNL     1       3.264   7.396  17.321  0.00  0.00    +0.000 OA
ATOM     28  C   UNL     1       4.530   6.941  16.825  0.00  0.00    +0.000 C 
ENDBRANCH  10  27
BRANCH  12  29
ATOM     29  C   UNL     1       1.339   9.605  18.377  0.00  0.00    +0.000 C 
BRANCH  29  30
ATOM     30  C   UNL     1       2.416  10.623  18.044  0.00  0.00    +0.000 C 
BRANCH  30  31
ATOM     31  C   UNL     1       2.015  12.049  18.394  0.00  0.00    +0.000 C 
BRANCH  31  32
ATOM     32  N   UNL     1       2.645  12.965  17.452  0.00  0.00    +0.000 NA
ATOM     33  H   UNL     1       3.056  13.756  17.947  0.00  0.00    +0.000 HD
ATOM     34  H   UNL     1       1.935  13.355  16.832  0.00  0.00    +0.000 HD
ENDBRANCH  31  32
ENDBRANCH  30  31
ENDBRANCH  29  30
ENDBRANCH  12  29
TORSDOF 8
ENDMDL
MODEL 7
REMARK VINA RESULT:      -7.1      1.197      1.917
REMARK  Name = 
REMARK  11 active torsions:
REMARK  status: ('A' for Active; 'I' for Inactive)
REMARK    1  A    between atoms: C_1  and  C_2
REMARK    2  A    between atoms: C_2  and  N_3
REMARK    3  A    between atoms: C_5  and  C_6
REMARK    4  A    between atoms: C_8  and  C_9
REMARK    5  A    between atoms: C_16  and  C_17
REMARK    6  A    between atoms: C_21  and  O_22
REMARK    7  A    between atoms: O_22  and  C_23
REMARK    8  A    between atoms: N_25  and  C_26
REMARK    9  A    between atoms: C_26  and  C_27
REMARK   10  A    between atoms: C_27  and  C_28
REMARK   11  A    between atoms: C_28  and  N_29
REMARK                            x       y       z     vdW  Elec       q    Type
REMARK                         _______ _______ _______ _____ _____    ______ ____
ROOT
ATOM      1  C   UNL     1       1.477   9.005  19.797  0.00  0.00    +0.000 C 
ATOM      2  O   UNL     1       2.194   8.722  20.755  0.00  0.00    +0.000 OA
ATOM      3  N   UNL     1       1.729   8.533  18.524  0.00  0.00    +0.000 N 
ATOM      4  C   UNL     1       2.708   7.588  18.290  0.00  0.00    +0.000 A 
ATOM      5  N   UNL     1       3.650   7.754  17.389  0.00  0.00    +0.000 NA
ATOM      6  C   UNL     1       4.361   6.583  17.378  0.00  0.00    +0.000 A 
ATOM      7  C   UNL     1       5.636   6.311  16.869  0.00  0.00    +0.000 A 
ATOM      8  C   UNL     1       6.110   5.009  17.041  0.00  0.00    +0.000 A 
ATOM      9  C   UNL     1       5.257   3.956  17.350  0.00  0.00    +0.000 A 
ATOM     10  C   UNL     1       4.104   4.242  18.072  0.00  0.00    +0.000 A 
ATOM     11  C   UNL     1       3.701   5.595  18.104  0.00  0.00    +0.000 A 
ATOM     12  N   UNL     1       2.802   6.329  18.862  0.00  0.00    +0.000 N 
ATOM     13  H   UNL     1       1.638   9.223  17.791  0.00  0.00    +0.000 HD
ENDROOT
BRANCH   1  19
ATOM     14  N   UNL     1      -0.556   9.833  21.003  0.00  0.00    +0.000 N 
ATOM     15  N   UNL     1      -1.568  10.716  20.907  0.00  0.00    +0.000 NA
ATOM     16  C   UNL     1      -1.386  11.311  19.723  0.00  0.00    +0.000 A 
ATOM     17  C   UNL     1      -2.360  12.329  19.262  0.00  0.00    +0.000 C 
ATOM     18  C   UNL     1      -0.226  10.814  19.079  0.00  0.00    +0.000 A 
ATOM     19  C   UNL     1       0.314   9.864  19.935  0.00  0.00    +0.000 A 
BRANCH  14  21
ATOM     20  C   UNL     1      -0.083   9.682  23.420  0.00  0.00    +0.000 C 
ATOM     21  C   UNL     1      -0.551   8.963  22.165  0.00  0.00    +0.000 C 
ENDBRANCH  14  21
ENDBRANCH   1  19
BRANCH   8  22
ATOM     22  C   UNL     1       7.486   4.780  17.566  0.00  0.00    +0.000 C 
ATOM     23  N   UNL     1       7.674   5.151  18.873  0.00  0.00    +0.000 N 
ATOM     24  O   UNL     1       8.311   4.094  16.969  0.00  0.00    +0.000 OA
ATOM     25  H   UNL     1       6.891   5.422  19.453  0.00  0.00    +0.000 HD
ATOM     26  H   UNL     1       8.442   4.697  19.354  0.00  0.00    +0.000 HD
ENDBRANCH   8  22
BRANCH  10  27
ATOM     27  O   UNL     1       3.443   3.291  18.804  0.00  0.00    +0.000 OA
ATOM     28  C   UNL     1       4.281   2.456  19.615  0.00  0.00    +0.000 C 
ENDBRANCH  10  27
BRANCH  12  29
ATOM     29  C   UNL     1       2.225   5.848  20.100  0.00  0.00    +0.000 C 
BRANCH  29  30
ATOM     30  C   UNL     1       0.965   5.005  19.991  0.00  0.00    +0.000 C 
BRANCH  30  31
ATOM     31  C   UNL     1       1.040   3.716  20.797  0.00  0.00    +0.000 C 
BRANCH  31  32
ATOM     32  N   UNL     1       0.570   2.611  19.972  0.00  0.00    +0.000 NA
ATOM     33  H   UNL     1      -0.436   2.488  20.081  0.00  0.00    +0.000 HD
ATOM     34  H   UNL     1       1.000   1.743  20.293  0.00  0.00    +0.000 HD
ENDBRANCH  31  32
ENDBRANCH  30  31
ENDBRANCH  29  30
ENDBRANCH  12  29
TORSDOF 8
ENDMDL
MODEL 8
REMARK VINA RESULT:      -7.0      2.106      3.519
REMARK  Name = 
REMARK  11 active torsions:
REMARK  status: ('A' for Active; 'I' for Inactive)
REMARK    1  A    between atoms: C_1  and  C_2
REMARK    2  A    between atoms: C_2  and  N_3
REMARK    3  A    between atoms: C_5  and  C_6
REMARK    4  A    between atoms: C_8  and  C_9
REMARK    5  A    between atoms: C_16  and  C_17
REMARK    6  A    between atoms: C_21  and  O_22
REMARK    7  A    between atoms: O_22  and  C_23
REMARK    8  A    between atoms: N_25  and  C_26
REMARK    9  A    between atoms: C_26  and  C_27
REMARK   10  A    between atoms: C_27  and  C_28
REMARK   11  A    between atoms: C_28  and  N_29
REMARK                            x       y       z     vdW  Elec       q    Type
REMARK                         _______ _______ _______ _____ _____    ______ ____
ROOT
ATOM      1  C   UNL     1       1.352  11.655  19.521  0.00  0.00    +0.000 C 
ATOM      2  O   UNL     1       2.163  11.502  20.432  0.00  0.00    +0.000 OA
ATOM      3  N   UNL     1       1.202  10.731  18.506  0.00  0.00    +0.000 N 
ATOM      4  C   UNL     1       1.842   9.508  18.548  0.00  0.00    +0.000 A 
ATOM      5  N   UNL     1       2.581   9.062  17.557  0.00  0.00    +0.000 NA
ATOM      6  C   UNL     1       2.959   7.796  17.920  0.00  0.00    +0.000 A 
ATOM      7  C   UNL     1       3.988   6.989  17.420  0.00  0.00    +0.000 A 
ATOM      8  C   UNL     1       4.147   5.740  18.026  0.00  0.00    +0.000 A 
ATOM      9  C   UNL     1       3.145   5.171  18.803  0.00  0.00    +0.000 A 
ATOM     10  C   UNL     1       2.280   6.025  19.479  0.00  0.00    +0.000 A 
ATOM     11  C   UNL     1       2.244   7.364  19.033  0.00  0.00    +0.000 A 
ATOM     12  N   UNL     1       1.739   8.550  19.544  0.00  0.00    +0.000 N 
ATOM     13  H   UNL     1       1.131  11.127  17.578  0.00  0.00    +0.000 HD
ENDROOT
BRANCH   1  19
ATOM     14  N   UNL     1      -0.871  12.805  19.606  0.00  0.00    +0.000 N 
ATOM     15  N   UNL     1      -1.454  14.012  19.478  0.00  0.00    +0.000 NA
ATOM     16  C   UNL     1      -0.449  14.843  19.177  0.00  0.00    +0.000 A 
ATOM     17  C   UNL     1      -0.738  16.273  18.921  0.00  0.00    +0.000 C 
ATOM     18  C   UNL     1       0.787  14.150  19.142  0.00  0.00    +0.000 A 
ATOM     19  C   UNL     1       0.497  12.826  19.442  0.00  0.00    +0.000 A 
BRANCH  14  21
ATOM     20  C   UNL     1      -2.439  11.204  18.572  0.00  0.00    +0.000 C 
ATOM     21  C   UNL     1      -1.749  11.673  19.843  0.00  0.00    +0.000 C 
ENDBRANCH  14  21
ENDBRANCH   1  19
BRANCH   8  22
ATOM     22  C   UNL     1       5.502   5.285  18.449  0.00  0.00    +0.000 C 
ATOM     23  N   UNL     1       5.580   3.964  18.811  0.00  0.00    +0.000 N 
ATOM     24  O   UNL     1       6.511   5.958  18.257  0.00  0.00    +0.000 OA
ATOM     25  H   UNL     1       4.800   3.338  18.657  0.00  0.00    +0.000 HD
ATOM     26  H   UNL     1       6.500   3.544  18.751  0.00  0.00    +0.000 HD
ENDBRANCH   8  22
BRANCH  10  27
ATOM     27  O   UNL     1       1.575   5.629  20.584  0.00  0.00    +0.000 OA
ATOM     28  C   UNL     1       1.069   4.287  20.534  0.00  0.00    +0.000 C 
ENDBRANCH  10  27
BRANCH  12  29
ATOM     29  C   UNL     1       1.337   8.715  20.925  0.00  0.00    +0.000 C 
BRANCH  29  30
ATOM     30  C   UNL     1      -0.154   8.706  21.215  0.00  0.00    +0.000 C 
BRANCH  30  31
ATOM     31  C   UNL     1      -0.501   9.309  22.569  0.00  0.00    +0.000 C 
BRANCH  31  32
ATOM     32  N   UNL     1       0.263  10.536  22.753  0.00  0.00    +0.000 NA
ATOM     33  H   UNL     1       0.292  11.070  21.886  0.00  0.00    +0.000 HD
ATOM     34  H   UNL     1       1.230  10.301  22.976  0.00  0.00    +0.000 HD
ENDBRANCH  31  32
ENDBRANCH  30  31
ENDBRANCH  29  30
ENDBRANCH  12  29
TORSDOF 8
ENDMDL
MODEL 9
REMARK VINA RESULT:      -7.0      2.170      4.336
REMARK  Name = 
REMARK  11 active torsions:
REMARK  status: ('A' for Active; 'I' for Inactive)
REMARK    1  A    between atoms: C_1  and  C_2
REMARK    2  A    between atoms: C_2  and  N_3
REMARK    3  A    between atoms: C_5  and  C_6
REMARK    4  A    between atoms: C_8  and  C_9
REMARK    5  A    between atoms: C_16  and  C_17
REMARK    6  A    between atoms: C_21  and  O_22
REMARK    7  A    between atoms: O_22  and  C_23
REMARK    8  A    between atoms: N_25  and  C_26
REMARK    9  A    between atoms: C_26  and  C_27
REMARK   10  A    between atoms: C_27  and  C_28
REMARK   11  A    between atoms: C_28  and  N_29
REMARK                            x       y       z     vdW  Elec       q    Type
REMARK                         _______ _______ _______ _____ _____    ______ ____
ROOT
ATOM      1  C   UNL     1      -0.377  10.452  20.572  0.00  0.00    +0.000 C 
ATOM      2  O   UNL     1      -0.993  10.063  19.582  0.00  0.00    +0.000 OA
ATOM      3  N   UNL     1       0.639   9.712  21.145  0.00  0.00    +0.000 N 
ATOM      4  C   UNL     1       1.124   8.570  20.538  0.00  0.00    +0.000 A 
ATOM      5  N   UNL     1       1.219   7.421  21.168  0.00  0.00    +0.000 NA
ATOM      6  C   UNL     1       1.827   6.566  20.286  0.00  0.00    +0.000 A 
ATOM      7  C   UNL     1       1.888   5.168  20.289  0.00  0.00    +0.000 A 
ATOM      8  C   UNL     1       2.563   4.573  19.221  0.00  0.00    +0.000 A 
ATOM      9  C   UNL     1       3.433   5.295  18.413  0.00  0.00    +0.000 A 
ATOM     10  C   UNL     1       3.192   6.655  18.248  0.00  0.00    +0.000 A 
ATOM     11  C   UNL     1       2.334   7.260  19.192  0.00  0.00    +0.000 A 
ATOM     12  N   UNL     1       1.660   8.470  19.264  0.00  0.00    +0.000 N 
ATOM     13  H   UNL     1       0.611   9.662  22.154  0.00  0.00    +0.000 HD
ENDROOT
BRANCH   1  19
ATOM     14  N   UNL     1      -0.886  12.903  20.549  0.00  0.00    +0.000 N 
ATOM     15  N   UNL     1      -1.141  13.948  21.359  0.00  0.00    +0.000 NA
ATOM     16  C   UNL     1      -1.054  13.447  22.596  0.00  0.00    +0.000 A 
ATOM     17  C   UNL     1      -1.239  14.344  23.761  0.00  0.00    +0.000 C 
ATOM     18  C   UNL     1      -0.767  12.059  22.561  0.00  0.00    +0.000 A 
ATOM     19  C   UNL     1      -0.679  11.717  21.218  0.00  0.00    +0.000 A 
BRANCH  14  21
ATOM     20  C   UNL     1      -0.254  14.558  18.831  0.00  0.00    +0.000 C 
ATOM     21  C   UNL     1      -0.819  13.177  19.125  0.00  0.00    +0.000 C 
ENDBRANCH  14  21
ENDBRANCH   1  19
BRANCH   8  22
ATOM     22  C   UNL     1       1.940   3.436  18.486  0.00  0.00    +0.000 C 
ATOM     23  N   UNL     1       0.950   2.779  19.172  0.00  0.00    +0.000 N 
ATOM     24  O   UNL     1       2.117   3.253  17.285  0.00  0.00    +0.000 OA
ATOM     25  H   UNL     1       0.593   3.146  20.045  0.00  0.00    +0.000 HD
ATOM     26  H   UNL     1       0.284   2.268  18.604  0.00  0.00    +0.000 HD
ENDBRANCH   8  22
BRANCH  10  27
ATOM     27  O   UNL     1       3.670   7.358  17.174  0.00  0.00    +0.000 OA
ATOM     28  C   UNL     1       4.841   6.806  16.556  0.00  0.00    +0.000 C 
ENDBRANCH  10  27
BRANCH  12  29
ATOM     29  C   UNL     1       1.466   9.342  18.125  0.00  0.00    +0.000 C 
BRANCH  29  30
ATOM     30  C   UNL     1       2.544  10.380  17.861  0.00  0.00    +0.000 C 
BRANCH  30  31
ATOM     31  C   UNL     1       2.192  11.757  18.406  0.00  0.00    +0.000 C 
BRANCH  31  32
ATOM     32  N   UNL     1       2.610  12.770  17.446  0.00  0.00    +0.000 NA
ATOM     33  H   UNL     1       2.884  12.334  16.566  0.00  0.00    +0.000 HD
ATOM     34  H   UNL     1       3.440  13.247  17.798  0.00  0.00    +0.000 HD
ENDBRANCH  31  32
ENDBRANCH  30  31
ENDBRANCH  29  30
ENDBRANCH  12  29
TORSDOF 8
ENDMDL
