MODEL 1
REMARK VINA RESULT:      -7.3      0.000      0.000
REMARK  Name = 
REMARK  7 active torsions:
REMARK  status: ('A' for Active; 'I' for Inactive)
REMARK    1  A    between atoms: C_1  and  N_2
REMARK    2  A    between atoms: N_11  and  C_12
REMARK    3  A    between atoms: C_15  and  O_16
REMARK    4  A    between atoms: O_16  and  C_17
REMARK    5  A    between atoms: C_17  and  C_18
REMARK    6  A    between atoms: C_18  and  C_19
REMARK    7  A    between atoms: C_19  and  N_20
REMARK                            x       y       z     vdW  Elec       q    Type
REMARK                         _______ _______ _______ _____ _____    ______ ____
ROOT
ATOM      1  C   UNL     1       1.888   7.417  20.254  0.00  0.00    +0.000 A 
ATOM      2  C   UNL     1       2.369   7.636  18.962  0.00  0.00    +0.000 A 
ATOM      3  C   UNL     1       2.520   6.599  18.051  0.00  0.00    +0.000 A 
ATOM      4  C   UNL     1       2.192   5.293  18.406  0.00  0.00    +0.000 A 
ATOM      5  C   UNL     1       1.715   5.045  19.692  0.00  0.00    +0.000 A 
ATOM      6  C   UNL     1       1.562   6.101  20.608  0.00  0.00    +0.000 A 
ENDROOT
BRANCH   1  17
ATOM      7  C   UNL     1      -3.349  10.437  14.785  0.00  0.00    +0.000 C 
ATOM      8  N   UNL     1      -3.226  10.630  16.229  0.00  0.00    +0.000 NA
ATOM      9  C   UNL     1      -2.312  11.756  16.526  0.00  0.00    +0.000 C 
ATOM     10  C   UNL     1      -2.108  11.982  18.043  0.00  0.00    +0.000 C 
ATOM     11  N   UNL     1      -1.645  10.745  18.669  0.00  0.00    +0.000 N 
ATOM     12  C   UNL     1      -0.848  10.722  19.791  0.00  0.00    +0.000 A 
ATOM     13  C   UNL     1      -0.700  11.803  20.631  0.00  0.00    +0.000 A 
ATOM     14  C   UNL     1       0.220  11.679  21.647  0.00  0.00    +0.000 A 
ATOM     15  N   UNL     1       0.990  10.594  21.837  0.00  0.00    +0.000 NA
ATOM     16  C   UNL     1       0.801   9.586  20.981  0.00  0.00    +0.000 A 
ATOM     17  N   UNL     1       1.626   8.471  21.138  0.00  0.00    +0.000 N 
ATOM     18  N   UNL     1      -0.123   9.615  20.005  0.00  0.00    +0.000 NA
ATOM     19  C   UNL     1      -2.482   9.565  18.399  0.00  0.00    +0.000 C 
ATOM     20  C   UNL     1      -2.705   9.401  16.875  0.00  0.00    +0.000 C 
ATOM     21  H   UNL     1       2.269   8.605  21.902  0.00  0.00    +0.000 HD
ENDBRANCH   1  17
BRANCH   4  22
ATOM     22  O   UNL     1       2.302   4.212  17.566  0.00  0.00    +0.000 OA
BRANCH  22  23
ATOM     23  C   UNL     1       2.420   2.963  18.248  0.00  0.00    +0.000 C 
BRANCH  23  24
ATOM     24  C   UNL     1       3.840   2.432  18.208  0.00  0.00    +0.000 C 
BRANCH  24  25
ATOM     25  C   UNL     1       4.705   3.033  19.317  0.00  0.00    +0.000 C 
BRANCH  25  26
ATOM     26  N   UNL     1       5.824   3.832  18.783  0.00  0.00    +0.000 NA
ATOM     27  C   UNL     1       5.856   5.194  19.359  0.00  0.00    +0.000 C 
ATOM     28  C   UNL     1       7.075   6.019  18.929  0.00  0.00    +0.000 C 
ATOM     29  S   UNL     1       7.106   6.307  17.138  0.00  0.00    +0.000 S 
ATOM     30  C   UNL     1       6.915   4.572  16.632  0.00  0.00    +0.000 C 
ATOM     31  C   UNL     1       5.717   3.896  17.308  0.00  0.00    +0.000 C 
ENDBRANCH  25  26
ENDBRANCH  24  25
ENDBRANCH  23  24
ENDBRANCH  22  23
ENDBRANCH   4  22
TORSDOF 6
ENDMDL
MODEL 2
REMARK VINA RESULT:      -7.2      4.798      7.417
REMARK  Name = 
REMARK  7 active torsions:
REMARK  status: ('A' for Active; 'I' for Inactive)
REMARK    1  A    between atoms: C_1  and  N_2
REMARK    2  A    between atoms: N_11  and  C_12
REMARK    3  A    between atoms: C_15  and  O_16
REMARK    4  A    between atoms: O_16  and  C_17
REMARK    5  A    between atoms: C_17  and  C_18
REMARK    6  A    between atoms: C_18  and  C_19
REMARK    7  A    between atoms: C_19  and  N_20
REMARK                            x       y       z     vdW  Elec       q    Type
REMARK                         _______ _______ _______ _____ _____    ______ ____
ROOT
ATOM      1  C   UNL     1       5.985   5.488  18.541  0.00  0.00    +0.000 A 
ATOM      2  C   UNL     1       7.214   5.640  19.184  0.00  0.00    +0.000 A 
ATOM      3  C   UNL     1       8.097   6.657  18.846  0.00  0.00    +0.000 A 
ATOM      4  C   UNL     1       7.776   7.565  17.840  0.00  0.00    +0.000 A 
ATOM      5  C   UNL     1       6.557   7.433  17.177  0.00  0.00    +0.000 A 
ATOM      6  C   UNL     1       5.668   6.401  17.527  0.00  0.00    +0.000 A 
ENDROOT
BRANCH   1  17
ATOM      7  C   UNL     1       1.057  11.602  20.726  0.00  0.00    +0.000 C 
ATOM      8  N   UNL     1       0.790  10.203  20.397  0.00  0.00    +0.000 NA
ATOM      9  C   UNL     1       0.889   9.358  21.608  0.00  0.00    +0.000 C 
ATOM     10  C   UNL     1       0.657   7.856  21.315  0.00  0.00    +0.000 C 
ATOM     11  N   UNL     1       1.584   7.407  20.279  0.00  0.00    +0.000 N 
ATOM     12  C   UNL     1       2.047   6.113  20.194  0.00  0.00    +0.000 A 
ATOM     13  C   UNL     1       1.439   5.052  20.826  0.00  0.00    +0.000 A 
ATOM     14  C   UNL     1       2.077   3.835  20.752  0.00  0.00    +0.000 A 
ATOM     15  N   UNL     1       3.256   3.640  20.139  0.00  0.00    +0.000 NA
ATOM     16  C   UNL     1       3.796   4.714  19.554  0.00  0.00    +0.000 A 
ATOM     17  N   UNL     1       5.044   4.536  18.953  0.00  0.00    +0.000 N 
ATOM     18  N   UNL     1       3.197   5.918  19.533  0.00  0.00    +0.000 NA
ATOM     19  C   UNL     1       1.572   8.213  19.047  0.00  0.00    +0.000 C 
ATOM     20  C   UNL     1       1.756   9.713  19.385  0.00  0.00    +0.000 C 
ATOM     21  H   UNL     1       5.361   3.586  19.061  0.00  0.00    +0.000 HD
ENDBRANCH   1  17
BRANCH   4  22
ATOM     22  O   UNL     1       8.585   8.604  17.450  0.00  0.00    +0.000 OA
BRANCH  22  23
ATOM     23  C   UNL     1       8.307   9.833  18.124  0.00  0.00    +0.000 C 
BRANCH  23  24
ATOM     24  C   UNL     1       9.514  10.342  18.887  0.00  0.00    +0.000 C 
BRANCH  24  25
ATOM     25  C   UNL     1       9.301  11.765  19.405  0.00  0.00    +0.000 C 
BRANCH  25  26
ATOM     26  N   UNL     1       9.834  12.784  18.479  0.00  0.00    +0.000 NA
ATOM     27  C   UNL     1      11.015  12.293  17.737  0.00  0.00    +0.000 C 
ATOM     28  C   UNL     1      11.526  13.270  16.672  0.00  0.00    +0.000 C 
ATOM     29  S   UNL     1      12.091  14.834  17.396  0.00  0.00    +0.000 S 
ATOM     30  C   UNL     1      10.590  15.187  18.358  0.00  0.00    +0.000 C 
ATOM     31  C   UNL     1      10.172  14.006  19.241  0.00  0.00    +0.000 C 
ENDBRANCH  25  26
ENDBRANCH  24  25
ENDBRANCH  23  24
ENDBRANCH  22  23
ENDBRANCH   4  22
TORSDOF 6
ENDMDL
MODEL 3
REMARK VINA RESULT:      -7.2      3.416      5.106
REMARK  Name = 
REMARK  7 active torsions:
REMARK  status: ('A' for Active; 'I' for Inactive)
REMARK    1  A    between atoms: C_1  and  N_2
REMARK    2  A    between atoms: N_11  and  C_12
REMARK    3  A    between atoms: C_15  and  O_16
REMARK    4  A    between atoms: O_16  and  C_17
REMARK    5  A    between atoms: C_17  and  C_18
REMARK    6  A    between atoms: C_18  and  C_19
REMARK    7  A    between atoms: C_19  and  N_20
REMARK                            x       y       z     vdW  Elec       q    Type
REMARK                         _______ _______ _______ _____ _____    ______ ____
ROOT
ATOM      1  C   UNL     1       0.868   9.169  19.710  0.00  0.00    +0.000 A 
ATOM      2  C   UNL     1       1.572   8.082  20.230  0.00  0.00    +0.000 A 
ATOM      3  C   UNL     1       2.517   7.394  19.481  0.00  0.00    +0.000 A 
ATOM      4  C   UNL     1       2.792   7.775  18.170  0.00  0.00    +0.000 A 
ATOM      5  C   UNL     1       2.100   8.854  17.623  0.00  0.00    +0.000 A 
ATOM      6  C   UNL     1       1.146   9.546  18.389  0.00  0.00    +0.000 A 
ENDROOT
BRANCH   1  17
ATOM      7  C   UNL     1       5.820  15.550  18.611  0.00  0.00    +0.000 C 
ATOM      8  N   UNL     1       4.406  15.462  18.973  0.00  0.00    +0.000 NA
ATOM      9  C   UNL     1       4.253  15.363  20.442  0.00  0.00    +0.000 C 
ATOM     10  C   UNL     1       2.777  15.224  20.886  0.00  0.00    +0.000 C 
ATOM     11  N   UNL     1       2.164  14.082  20.210  0.00  0.00    +0.000 N 
ATOM     12  C   UNL     1       1.138  13.346  20.759  0.00  0.00    +0.000 A 
ATOM     13  C   UNL     1       0.358  13.800  21.799  0.00  0.00    +0.000 A 
ATOM     14  C   UNL     1      -0.553  12.914  22.326  0.00  0.00    +0.000 A 
ATOM     15  N   UNL     1      -0.693  11.643  21.912  0.00  0.00    +0.000 NA
ATOM     16  C   UNL     1       0.101  11.266  20.905  0.00  0.00    +0.000 A 
ATOM     17  N   UNL     1      -0.002   9.935  20.495  0.00  0.00    +0.000 N 
ATOM     18  N   UNL     1       0.968  12.098  20.302  0.00  0.00    +0.000 NA
ATOM     19  C   UNL     1       2.297  14.086  18.745  0.00  0.00    +0.000 C 
ATOM     20  C   UNL     1       3.780  14.277  18.340  0.00  0.00    +0.000 C 
ATOM     21  H   UNL     1      -0.685   9.442  21.048  0.00  0.00    +0.000 HD
ENDBRANCH   1  17
BRANCH   4  22
ATOM     22  O   UNL     1       3.717   7.158  17.363  0.00  0.00    +0.000 OA
BRANCH  22  23
ATOM     23  C   UNL     1       4.313   6.002  17.953  0.00  0.00    +0.000 C 
BRANCH  23  24
ATOM     24  C   UNL     1       4.340   4.829  16.993  0.00  0.00    +0.000 C 
BRANCH  24  25
ATOM     25  C   UNL     1       3.287   3.779  17.347  0.00  0.00    +0.000 C 
BRANCH  25  26
ATOM     26  N   UNL     1       2.932   3.803  18.780  0.00  0.00    +0.000 NA
ATOM     27  C   UNL     1       3.471   2.631  19.503  0.00  0.00    +0.000 C 
ATOM     28  C   UNL     1       3.236   2.677  21.017  0.00  0.00    +0.000 C 
ATOM     29  S   UNL     1       1.470   2.667  21.434  0.00  0.00    +0.000 S 
ATOM     30  C   UNL     1       0.982   4.050  20.360  0.00  0.00    +0.000 C 
ATOM     31  C   UNL     1       1.460   3.864  18.916  0.00  0.00    +0.000 C 
ENDBRANCH  25  26
ENDBRANCH  24  25
ENDBRANCH  23  24
ENDBRANCH  22  23
ENDBRANCH   4  22
TORSDOF 6
ENDMDL
MODEL 4
REMARK VINA RESULT:      -7.1      5.073      8.069
REMARK  Name = 
REMARK  7 active torsions:
REMARK  status: ('A' for Active; 'I' for Inactive)
REMARK    1  A    between atoms: C_1  and  N_2
REMARK    2  A    between atoms: N_11  and  C_12
REMARK    3  A    between atoms: C_15  and  O_16
REMARK    4  A    between atoms: O_16  and  C_17
REMARK    5  A    between atoms: C_17  and  C_18
REMARK    6  A    between atoms: C_18  and  C_19
REMARK    7  A    between atoms: C_19  and  N_20
REMARK                            x       y       z     vdW  Elec       q    Type
REMARK                         _______ _______ _______ _____ _____    ______ ____
ROOT
ATOM      1  C   UNL     1       6.785   5.455  18.358  0.00  0.00    +0.000 A 
ATOM      2  C   UNL     1       7.745   5.962  19.235  0.00  0.00    +0.000 A 
ATOM      3  C   UNL     1       8.413   7.153  18.982  0.00  0.00    +0.000 A 
ATOM      4  C   UNL     1       8.139   7.885  17.829  0.00  0.00    +0.000 A 
ATOM      5  C   UNL     1       7.189   7.399  16.933  0.00  0.00    +0.000 A 
ATOM      6  C   UNL     1       6.516   6.193  17.197  0.00  0.00    +0.000 A 
ENDROOT
BRANCH   1  17
ATOM      7  C   UNL     1       0.737  10.360  20.769  0.00  0.00    +0.000 C 
ATOM      8  N   UNL     1       0.747   8.965  20.330  0.00  0.00    +0.000 NA
ATOM      9  C   UNL     1       0.970   8.062  21.481  0.00  0.00    +0.000 C 
ATOM     10  C   UNL     1       1.033   6.571  21.072  0.00  0.00    +0.000 C 
ATOM     11  N   UNL     1       2.056   6.384  20.045  0.00  0.00    +0.000 N 
ATOM     12  C   UNL     1       2.757   5.209  19.887  0.00  0.00    +0.000 A 
ATOM     13  C   UNL     1       2.341   4.007  20.416  0.00  0.00    +0.000 A 
ATOM     14  C   UNL     1       3.199   2.939  20.282  0.00  0.00    +0.000 A 
ATOM     15  N   UNL     1       4.410   3.015  19.706  0.00  0.00    +0.000 NA
ATOM     16  C   UNL     1       4.754   4.213  19.222  0.00  0.00    +0.000 A 
ATOM     17  N   UNL     1       6.029   4.316  18.662  0.00  0.00    +0.000 N 
ATOM     18  N   UNL     1       3.940   5.282  19.262  0.00  0.00    +0.000 NA
ATOM     19  C   UNL     1       1.927   7.266  18.875  0.00  0.00    +0.000 C 
ATOM     20  C   UNL     1       1.816   8.744  19.327  0.00  0.00    +0.000 C 
ATOM     21  H   UNL     1       6.516   3.436  18.715  0.00  0.00    +0.000 HD
ENDBRANCH   1  17
BRANCH   4  22
ATOM     22  O   UNL     1       8.745   9.074  17.507  0.00  0.00    +0.000 OA
BRANCH  22  23
ATOM     23  C   UNL     1       8.946   9.938  18.626  0.00  0.00    +0.000 C 
BRANCH  23  24
ATOM     24  C   UNL     1       9.751  11.167  18.252  0.00  0.00    +0.000 C 
BRANCH  24  25
ATOM     25  C   UNL     1       8.854  12.322  17.805  0.00  0.00    +0.000 C 
BRANCH  25  26
ATOM     26  N   UNL     1       9.557  13.619  17.830  0.00  0.00    +0.000 NA
ATOM     27  C   UNL     1      10.914  13.524  17.251  0.00  0.00    +0.000 C 
ATOM     28  C   UNL     1      11.636  14.872  17.139  0.00  0.00    +0.000 C 
ATOM     29  S   UNL     1      11.912  15.634  18.763  0.00  0.00    +0.000 S 
ATOM     30  C   UNL     1      10.195  15.528  19.351  0.00  0.00    +0.000 C 
ATOM     31  C   UNL     1       9.622  14.111  19.224  0.00  0.00    +0.000 C 
ENDBRANCH  25  26
ENDBRANCH  24  25
ENDBRANCH  23  24
ENDBRANCH  22  23
ENDBRANCH   4  22
TORSDOF 6
ENDMDL
MODEL 5
REMARK VINA RESULT:      -7.0      6.459      8.153
REMARK  Name = 
REMARK  7 active torsions:
REMARK  status: ('A' for Active; 'I' for Inactive)
REMARK    1  A    between atoms: C_1  and  N_2
REMARK    2  A    between atoms: N_11  and  C_12
REMARK    3  A    between atoms: C_15  and  O_16
REMARK    4  A    between atoms: O_16  and  C_17
REMARK    5  A    between atoms: C_17  and  C_18
REMARK    6  A    between atoms: C_18  and  C_19
REMARK    7  A    between atoms: C_19  and  N_20
REMARK                            x       y       z     vdW  Elec       q    Type
REMARK                         _______ _______ _______ _____ _____    ______ ____
ROOT
ATOM      1  C   UNL     1       9.562  12.646  18.827  0.00  0.00    +0.000 A 
ATOM      2  C   UNL     1       9.952  11.835  19.893  0.00  0.00    +0.000 A 
ATOM      3  C   UNL     1       9.675  10.475  19.919  0.00  0.00    +0.000 A 
ATOM      4  C   UNL     1       8.990   9.873  18.866  0.00  0.00    +0.000 A 
ATOM      5  C   UNL     1       8.583  10.661  17.791  0.00  0.00    +0.000 A 
ATOM      6  C   UNL     1       8.869  12.038  17.771  0.00  0.00    +0.000 A 
ENDROOT
BRANCH   1  17
ATOM      7  C   UNL     1       1.697  14.667  19.538  0.00  0.00    +0.000 C 
ATOM      8  N   UNL     1       2.925  15.417  19.797  0.00  0.00    +0.000 NA
ATOM      9  C   UNL     1       3.375  16.113  18.571  0.00  0.00    +0.000 C 
ATOM     10  C   UNL     1       4.698  16.892  18.773  0.00  0.00    +0.000 C 
ATOM     11  N   UNL     1       5.729  15.989  19.279  0.00  0.00    +0.000 N 
ATOM     12  C   UNL     1       7.072  16.165  19.026  0.00  0.00    +0.000 A 
ATOM     13  C   UNL     1       7.607  17.358  18.594  0.00  0.00    +0.000 A 
ATOM     14  C   UNL     1       8.944  17.357  18.267  0.00  0.00    +0.000 A 
ATOM     15  N   UNL     1       9.729  16.268  18.313  0.00  0.00    +0.000 NA
ATOM     16  C   UNL     1       9.143  15.142  18.733  0.00  0.00    +0.000 A 
ATOM     17  N   UNL     1       9.936  13.993  18.742  0.00  0.00    +0.000 N 
ATOM     18  N   UNL     1       7.859  15.085  19.127  0.00  0.00    +0.000 NA
ATOM     19  C   UNL     1       5.352  15.232  20.483  0.00  0.00    +0.000 C 
ATOM     20  C   UNL     1       4.001  14.508  20.260  0.00  0.00    +0.000 C 
ATOM     21  H   UNL     1      10.866  14.196  18.411  0.00  0.00    +0.000 HD
ENDBRANCH   1  17
BRANCH   4  22
ATOM     22  O   UNL     1       8.685   8.536  18.807  0.00  0.00    +0.000 OA
BRANCH  22  23
ATOM     23  C   UNL     1       7.871   8.182  17.688  0.00  0.00    +0.000 C 
BRANCH  23  24
ATOM     24  C   UNL     1       7.488   6.715  17.711  0.00  0.00    +0.000 C 
BRANCH  24  25
ATOM     25  C   UNL     1       6.376   6.400  16.709  0.00  0.00    +0.000 C 
BRANCH  25  26
ATOM     26  N   UNL     1       5.236   5.705  17.338  0.00  0.00    +0.000 NA
ATOM     27  C   UNL     1       4.115   6.627  17.622  0.00  0.00    +0.000 C 
ATOM     28  C   UNL     1       2.861   5.928  18.159  0.00  0.00    +0.000 C 
ATOM     29  S   UNL     1       3.163   5.113  19.752  0.00  0.00    +0.000 S 
ATOM     30  C   UNL     1       4.627   4.164  19.240  0.00  0.00    +0.000 C 
ATOM     31  C   UNL     1       5.694   5.047  18.582  0.00  0.00    +0.000 C 
ENDBRANCH  25  26
ENDBRANCH  24  25
ENDBRANCH  23  24
ENDBRANCH  22  23
ENDBRANCH   4  22
TORSDOF 6
ENDMDL
MODEL 6
REMARK VINA RESULT:      -7.0      4.927      7.423
REMARK  Name = 
REMARK  7 active torsions:
REMARK  status: ('A' for Active; 'I' for Inactive)
REMARK    1  A    between atoms: C_1  and  N_2
REMARK    2  A    between atoms: N_11  and  C_12
REMARK    3  A    between atoms: C_15  and  O_16
REMARK    4  A    between atoms: O_16  and  C_17
REMARK    5  A    between atoms: C_17  and  C_18
REMARK    6  A    between atoms: C_18  and  C_19
REMARK    7  A    between atoms: C_19  and  N_20
REMARK                            x       y       z     vdW  Elec       q    Type
REMARK                         _______ _______ _______ _____ _____    ______ ____
ROOT
ATOM      1  C   UNL     1       5.831   5.430  18.376  0.00  0.00    +0.000 A 
ATOM      2  C   UNL     1       7.097   5.549  18.951  0.00  0.00    +0.000 A 
ATOM      3  C   UNL     1       7.979   6.555  18.580  0.00  0.00    +0.000 A 
ATOM      4  C   UNL     1       7.620   7.487  17.610  0.00  0.00    +0.000 A 
ATOM      5  C   UNL     1       6.364   7.389  17.014  0.00  0.00    +0.000 A 
ATOM      6  C   UNL     1       5.476   6.368  17.397  0.00  0.00    +0.000 A 
ENDROOT
BRANCH   1  17
ATOM      7  C   UNL     1       1.072  11.599  20.775  0.00  0.00    +0.000 C 
ATOM      8  N   UNL     1       0.775  10.203  20.454  0.00  0.00    +0.000 NA
ATOM      9  C   UNL     1       0.914   9.355  21.659  0.00  0.00    +0.000 C 
ATOM     10  C   UNL     1       0.652   7.856  21.373  0.00  0.00    +0.000 C 
ATOM     11  N   UNL     1       1.530   7.399  20.298  0.00  0.00    +0.000 N 
ATOM     12  C   UNL     1       1.974   6.099  20.191  0.00  0.00    +0.000 A 
ATOM     13  C   UNL     1       1.379   5.044  20.846  0.00  0.00    +0.000 A 
ATOM     14  C   UNL     1       1.999   3.820  20.744  0.00  0.00    +0.000 A 
ATOM     15  N   UNL     1       3.149   3.612  20.082  0.00  0.00    +0.000 NA
ATOM     16  C   UNL     1       3.677   4.681  19.477  0.00  0.00    +0.000 A 
ATOM     17  N   UNL     1       4.897   4.489  18.825  0.00  0.00    +0.000 N 
ATOM     18  N   UNL     1       3.093   5.892  19.484  0.00  0.00    +0.000 NA
ATOM     19  C   UNL     1       1.477   8.207  19.070  0.00  0.00    +0.000 C 
ATOM     20  C   UNL     1       1.693   9.705  19.403  0.00  0.00    +0.000 C 
ATOM     21  H   UNL     1       5.207   3.535  18.918  0.00  0.00    +0.000 HD
ENDBRANCH   1  17
BRANCH   4  22
ATOM     22  O   UNL     1       8.426   8.518  17.192  0.00  0.00    +0.000 OA
BRANCH  22  23
ATOM     23  C   UNL     1       8.133   9.767  17.819  0.00  0.00    +0.000 C 
BRANCH  23  24
ATOM     24  C   UNL     1       9.389  10.458  18.312  0.00  0.00    +0.000 C 
BRANCH  24  25
ATOM     25  C   UNL     1       9.149  11.941  18.595  0.00  0.00    +0.000 C 
BRANCH  25  26
ATOM     26  N   UNL     1      10.400  12.724  18.575  0.00  0.00    +0.000 NA
ATOM     27  C   UNL     1      10.245  14.032  19.248  0.00  0.00    +0.000 C 
ATOM     28  C   UNL     1      11.551  14.827  19.364  0.00  0.00    +0.000 C 
ATOM     29  S   UNL     1      12.233  15.257  17.738  0.00  0.00    +0.000 S 
ATOM     30  C   UNL     1      12.208  13.579  17.038  0.00  0.00    +0.000 C 
ATOM     31  C   UNL     1      10.835  12.912  17.173  0.00  0.00    +0.000 C 
ENDBRANCH  25  26
ENDBRANCH  24  25
ENDBRANCH  23  24
ENDBRANCH  22  23
ENDBRANCH   4  22
TORSDOF 6
ENDMDL
MODEL 7
REMARK VINA RESULT:      -6.9      6.455      8.126
REMARK  Name = 
REMARK  7 active torsions:
REMARK  status: ('A' for Active; 'I' for Inactive)
REMARK    1  A    between atoms: C_1  and  N_2
REMARK    2  A    between atoms: N_11  and  C_12
REMARK    3  A    between atoms: C_15  and  O_16
REMARK    4  A    between atoms: O_16  and  C_17
REMARK    5  A    between atoms: C_17  and  C_18
REMARK    6  A    between atoms: C_18  and  C_19
REMARK    7  A    between atoms: C_19  and  N_20
REMARK                            x       y       z     vdW  Elec       q    Type
REMARK                         _______ _______ _______ _____ _____    ______ ____
ROOT
ATOM      1  C   UNL     1       9.627  12.457  18.990  0.00  0.00    +0.000 A 
ATOM      2  C   UNL     1       9.860  11.568  20.040  0.00  0.00    +0.000 A 
ATOM      3  C   UNL     1       9.525  10.224  19.950  0.00  0.00    +0.000 A 
ATOM      4  C   UNL     1       8.938   9.718  18.793  0.00  0.00    +0.000 A 
ATOM      5  C   UNL     1       8.688  10.585  17.730  0.00  0.00    +0.000 A 
ATOM      6  C   UNL     1       9.032  11.945  17.829  0.00  0.00    +0.000 A 
ENDROOT
BRANCH   1  17
ATOM      7  C   UNL     1       1.824  14.818  18.921  0.00  0.00    +0.000 C 
ATOM      8  N   UNL     1       3.044  15.491  19.364  0.00  0.00    +0.000 NA
ATOM      9  C   UNL     1       3.664  16.232  18.243  0.00  0.00    +0.000 C 
ATOM     10  C   UNL     1       4.985  16.933  18.642  0.00  0.00    +0.000 C 
ATOM     11  N   UNL     1       5.912  15.953  19.206  0.00  0.00    +0.000 N 
ATOM     12  C   UNL     1       7.280  16.077  19.120  0.00  0.00    +0.000 A 
ATOM     13  C   UNL     1       7.912  17.265  18.826  0.00  0.00    +0.000 A 
ATOM     14  C   UNL     1       9.277  17.217  18.655  0.00  0.00    +0.000 A 
ATOM     15  N   UNL     1      10.005  16.090  18.723  0.00  0.00    +0.000 NA
ATOM     16  C   UNL     1       9.327  14.972  19.003  0.00  0.00    +0.000 A 
ATOM     17  N   UNL     1      10.064  13.787  19.032  0.00  0.00    +0.000 N 
ATOM     18  N   UNL     1       8.005  14.956  19.244  0.00  0.00    +0.000 NA
ATOM     19  C   UNL     1       5.365  15.149  20.310  0.00  0.00    +0.000 C 
ATOM     20  C   UNL     1       4.019  14.506  19.891  0.00  0.00    +0.000 C 
ATOM     21  H   UNL     1      11.034  13.963  18.823  0.00  0.00    +0.000 HD
ENDBRANCH   1  17
BRANCH   4  22
ATOM     22  O   UNL     1       8.585   8.403  18.616  0.00  0.00    +0.000 OA
BRANCH  22  23
ATOM     23  C   UNL     1       7.691   8.190  17.522  0.00  0.00    +0.000 C 
BRANCH  23  24
ATOM     24  C   UNL     1       7.457   6.714  17.265  0.00  0.00    +0.000 C 
BRANCH  24  25
ATOM     25  C   UNL     1       7.209   5.942  18.562  0.00  0.00    +0.000 C 
BRANCH  25  26
ATOM     26  N   UNL     1       6.198   4.880  18.396  0.00  0.00    +0.000 NA
ATOM     27  C   UNL     1       5.708   4.795  17.004  0.00  0.00    +0.000 C 
ATOM     28  C   UNL     1       4.750   3.624  16.755  0.00  0.00    +0.000 C 
ATOM     29  S   UNL     1       3.232   3.765  17.738  0.00  0.00    +0.000 S 
ATOM     30  C   UNL     1       4.035   4.002  19.352  0.00  0.00    +0.000 C 
ATOM     31  C   UNL     1       5.074   5.128  19.326  0.00  0.00    +0.000 C 
ENDBRANCH  25  26
ENDBRANCH  24  25
ENDBRANCH  23  24
ENDBRANCH  22  23
ENDBRANCH   4  22
TORSDOF 6
ENDMDL
MODEL 8
REMARK VINA RESULT:      -6.9      4.652      7.399
REMARK  Name = 
REMARK  7 active torsions:
REMARK  status: ('A' for Active; 'I' for Inactive)
REMARK    1  A    between atoms: C_1  and  N_2
REMARK    2  A    between atoms: N_11  and  C_12
REMARK    3  A    between atoms: C_15  and  O_16
REMARK    4  A    between atoms: O_16  and  C_17
REMARK    5  A    between atoms: C_17  and  C_18
REMARK    6  A    between atoms: C_18  and  C_19
REMARK    7  A    between atoms: C_19  and  N_20
REMARK                            x       y       z     vdW  Elec       q    Type
REMARK                         _______ _______ _______ _____ _____    ______ ____
ROOT
ATOM      1  C   UNL     1       5.970   5.361  18.459  0.00  0.00    +0.000 A 
ATOM      2  C   UNL     1       7.165   5.615  19.135  0.00  0.00    +0.000 A 
ATOM      3  C   UNL     1       8.012   6.649  18.762  0.00  0.00    +0.000 A 
ATOM      4  C   UNL     1       7.690   7.474  17.687  0.00  0.00    +0.000 A 
ATOM      5  C   UNL     1       6.506   7.239  16.990  0.00  0.00    +0.000 A 
ATOM      6  C   UNL     1       5.652   6.190  17.376  0.00  0.00    +0.000 A 
ENDROOT
BRANCH   1  17
ATOM      7  C   UNL     1       1.001  11.391  20.784  0.00  0.00    +0.000 C 
ATOM      8  N   UNL     1       0.750   9.986  20.464  0.00  0.00    +0.000 NA
ATOM      9  C   UNL     1       0.899   9.145  21.672  0.00  0.00    +0.000 C 
ATOM     10  C   UNL     1       0.685   7.639  21.387  0.00  0.00    +0.000 C 
ATOM     11  N   UNL     1       1.589   7.205  20.324  0.00  0.00    +0.000 N 
ATOM     12  C   UNL     1       2.073   5.919  20.227  0.00  0.00    +0.000 A 
ATOM     13  C   UNL     1       1.502   4.848  20.877  0.00  0.00    +0.000 A 
ATOM     14  C   UNL     1       2.159   3.643  20.785  0.00  0.00    +0.000 A 
ATOM     15  N   UNL     1       3.323   3.468  20.138  0.00  0.00    +0.000 NA
ATOM     16  C   UNL     1       3.826   4.550  19.537  0.00  0.00    +0.000 A 
ATOM     17  N   UNL     1       5.059   4.394  18.900  0.00  0.00    +0.000 N 
ATOM     18  N   UNL     1       3.206   5.743  19.533  0.00  0.00    +0.000 NA
ATOM     19  C   UNL     1       1.527   8.008  19.093  0.00  0.00    +0.000 C 
ATOM     20  C   UNL     1       1.694   9.512  19.425  0.00  0.00    +0.000 C 
ATOM     21  H   UNL     1       5.396   3.449  18.999  0.00  0.00    +0.000 HD
ENDBRANCH   1  17
BRANCH   4  22
ATOM     22  O   UNL     1       8.464   8.523  17.258  0.00  0.00    +0.000 OA
BRANCH  22  23
ATOM     23  C   UNL     1       8.127   9.772  17.865  0.00  0.00    +0.000 C 
BRANCH  23  24
ATOM     24  C   UNL     1       9.359  10.523  18.330  0.00  0.00    +0.000 C 
BRANCH  24  25
ATOM     25  C   UNL     1       9.286  12.010  17.978  0.00  0.00    +0.000 C 
BRANCH  25  26
ATOM     26  N   UNL     1       9.091  12.858  19.170  0.00  0.00    +0.000 NA
ATOM     27  C   UNL     1       9.561  14.242  18.947  0.00  0.00    +0.000 C 
ATOM     28  C   UNL     1       9.264  15.192  20.114  0.00  0.00    +0.000 C 
ATOM     29  S   UNL     1      10.112  14.688  21.636  0.00  0.00    +0.000 S 
ATOM     30  C   UNL     1       9.533  12.965  21.651  0.00  0.00    +0.000 C 
ATOM     31  C   UNL     1       9.796  12.250  20.321  0.00  0.00    +0.000 C 
ENDBRANCH  25  26
ENDBRANCH  24  25
ENDBRANCH  23  24
ENDBRANCH  22  23
ENDBRANCH   4  22
TORSDOF 6
ENDMDL
MODEL 9
REMARK VINA RESULT:      -6.9      4.770      7.435
REMARK  Name = 
REMARK  7 active torsions:
REMARK  status: ('A' for Active; 'I' for Inactive)
REMARK    1  A    between atoms: C_1  and  N_2
REMARK    2  A    between atoms: N_11  and  C_12
REMARK    3  A    between atoms: C_15  and  O_16
REMARK    4  A    between atoms: O_16  and  C_17
REMARK    5  A    between atoms: C_17  and  C_18
REMARK    6  A    between atoms: C_18  and  C_19
REMARK    7  A    between atoms: C_19  and  N_20
REMARK                            x       y       z     vdW  Elec       q    Type
REMARK                         _______ _______ _______ _____ _____    ______ ____
ROOT
ATOM      1  C   UNL     1       6.042   5.407  18.545  0.00  0.00    +0.000 A 
ATOM      2  C   UNL     1       7.234   5.633  19.236  0.00  0.00    +0.000 A 
ATOM      3  C   UNL     1       8.090   6.673  18.900  0.00  0.00    +0.000 A 
ATOM      4  C   UNL     1       7.778   7.533  17.849  0.00  0.00    +0.000 A 
ATOM      5  C   UNL     1       6.598   7.327  17.138  0.00  0.00    +0.000 A 
ATOM      6  C   UNL     1       5.735   6.272  17.486  0.00  0.00    +0.000 A 
ENDROOT
BRANCH   1  17
ATOM      7  C   UNL     1       0.983  11.394  20.782  0.00  0.00    +0.000 C 
ATOM      8  N   UNL     1       0.746   9.992  20.442  0.00  0.00    +0.000 NA
ATOM      9  C   UNL     1       0.864   9.140  21.646  0.00  0.00    +0.000 C 
ATOM     10  C   UNL     1       0.665   7.635  21.340  0.00  0.00    +0.000 C 
ATOM     11  N   UNL     1       1.602   7.215  20.300  0.00  0.00    +0.000 N 
ATOM     12  C   UNL     1       2.093   5.933  20.204  0.00  0.00    +0.000 A 
ATOM     13  C   UNL     1       1.508   4.853  20.827  0.00  0.00    +0.000 A 
ATOM     14  C   UNL     1       2.173   3.651  20.743  0.00  0.00    +0.000 A 
ATOM     15  N   UNL     1       3.356   3.487  20.128  0.00  0.00    +0.000 NA
ATOM     16  C   UNL     1       3.872   4.578  19.552  0.00  0.00    +0.000 A 
ATOM     17  N   UNL     1       5.123   4.432  18.949  0.00  0.00    +0.000 N 
ATOM     18  N   UNL     1       3.247   5.768  19.542  0.00  0.00    +0.000 NA
ATOM     19  C   UNL     1       1.572   8.031  19.075  0.00  0.00    +0.000 C 
ATOM     20  C   UNL     1       1.723   9.532  19.426  0.00  0.00    +0.000 C 
ATOM     21  H   UNL     1       5.461   3.488  19.050  0.00  0.00    +0.000 HD
ENDBRANCH   1  17
BRANCH   4  22
ATOM     22  O   UNL     1       8.562   8.591  17.458  0.00  0.00    +0.000 OA
BRANCH  22  23
ATOM     23  C   UNL     1       8.171   9.839  18.032  0.00  0.00    +0.000 C 
BRANCH  23  24
ATOM     24  C   UNL     1       9.317  10.504  18.768  0.00  0.00    +0.000 C 
BRANCH  24  25
ATOM     25  C   UNL     1      10.169  11.366  17.836  0.00  0.00    +0.000 C 
BRANCH  25  26
ATOM     26  N   UNL     1      10.336  12.742  18.342  0.00  0.00    +0.000 NA
ATOM     27  C   UNL     1      11.289  12.804  19.471  0.00  0.00    +0.000 C 
ATOM     28  C   UNL     1      11.591  14.229  19.948  0.00  0.00    +0.000 C 
ATOM     29  S   UNL     1      10.111  15.063  20.586  0.00  0.00    +0.000 S 
ATOM     30  C   UNL     1       9.046  14.755  19.146  0.00  0.00    +0.000 C 
ATOM     31  C   UNL     1       9.017  13.275  18.748  0.00  0.00    +0.000 C 
ENDBRANCH  25  26
ENDBRANCH  24  25
ENDBRANCH  23  24
ENDBRANCH  22  23
ENDBRANCH   4  22
TORSDOF 6
ENDMDL
