MODEL 1
REMARK VINA RESULT:      -7.2      0.000      0.000
REMARK  Name = 
REMARK  9 active torsions:
REMARK  status: ('A' for Active; 'I' for Inactive)
REMARK    1  A    between atoms: C_1  and  O_2
REMARK    2  A    between atoms: O_2  and  C_3
REMARK    3  A    between atoms: C_6  and  C_7
REMARK    4  A    between atoms: C_7  and  N_8
REMARK    5  A    between atoms: N_11  and  C_12
REMARK    6  A    between atoms: C_12  and  C_13
REMARK    7  A    between atoms: C_13  and  C_14
REMARK    8  A    between atoms: C_16  and  C_17
REMARK    9  A    between atoms: C_18  and  C_19
REMARK                            x       y       z     vdW  Elec       q    Type
REMARK                         _______ _______ _______ _____ _____    ______ ____
ROOT
ATOM      1  N   UNL     1       8.187   8.832  17.735  0.00  0.00    +0.000 N 
ATOM      2  C   UNL     1       7.894   7.507  17.803  0.00  0.00    +0.000 C 
ATOM      3  O   UNL     1       8.120   6.806  18.792  0.00  0.00    +0.000 OA
ATOM      4  N   UNL     1       7.350   7.013  16.656  0.00  0.00    +0.000 N 
ATOM      5  H   UNL     1       8.034   9.306  16.857  0.00  0.00    +0.000 HD
ATOM      6  H   UNL     1       6.967   7.662  15.974  0.00  0.00    +0.000 HD
ENDROOT
BRANCH   1   7
ATOM      7  C   UNL     1       8.777   9.538  18.853  0.00  0.00    +0.000 C 
BRANCH   7  11
ATOM      8  C   UNL     1      10.495  13.318  17.843  0.00  0.00    +0.000 A 
ATOM      9  C   UNL     1      11.319  12.403  18.498  0.00  0.00    +0.000 A 
ATOM     10  C   UNL     1      10.781  11.148  18.825  0.00  0.00    +0.000 A 
ATOM     11  C   UNL     1       9.461  10.832  18.496  0.00  0.00    +0.000 A 
ATOM     12  C   UNL     1       8.736  11.833  17.857  0.00  0.00    +0.000 A 
ATOM     13  N   UNL     1       9.220  13.042  17.517  0.00  0.00    +0.000 NA
BRANCH   8  15
ATOM     14  C   UNL     1      12.298  14.791  18.068  0.00  0.00    +0.000 C 
ATOM     15  O   UNL     1      10.976  14.579  17.541  0.00  0.00    +0.000 OA
ENDBRANCH   8  15
ENDBRANCH   7  11
ENDBRANCH   1   7
BRANCH   4  16
ATOM     16  C   UNL     1       6.978   5.613  16.531  0.00  0.00    +0.000 C 
BRANCH  16  17
ATOM     17  C   UNL     1       5.608   5.390  15.879  0.00  0.00    +0.000 C 
BRANCH  17  18
ATOM     18  C   UNL     1       4.602   4.828  16.844  0.00  0.00    +0.000 A 
ATOM     19  N   UNL     1       4.348   3.544  16.999  0.00  0.00    +0.000 NA
ATOM     20  C   UNL     1       3.408   3.354  18.000  0.00  0.00    +0.000 A 
ATOM     21  C   UNL     1       3.006   1.961  18.337  0.00  0.00    +0.000 C 
ATOM     22  C   UNL     1       2.951   4.514  18.598  0.00  0.00    +0.000 A 
ATOM     23  C   UNL     1       1.974   4.691  19.709  0.00  0.00    +0.000 C 
ATOM     24  S   UNL     1       3.705   5.874  17.873  0.00  0.00    +0.000 S 
ENDBRANCH  17  18
ENDBRANCH  16  17
ENDBRANCH   4  16
TORSDOF 6
ENDMDL
MODEL 2
REMARK VINA RESULT:      -7.1      0.757      1.116
REMARK  Name = 
REMARK  9 active torsions:
REMARK  status: ('A' for Active; 'I' for Inactive)
REMARK    1  A    between atoms: C_1  and  O_2
REMARK    2  A    between atoms: O_2  and  C_3
REMARK    3  A    between atoms: C_6  and  C_7
REMARK    4  A    between atoms: C_7  and  N_8
REMARK    5  A    between atoms: N_11  and  C_12
REMARK    6  A    between atoms: C_12  and  C_13
REMARK    7  A    between atoms: C_13  and  C_14
REMARK    8  A    between atoms: C_16  and  C_17
REMARK    9  A    between atoms: C_18  and  C_19
REMARK                            x       y       z     vdW  Elec       q    Type
REMARK                         _______ _______ _______ _____ _____    ______ ____
ROOT
ATOM      1  N   UNL     1       8.138   8.807  17.833  0.00  0.00    +0.000 N 
ATOM      2  C   UNL     1       7.800   7.492  17.856  0.00  0.00    +0.000 C 
ATOM      3  O   UNL     1       8.094   6.725  18.776  0.00  0.00    +0.000 OA
ATOM      4  N   UNL     1       7.127   7.087  16.743  0.00  0.00    +0.000 N 
ATOM      5  H   UNL     1       7.919   9.339  17.004  0.00  0.00    +0.000 HD
ATOM      6  H   UNL     1       6.706   7.789  16.140  0.00  0.00    +0.000 HD
ENDROOT
BRANCH   1   7
ATOM      7  C   UNL     1       8.862   9.425  18.926  0.00  0.00    +0.000 C 
BRANCH   7  11
ATOM      8  C   UNL     1      10.349  13.374  18.251  0.00  0.00    +0.000 A 
ATOM      9  C   UNL     1       9.158  13.029  17.613  0.00  0.00    +0.000 A 
ATOM     10  C   UNL     1       8.641  11.742  17.833  0.00  0.00    +0.000 A 
ATOM     11  C   UNL     1       9.304  10.842  18.672  0.00  0.00    +0.000 A 
ATOM     12  C   UNL     1      10.490  11.299  19.239  0.00  0.00    +0.000 A 
ATOM     13  N   UNL     1      11.009  12.528  19.062  0.00  0.00    +0.000 NA
BRANCH   8  15
ATOM     14  C   UNL     1      12.333  14.614  18.246  0.00  0.00    +0.000 C 
ATOM     15  O   UNL     1      10.910  14.618  18.027  0.00  0.00    +0.000 OA
ENDBRANCH   8  15
ENDBRANCH   7  11
ENDBRANCH   1   7
BRANCH   4  16
ATOM     16  C   UNL     1       6.689   5.710  16.576  0.00  0.00    +0.000 C 
BRANCH  16  17
ATOM     17  C   UNL     1       5.249   5.574  16.066  0.00  0.00    +0.000 C 
BRANCH  17  18
ATOM     18  C   UNL     1       4.337   4.956  17.089  0.00  0.00    +0.000 A 
ATOM     19  N   UNL     1       3.696   3.815  16.930  0.00  0.00    +0.000 NA
ATOM     20  C   UNL     1       2.980   3.499  18.074  0.00  0.00    +0.000 A 
ATOM     21  C   UNL     1       2.205   2.229  18.093  0.00  0.00    +0.000 C 
ATOM     22  C   UNL     1       3.086   4.420  19.101  0.00  0.00    +0.000 A 
ATOM     23  C   UNL     1       2.485   4.397  20.464  0.00  0.00    +0.000 C 
ATOM     24  S   UNL     1       4.091   5.720  18.610  0.00  0.00    +0.000 S 
ENDBRANCH  17  18
ENDBRANCH  16  17
ENDBRANCH   4  16
TORSDOF 6
ENDMDL
MODEL 3
REMARK VINA RESULT:      -7.0      3.007      9.841
REMARK  Name = 
REMARK  9 active torsions:
REMARK  status: ('A' for Active; 'I' for Inactive)
REMARK    1  A    between atoms: C_1  and  O_2
REMARK    2  A    between atoms: O_2  and  C_3
REMARK    3  A    between atoms: C_6  and  C_7
REMARK    4  A    between atoms: C_7  and  N_8
REMARK    5  A    between atoms: N_11  and  C_12
REMARK    6  A    between atoms: C_12  and  C_13
REMARK    7  A    between atoms: C_13  and  C_14
REMARK    8  A    between atoms: C_16  and  C_17
REMARK    9  A    between atoms: C_18  and  C_19
REMARK                            x       y       z     vdW  Elec       q    Type
REMARK                         _______ _______ _______ _____ _____    ______ ____
ROOT
ATOM      1  N   UNL     1       7.651   5.762  18.263  0.00  0.00    +0.000 N 
ATOM      2  C   UNL     1       7.648   7.034  17.783  0.00  0.00    +0.000 C 
ATOM      3  O   UNL     1       7.099   7.367  16.731  0.00  0.00    +0.000 OA
ATOM      4  N   UNL     1       8.341   7.907  18.565  0.00  0.00    +0.000 N 
ATOM      5  H   UNL     1       8.190   5.570  19.095  0.00  0.00    +0.000 HD
ATOM      6  H   UNL     1       8.564   7.644  19.521  0.00  0.00    +0.000 HD
ENDROOT
BRANCH   1   7
ATOM      7  C   UNL     1       6.971   4.687  17.570  0.00  0.00    +0.000 C 
BRANCH   7  11
ATOM      8  C   UNL     1       2.899   4.275  18.798  0.00  0.00    +0.000 A 
ATOM      9  C   UNL     1       3.125   4.729  17.498  0.00  0.00    +0.000 A 
ATOM     10  C   UNL     1       4.455   4.856  17.067  0.00  0.00    +0.000 A 
ATOM     11  C   UNL     1       5.514   4.531  17.918  0.00  0.00    +0.000 A 
ATOM     12  C   UNL     1       5.160   4.103  19.194  0.00  0.00    +0.000 A 
ATOM     13  N   UNL     1       3.898   3.957  19.639  0.00  0.00    +0.000 NA
BRANCH   8  15
ATOM     14  C   UNL     1       1.249   2.817  19.587  0.00  0.00    +0.000 C 
ATOM     15  O   UNL     1       1.604   4.175  19.272  0.00  0.00    +0.000 OA
ENDBRANCH   8  15
ENDBRANCH   7  11
ENDBRANCH   1   7
BRANCH   4  16
ATOM     16  C   UNL     1       8.462   9.314  18.212  0.00  0.00    +0.000 C 
BRANCH  16  17
ATOM     17  C   UNL     1       9.207  10.154  19.256  0.00  0.00    +0.000 C 
BRANCH  17  18
ATOM     18  C   UNL     1       9.586  11.511  18.732  0.00  0.00    +0.000 A 
ATOM     19  N   UNL     1       8.899  12.616  18.948  0.00  0.00    +0.000 NA
ATOM     20  C   UNL     1       9.539  13.703  18.373  0.00  0.00    +0.000 A 
ATOM     21  C   UNL     1       8.923  15.049  18.529  0.00  0.00    +0.000 C 
ATOM     22  C   UNL     1      10.719  13.404  17.715  0.00  0.00    +0.000 A 
ATOM     23  C   UNL     1      11.672  14.308  17.014  0.00  0.00    +0.000 C 
ATOM     24  S   UNL     1      11.019  11.717  17.805  0.00  0.00    +0.000 S 
ENDBRANCH  17  18
ENDBRANCH  16  17
ENDBRANCH   4  16
TORSDOF 6
ENDMDL
MODEL 4
REMARK VINA RESULT:      -7.0      1.591      2.065
REMARK  Name = 
REMARK  9 active torsions:
REMARK  status: ('A' for Active; 'I' for Inactive)
REMARK    1  A    between atoms: C_1  and  O_2
REMARK    2  A    between atoms: O_2  and  C_3
REMARK    3  A    between atoms: C_6  and  C_7
REMARK    4  A    between atoms: C_7  and  N_8
REMARK    5  A    between atoms: N_11  and  C_12
REMARK    6  A    between atoms: C_12  and  C_13
REMARK    7  A    between atoms: C_13  and  C_14
REMARK    8  A    between atoms: C_16  and  C_17
REMARK    9  A    between atoms: C_18  and  C_19
REMARK                            x       y       z     vdW  Elec       q    Type
REMARK                         _______ _______ _______ _____ _____    ______ ____
ROOT
ATOM      1  N   UNL     1       8.109   8.906  17.721  0.00  0.00    +0.000 N 
ATOM      2  C   UNL     1       7.790   7.586  17.788  0.00  0.00    +0.000 C 
ATOM      3  O   UNL     1       8.130   6.846  18.713  0.00  0.00    +0.000 OA
ATOM      4  N   UNL     1       7.080   7.147  16.712  0.00  0.00    +0.000 N 
ATOM      5  H   UNL     1       7.850   9.415  16.889  0.00  0.00    +0.000 HD
ATOM      6  H   UNL     1       6.626   7.828  16.109  0.00  0.00    +0.000 HD
ENDROOT
BRANCH   1   7
ATOM      7  C   UNL     1       8.866   9.558  18.770  0.00  0.00    +0.000 C 
BRANCH   7  11
ATOM      8  C   UNL     1       9.941  13.588  17.843  0.00  0.00    +0.000 A 
ATOM      9  C   UNL     1      10.900  12.812  18.493  0.00  0.00    +0.000 A 
ATOM     10  C   UNL     1      10.575  11.479  18.793  0.00  0.00    +0.000 A 
ATOM     11  C   UNL     1       9.329  10.953  18.442  0.00  0.00    +0.000 A 
ATOM     12  C   UNL     1       8.454  11.831  17.810  0.00  0.00    +0.000 A 
ATOM     13  N   UNL     1       8.734  13.110  17.495  0.00  0.00    +0.000 NA
BRANCH   8  15
ATOM     14  C   UNL     1       9.169  15.787  18.047  0.00  0.00    +0.000 C 
ATOM     15  O   UNL     1      10.209  14.917  17.567  0.00  0.00    +0.000 OA
ENDBRANCH   8  15
ENDBRANCH   7  11
ENDBRANCH   1   7
BRANCH   4  16
ATOM     16  C   UNL     1       6.654   5.761  16.594  0.00  0.00    +0.000 C 
BRANCH  16  17
ATOM     17  C   UNL     1       5.190   5.595  16.170  0.00  0.00    +0.000 C 
BRANCH  17  18
ATOM     18  C   UNL     1       4.232   6.012  17.250  0.00  0.00    +0.000 A 
ATOM     19  N   UNL     1       3.630   7.183  17.307  0.00  0.00    +0.000 NA
ATOM     20  C   UNL     1       2.773   7.235  18.395  0.00  0.00    +0.000 A 
ATOM     21  C   UNL     1       1.984   8.477  18.614  0.00  0.00    +0.000 C 
ATOM     22  C   UNL     1       2.739   6.086  19.165  0.00  0.00    +0.000 A 
ATOM     23  C   UNL     1       1.929   5.776  20.376  0.00  0.00    +0.000 C 
ATOM     24  S   UNL     1       3.821   4.923  18.517  0.00  0.00    +0.000 S 
ENDBRANCH  17  18
ENDBRANCH  16  17
ENDBRANCH   4  16
TORSDOF 6
ENDMDL
MODEL 5
REMARK VINA RESULT:      -6.8      5.356      8.373
REMARK  Name = 
REMARK  9 active torsions:
REMARK  status: ('A' for Active; 'I' for Inactive)
REMARK    1  A    between atoms: C_1  and  O_2
REMARK    2  A    between atoms: O_2  and  C_3
REMARK    3  A    between atoms: C_6  and  C_7
REMARK    4  A    between atoms: C_7  and  N_8
REMARK    5  A    between atoms: N_11  and  C_12
REMARK    6  A    between atoms: C_12  and  C_13
REMARK    7  A    between atoms: C_13  and  C_14
REMARK    8  A    between atoms: C_16  and  C_17
REMARK    9  A    between atoms: C_18  and  C_19
REMARK                            x       y       z     vdW  Elec       q    Type
REMARK                         _______ _______ _______ _____ _____    ______ ____
ROOT
ATOM      1  N   UNL     1       2.064   7.250  20.634  0.00  0.00    +0.000 N 
ATOM      2  C   UNL     1       2.275   6.148  19.867  0.00  0.00    +0.000 C 
ATOM      3  O   UNL     1       2.064   6.109  18.653  0.00  0.00    +0.000 OA
ATOM      4  N   UNL     1       2.714   5.072  20.577  0.00  0.00    +0.000 N 
ATOM      5  H   UNL     1       2.194   7.166  21.632  0.00  0.00    +0.000 HD
ATOM      6  H   UNL     1       3.095   5.218  21.507  0.00  0.00    +0.000 HD
ENDROOT
BRANCH   1   7
ATOM      7  C   UNL     1       1.592   8.495  20.063  0.00  0.00    +0.000 C 
BRANCH   7  11
ATOM      8  C   UNL     1      -0.509  11.213  22.605  0.00  0.00    +0.000 A 
ATOM      9  C   UNL     1      -0.706   9.851  22.834  0.00  0.00    +0.000 A 
ATOM     10  C   UNL     1      -0.013   8.939  22.022  0.00  0.00    +0.000 A 
ATOM     11  C   UNL     1       0.850   9.390  21.020  0.00  0.00    +0.000 A 
ATOM     12  C   UNL     1       0.952  10.771  20.881  0.00  0.00    +0.000 A 
ATOM     13  N   UNL     1       0.314  11.675  21.647  0.00  0.00    +0.000 NA
BRANCH   8  15
ATOM     14  C   UNL     1      -2.624  11.911  23.319  0.00  0.00    +0.000 C 
ATOM     15  O   UNL     1      -1.204  12.141  23.357  0.00  0.00    +0.000 OA
ENDBRANCH   8  15
ENDBRANCH   7  11
ENDBRANCH   1   7
BRANCH   4  16
ATOM     16  C   UNL     1       2.985   3.795  19.934  0.00  0.00    +0.000 C 
BRANCH  16  17
ATOM     17  C   UNL     1       4.477   3.511  19.723  0.00  0.00    +0.000 C 
BRANCH  17  18
ATOM     18  C   UNL     1       5.052   4.298  18.578  0.00  0.00    +0.000 A 
ATOM     19  N   UNL     1       5.950   5.255  18.702  0.00  0.00    +0.000 NA
ATOM     20  C   UNL     1       6.309   5.746  17.457  0.00  0.00    +0.000 A 
ATOM     21  C   UNL     1       7.335   6.822  17.391  0.00  0.00    +0.000 C 
ATOM     22  C   UNL     1       5.666   5.149  16.387  0.00  0.00    +0.000 A 
ATOM     23  C   UNL     1       5.817   5.399  14.927  0.00  0.00    +0.000 C 
ATOM     24  S   UNL     1       4.572   3.959  16.962  0.00  0.00    +0.000 S 
ENDBRANCH  17  18
ENDBRANCH  16  17
ENDBRANCH   4  16
TORSDOF 6
ENDMDL
MODEL 6
REMARK VINA RESULT:      -6.8      6.445      9.098
REMARK  Name = 
REMARK  9 active torsions:
REMARK  status: ('A' for Active; 'I' for Inactive)
REMARK    1  A    between atoms: C_1  and  O_2
REMARK    2  A    between atoms: O_2  and  C_3
REMARK    3  A    between atoms: C_6  and  C_7
REMARK    4  A    between atoms: C_7  and  N_8
REMARK    5  A    between atoms: N_11  and  C_12
REMARK    6  A    between atoms: C_12  and  C_13
REMARK    7  A    between atoms: C_13  and  C_14
REMARK    8  A    between atoms: C_16  and  C_17
REMARK    9  A    between atoms: C_18  and  C_19
REMARK                            x       y       z     vdW  Elec       q    Type
REMARK                         _______ _______ _______ _____ _____    ______ ____
ROOT
ATOM      1  N   UNL     1       1.050   9.259  19.358  0.00  0.00    +0.000 N 
ATOM      2  C   UNL     1       1.984   9.056  18.392  0.00  0.00    +0.000 C 
ATOM      3  O   UNL     1       2.326   9.917  17.579  0.00  0.00    +0.000 OA
ATOM      4  N   UNL     1       2.489   7.791  18.385  0.00  0.00    +0.000 N 
ATOM      5  H   UNL     1       0.781   8.472  19.930  0.00  0.00    +0.000 HD
ATOM      6  H   UNL     1       2.359   7.204  19.205  0.00  0.00    +0.000 HD
ENDROOT
BRANCH   1   7
ATOM      7  C   UNL     1       0.394  10.539  19.523  0.00  0.00    +0.000 C 
BRANCH   7  11
ATOM      8  C   UNL     1      -3.388  11.130  17.622  0.00  0.00    +0.000 A 
ATOM      9  C   UNL     1      -2.519  10.214  17.031  0.00  0.00    +0.000 A 
ATOM     10  C   UNL     1      -1.277   9.990  17.647  0.00  0.00    +0.000 A 
ATOM     11  C   UNL     1      -0.932  10.666  18.820  0.00  0.00    +0.000 A 
ATOM     12  C   UNL     1      -1.878  11.565  19.305  0.00  0.00    +0.000 A 
ATOM     13  N   UNL     1      -3.082  11.796  18.749  0.00  0.00    +0.000 NA
BRANCH   8  15
ATOM     14  C   UNL     1      -5.712  11.107  17.890  0.00  0.00    +0.000 C 
ATOM     15  O   UNL     1      -4.603  11.406  17.023  0.00  0.00    +0.000 OA
ENDBRANCH   8  15
ENDBRANCH   7  11
ENDBRANCH   1   7
BRANCH   4  16
ATOM     16  C   UNL     1       3.493   7.377  17.417  0.00  0.00    +0.000 C 
BRANCH  16  17
ATOM     17  C   UNL     1       4.277   6.126  17.832  0.00  0.00    +0.000 C 
BRANCH  17  18
ATOM     18  C   UNL     1       3.404   5.102  18.503  0.00  0.00    +0.000 A 
ATOM     19  N   UNL     1       3.278   4.964  19.808  0.00  0.00    +0.000 NA
ATOM     20  C   UNL     1       2.362   3.967  20.103  0.00  0.00    +0.000 A 
ATOM     21  C   UNL     1       2.068   3.679  21.533  0.00  0.00    +0.000 C 
ATOM     22  C   UNL     1       1.799   3.348  19.001  0.00  0.00    +0.000 A 
ATOM     23  C   UNL     1       0.775   2.268  18.937  0.00  0.00    +0.000 C 
ATOM     24  S   UNL     1       2.450   4.022  17.565  0.00  0.00    +0.000 S 
ENDBRANCH  17  18
ENDBRANCH  16  17
ENDBRANCH   4  16
TORSDOF 6
ENDMDL
MODEL 7
REMARK VINA RESULT:      -6.8      1.338      1.651
REMARK  Name = 
REMARK  9 active torsions:
REMARK  status: ('A' for Active; 'I' for Inactive)
REMARK    1  A    between atoms: C_1  and  O_2
REMARK    2  A    between atoms: O_2  and  C_3
REMARK    3  A    between atoms: C_6  and  C_7
REMARK    4  A    between atoms: C_7  and  N_8
REMARK    5  A    between atoms: N_11  and  C_12
REMARK    6  A    between atoms: C_12  and  C_13
REMARK    7  A    between atoms: C_13  and  C_14
REMARK    8  A    between atoms: C_16  and  C_17
REMARK    9  A    between atoms: C_18  and  C_19
REMARK                            x       y       z     vdW  Elec       q    Type
REMARK                         _______ _______ _______ _____ _____    ______ ____
ROOT
ATOM      1  N   UNL     1       8.080   8.924  17.840  0.00  0.00    +0.000 N 
ATOM      2  C   UNL     1       7.567   7.667  17.895  0.00  0.00    +0.000 C 
ATOM      3  O   UNL     1       7.915   6.822  18.722  0.00  0.00    +0.000 OA
ATOM      4  N   UNL     1       6.647   7.416  16.923  0.00  0.00    +0.000 N 
ATOM      5  H   UNL     1       7.788   9.523  17.081  0.00  0.00    +0.000 HD
ATOM      6  H   UNL     1       6.225   8.198  16.430  0.00  0.00    +0.000 HD
ENDROOT
BRANCH   1   7
ATOM      7  C   UNL     1       9.077   9.380  18.787  0.00  0.00    +0.000 C 
BRANCH   7  11
ATOM      8  C   UNL     1      10.423  13.420  18.431  0.00  0.00    +0.000 A 
ATOM      9  C   UNL     1       9.251  13.082  17.755  0.00  0.00    +0.000 A 
ATOM     10  C   UNL     1       8.780  11.764  17.871  0.00  0.00    +0.000 A 
ATOM     11  C   UNL     1       9.468  10.828  18.646  0.00  0.00    +0.000 A 
ATOM     12  C   UNL     1      10.631  11.283  19.260  0.00  0.00    +0.000 A 
ATOM     13  N   UNL     1      11.107  12.540  19.182  0.00  0.00    +0.000 NA
BRANCH   8  15
ATOM     14  C   UNL     1      10.006  15.598  17.686  0.00  0.00    +0.000 C 
ATOM     15  O   UNL     1      10.940  14.697  18.309  0.00  0.00    +0.000 OA
ENDBRANCH   8  15
ENDBRANCH   7  11
ENDBRANCH   1   7
BRANCH   4  16
ATOM     16  C   UNL     1       5.992   6.121  16.810  0.00  0.00    +0.000 C 
BRANCH  16  17
ATOM     17  C   UNL     1       4.482   6.165  17.069  0.00  0.00    +0.000 C 
BRANCH  17  18
ATOM     18  C   UNL     1       3.995   4.952  17.811  0.00  0.00    +0.000 A 
ATOM     19  N   UNL     1       4.741   4.207  18.602  0.00  0.00    +0.000 NA
ATOM     20  C   UNL     1       3.983   3.197  19.173  0.00  0.00    +0.000 A 
ATOM     21  C   UNL     1       4.651   2.262  20.119  0.00  0.00    +0.000 C 
ATOM     22  C   UNL     1       2.651   3.185  18.799  0.00  0.00    +0.000 A 
ATOM     23  C   UNL     1       1.552   2.276  19.226  0.00  0.00    +0.000 C 
ATOM     24  S   UNL     1       2.351   4.460  17.691  0.00  0.00    +0.000 S 
ENDBRANCH  17  18
ENDBRANCH  16  17
ENDBRANCH   4  16
TORSDOF 6
ENDMDL
MODEL 8
REMARK VINA RESULT:      -6.8      5.289      7.188
REMARK  Name = 
REMARK  9 active torsions:
REMARK  status: ('A' for Active; 'I' for Inactive)
REMARK    1  A    between atoms: C_1  and  O_2
REMARK    2  A    between atoms: O_2  and  C_3
REMARK    3  A    between atoms: C_6  and  C_7
REMARK    4  A    between atoms: C_7  and  N_8
REMARK    5  A    between atoms: N_11  and  C_12
REMARK    6  A    between atoms: C_12  and  C_13
REMARK    7  A    between atoms: C_13  and  C_14
REMARK    8  A    between atoms: C_16  and  C_17
REMARK    9  A    between atoms: C_18  and  C_19
REMARK                            x       y       z     vdW  Elec       q    Type
REMARK                         _______ _______ _______ _____ _____    ______ ____
ROOT
ATOM      1  N   UNL     1       2.114   6.780  20.808  0.00  0.00    +0.000 N 
ATOM      2  C   UNL     1       1.938   5.443  20.641  0.00  0.00    +0.000 C 
ATOM      3  O   UNL     1       0.836   4.891  20.657  0.00  0.00    +0.000 OA
ATOM      4  N   UNL     1       3.105   4.759  20.486  0.00  0.00    +0.000 N 
ATOM      5  H   UNL     1       3.059   7.132  20.855  0.00  0.00    +0.000 HD
ATOM      6  H   UNL     1       3.948   5.273  20.242  0.00  0.00    +0.000 HD
ENDROOT
BRANCH   1   7
ATOM      7  C   UNL     1       0.992   7.677  20.994  0.00  0.00    +0.000 C 
BRANCH   7  11
ATOM      8  C   UNL     1       1.242  11.436  18.976  0.00  0.00    +0.000 A 
ATOM      9  C   UNL     1       1.606  10.302  18.249  0.00  0.00    +0.000 A 
ATOM     10  C   UNL     1       1.516   9.054  18.886  0.00  0.00    +0.000 A 
ATOM     11  C   UNL     1       1.069   8.959  20.206  0.00  0.00    +0.000 A 
ATOM     12  C   UNL     1       0.749  10.162  20.829  0.00  0.00    +0.000 A 
ATOM     13  N   UNL     1       0.810  11.375  20.248  0.00  0.00    +0.000 NA
BRANCH   8  15
ATOM     14  C   UNL     1       2.730  13.076  18.222  0.00  0.00    +0.000 C 
ATOM     15  O   UNL     1       1.355  12.686  18.396  0.00  0.00    +0.000 OA
ENDBRANCH   8  15
ENDBRANCH   7  11
ENDBRANCH   1   7
BRANCH   4  16
ATOM     16  C   UNL     1       3.124   3.316  20.305  0.00  0.00    +0.000 C 
BRANCH  16  17
ATOM     17  C   UNL     1       4.378   2.796  19.591  0.00  0.00    +0.000 C 
BRANCH  17  18
ATOM     18  C   UNL     1       4.949   3.804  18.633  0.00  0.00    +0.000 A 
ATOM     19  N   UNL     1       5.953   4.613  18.907  0.00  0.00    +0.000 NA
ATOM     20  C   UNL     1       6.271   5.382  17.798  0.00  0.00    +0.000 A 
ATOM     21  C   UNL     1       7.400   6.345  17.907  0.00  0.00    +0.000 C 
ATOM     22  C   UNL     1       5.488   5.147  16.682  0.00  0.00    +0.000 A 
ATOM     23  C   UNL     1       5.558   5.758  15.325  0.00  0.00    +0.000 C 
ATOM     24  S   UNL     1       4.317   3.946  17.041  0.00  0.00    +0.000 S 
ENDBRANCH  17  18
ENDBRANCH  16  17
ENDBRANCH   4  16
TORSDOF 6
ENDMDL
MODEL 9
REMARK VINA RESULT:      -6.7      6.072      7.783
REMARK  Name = 
REMARK  9 active torsions:
REMARK  status: ('A' for Active; 'I' for Inactive)
REMARK    1  A    between atoms: C_1  and  O_2
REMARK    2  A    between atoms: O_2  and  C_3
REMARK    3  A    between atoms: C_6  and  C_7
REMARK    4  A    between atoms: C_7  and  N_8
REMARK    5  A    between atoms: N_11  and  C_12
REMARK    6  A    between atoms: C_12  and  C_13
REMARK    7  A    between atoms: C_13  and  C_14
REMARK    8  A    between atoms: C_16  and  C_17
REMARK    9  A    between atoms: C_18  and  C_19
REMARK                            x       y       z     vdW  Elec       q    Type
REMARK                         _______ _______ _______ _____ _____    ______ ____
ROOT
ATOM      1  N   UNL     1       3.646   7.534  18.098  0.00  0.00    +0.000 N 
ATOM      2  C   UNL     1       4.031   6.239  17.953  0.00  0.00    +0.000 C 
ATOM      3  O   UNL     1       3.265   5.330  17.626  0.00  0.00    +0.000 OA
ATOM      4  N   UNL     1       5.347   6.032  18.236  0.00  0.00    +0.000 N 
ATOM      5  H   UNL     1       4.327   8.196  18.441  0.00  0.00    +0.000 HD
ATOM      6  H   UNL     1       5.977   6.829  18.263  0.00  0.00    +0.000 HD
ENDROOT
BRANCH   1   7
ATOM      7  C   UNL     1       2.282   7.954  17.847  0.00  0.00    +0.000 C 
BRANCH   7  11
ATOM      8  C   UNL     1       0.237  10.071  20.944  0.00  0.00    +0.000 A 
ATOM      9  C   UNL     1       0.884   8.890  21.307  0.00  0.00    +0.000 A 
ATOM     10  C   UNL     1       1.577   8.185  20.309  0.00  0.00    +0.000 A 
ATOM     11  C   UNL     1       1.617   8.664  18.997  0.00  0.00    +0.000 A 
ATOM     12  C   UNL     1       0.921   9.845  18.758  0.00  0.00    +0.000 A 
ATOM     13  N   UNL     1       0.257  10.554  19.690  0.00  0.00    +0.000 NA
BRANCH   8  15
ATOM     14  C   UNL     1      -0.622  10.035  23.120  0.00  0.00    +0.000 C 
ATOM     15  O   UNL     1      -0.489  10.771  21.890  0.00  0.00    +0.000 OA
ENDBRANCH   8  15
ENDBRANCH   7  11
ENDBRANCH   1   7
BRANCH   4  16
ATOM     16  C   UNL     1       5.945   4.708  18.149  0.00  0.00    +0.000 C 
BRANCH  16  17
ATOM     17  C   UNL     1       7.248   4.668  17.341  0.00  0.00    +0.000 C 
BRANCH  17  18
ATOM     18  C   UNL     1       6.999   4.584  15.861  0.00  0.00    +0.000 A 
ATOM     19  N   UNL     1       7.700   5.222  14.945  0.00  0.00    +0.000 NA
ATOM     20  C   UNL     1       7.251   4.894  13.676  0.00  0.00    +0.000 A 
ATOM     21  C   UNL     1       7.938   5.502  12.504  0.00  0.00    +0.000 C 
ATOM     22  C   UNL     1       6.196   4.000  13.643  0.00  0.00    +0.000 A 
ATOM     23  C   UNL     1       5.484   3.411  12.475  0.00  0.00    +0.000 C 
ATOM     24  S   UNL     1       5.747   3.579  15.245  0.00  0.00    +0.000 S 
ENDBRANCH  17  18
ENDBRANCH  16  17
ENDBRANCH   4  16
TORSDOF 6
ENDMDL
