MODEL 1
REMARK VINA RESULT:      -7.7      0.000      0.000
REMARK  Name = 
REMARK  9 active torsions:
REMARK  status: ('A' for Active; 'I' for Inactive)
REMARK    1  A    between atoms: N_11  and  C_12
REMARK    2  A    between atoms: C_12  and  C_13
REMARK    3  A    between atoms: C_13  and  C_14
REMARK    4  A    between atoms: C_14  and  C_15
REMARK    5  A    between atoms: C_15  and  C_16
REMARK    6  A    between atoms: C_16  and  C_17
REMARK    7  A    between atoms: C_17  and  N_18
REMARK    8  A    between atoms: N_18  and  C_19
REMARK    9  A    between atoms: C_19  and  C_20
REMARK                            x       y       z     vdW  Elec       q    Type
REMARK                         _______ _______ _______ _____ _____    ______ ____
ROOT
ATOM      1  C   UNL     1       1.390   3.222  18.373  0.00  0.00    +0.000 C 
ENDROOT
BRANCH   1   2
ATOM      2  C   UNL     1       2.301   2.917  17.186  0.00  0.00    +0.000 C 
BRANCH   2   3
ATOM      3  C   UNL     1       3.671   2.414  17.635  0.00  0.00    +0.000 C 
BRANCH   3  14
ATOM      4  O   UNL     1       5.259   3.288  19.979  0.00  0.00    +0.000 OA
ATOM      5  C   UNL     1       5.314   3.809  18.882  0.00  0.00    +0.000 C 
ATOM      6  C   UNL     1       6.202   4.920  18.542  0.00  0.00    +0.000 A 
ATOM      7  C   UNL     1       7.108   5.613  19.321  0.00  0.00    +0.000 A 
ATOM      8  C   UNL     1       7.830   6.639  18.699  0.00  0.00    +0.000 A 
ATOM      9  C   UNL     1       7.632   6.939  17.335  0.00  0.00    +0.000 A 
ATOM     10  C   UNL     1       6.712   6.218  16.568  0.00  0.00    +0.000 A 
ATOM     11  C   UNL     1       6.011   5.213  17.204  0.00  0.00    +0.000 A 
ATOM     12  C   UNL     1       5.005   4.288  16.688  0.00  0.00    +0.000 C 
ATOM     13  O   UNL     1       4.637   4.254  15.530  0.00  0.00    +0.000 OA
ATOM     14  N   UNL     1       4.618   3.506  17.743  0.00  0.00    +0.000 N 
ENDBRANCH   3  14
ENDBRANCH   2   3
ENDBRANCH   1   2
BRANCH   1  15
ATOM     15  C   UNL     1       1.744   2.327  19.560  0.00  0.00    +0.000 C 
BRANCH  15  16
ATOM     16  C   UNL     1       1.442   3.009  20.891  0.00  0.00    +0.000 C 
BRANCH  16  17
ATOM     17  C   UNL     1       1.165   4.499  20.688  0.00  0.00    +0.000 C 
BRANCH  17  18
ATOM     18  N   UNL     1       2.342   5.255  21.106  0.00  0.00    +0.000 NA
ATOM     19  H   UNL     1       3.007   4.624  21.554  0.00  0.00    +0.000 HD
BRANCH  18  20
ATOM     20  C   UNL     1       3.002   5.892  19.965  0.00  0.00    +0.000 C 
BRANCH  20  21
ATOM     21  C   UNL     1       2.348   7.202  19.599  0.00  0.00    +0.000 A 
ATOM     22  C   UNL     1       1.563   7.927  20.511  0.00  0.00    +0.000 A 
ATOM     23  C   UNL     1       0.966   9.132  20.138  0.00  0.00    +0.000 A 
ATOM     24  C   UNL     1       1.123   9.619  18.841  0.00  0.00    +0.000 A 
ATOM     25  C   UNL     1       1.873   8.895  17.916  0.00  0.00    +0.000 A 
ATOM     26  C   UNL     1       2.471   7.697  18.297  0.00  0.00    +0.000 A 
ATOM     27  F   UNL     1       3.180   7.014  17.387  0.00  0.00    +0.000 F 
ENDBRANCH  20  21
ENDBRANCH  18  20
ENDBRANCH  17  18
ENDBRANCH  16  17
ENDBRANCH  15  16
ENDBRANCH   1  15
TORSDOF 9
ENDMDL
MODEL 2
REMARK VINA RESULT:      -7.1      2.452      4.227
REMARK  Name = 
REMARK  9 active torsions:
REMARK  status: ('A' for Active; 'I' for Inactive)
REMARK    1  A    between atoms: N_11  and  C_12
REMARK    2  A    between atoms: C_12  and  C_13
REMARK    3  A    between atoms: C_13  and  C_14
REMARK    4  A    between atoms: C_14  and  C_15
REMARK    5  A    between atoms: C_15  and  C_16
REMARK    6  A    between atoms: C_16  and  C_17
REMARK    7  A    between atoms: C_17  and  N_18
REMARK    8  A    between atoms: N_18  and  C_19
REMARK    9  A    between atoms: C_19  and  C_20
REMARK                            x       y       z     vdW  Elec       q    Type
REMARK                         _______ _______ _______ _____ _____    ______ ____
ROOT
ATOM      1  C   UNL     1       2.670   6.719  19.611  0.00  0.00    +0.000 C 
ENDROOT
BRANCH   1   2
ATOM      2  C   UNL     1       2.064   5.318  19.542  0.00  0.00    +0.000 C 
BRANCH   2   3
ATOM      3  C   UNL     1       3.126   4.232  19.701  0.00  0.00    +0.000 C 
BRANCH   3  14
ATOM      4  O   UNL     1       2.613   3.569  16.859  0.00  0.00    +0.000 OA
ATOM      5  C   UNL     1       3.691   3.924  17.295  0.00  0.00    +0.000 C 
ATOM      6  C   UNL     1       4.886   4.119  16.477  0.00  0.00    +0.000 A 
ATOM      7  C   UNL     1       5.083   3.941  15.121  0.00  0.00    +0.000 A 
ATOM      8  C   UNL     1       6.360   4.221  14.619  0.00  0.00    +0.000 A 
ATOM      9  C   UNL     1       7.391   4.668  15.472  0.00  0.00    +0.000 A 
ATOM     10  C   UNL     1       7.163   4.845  16.840  0.00  0.00    +0.000 A 
ATOM     11  C   UNL     1       5.897   4.560  17.312  0.00  0.00    +0.000 A 
ATOM     12  C   UNL     1       5.347   4.652  18.662  0.00  0.00    +0.000 C 
ATOM     13  O   UNL     1       5.969   5.048  19.628  0.00  0.00    +0.000 OA
ATOM     14  N   UNL     1       4.046   4.234  18.580  0.00  0.00    +0.000 N 
ENDBRANCH   3  14
ENDBRANCH   2   3
ENDBRANCH   1   2
BRANCH   1  15
ATOM     15  C   UNL     1       2.724   7.345  18.218  0.00  0.00    +0.000 C 
BRANCH  15  16
ATOM     16  C   UNL     1       1.586   8.337  18.001  0.00  0.00    +0.000 C 
BRANCH  16  17
ATOM     17  C   UNL     1       2.097   9.776  18.075  0.00  0.00    +0.000 C 
BRANCH  17  18
ATOM     18  N   UNL     1       0.971  10.659  18.361  0.00  0.00    +0.000 NA
ATOM     19  H   UNL     1       0.674  11.119  17.500  0.00  0.00    +0.000 HD
BRANCH  18  20
ATOM     20  C   UNL     1      -0.168   9.916  18.906  0.00  0.00    +0.000 C 
BRANCH  20  21
ATOM     21  C   UNL     1      -0.466  10.314  20.331  0.00  0.00    +0.000 A 
ATOM     22  C   UNL     1      -0.938  11.593  20.668  0.00  0.00    +0.000 A 
ATOM     23  C   UNL     1      -1.197  11.931  21.997  0.00  0.00    +0.000 A 
ATOM     24  C   UNL     1      -0.964  11.004  23.012  0.00  0.00    +0.000 A 
ATOM     25  C   UNL     1      -0.465   9.742  22.697  0.00  0.00    +0.000 A 
ATOM     26  C   UNL     1      -0.216   9.410  21.367  0.00  0.00    +0.000 A 
ATOM     27  F   UNL     1       0.273   8.193  21.090  0.00  0.00    +0.000 F 
ENDBRANCH  20  21
ENDBRANCH  18  20
ENDBRANCH  17  18
ENDBRANCH  16  17
ENDBRANCH  15  16
ENDBRANCH   1  15
TORSDOF 9
ENDMDL
MODEL 3
REMARK VINA RESULT:      -7.0      2.308      4.938
REMARK  Name = 
REMARK  9 active torsions:
REMARK  status: ('A' for Active; 'I' for Inactive)
REMARK    1  A    between atoms: N_11  and  C_12
REMARK    2  A    between atoms: C_12  and  C_13
REMARK    3  A    between atoms: C_13  and  C_14
REMARK    4  A    between atoms: C_14  and  C_15
REMARK    5  A    between atoms: C_15  and  C_16
REMARK    6  A    between atoms: C_16  and  C_17
REMARK    7  A    between atoms: C_17  and  N_18
REMARK    8  A    between atoms: N_18  and  C_19
REMARK    9  A    between atoms: C_19  and  C_20
REMARK                            x       y       z     vdW  Elec       q    Type
REMARK                         _______ _______ _______ _____ _____    ______ ____
ROOT
ATOM      1  C   UNL     1       4.523   6.435  16.446  0.00  0.00    +0.000 C 
ENDROOT
BRANCH   1   2
ATOM      2  C   UNL     1       5.598   5.364  16.612  0.00  0.00    +0.000 C 
BRANCH   2   3
ATOM      3  C   UNL     1       5.008   3.955  16.574  0.00  0.00    +0.000 C 
BRANCH   3  14
ATOM      4  O   UNL     1       2.089   3.444  16.527  0.00  0.00    +0.000 OA
ATOM      5  C   UNL     1       2.760   3.493  17.540  0.00  0.00    +0.000 C 
ATOM      6  C   UNL     1       2.235   3.267  18.885  0.00  0.00    +0.000 A 
ATOM      7  C   UNL     1       0.951   2.987  19.311  0.00  0.00    +0.000 A 
ATOM      8  C   UNL     1       0.759   2.811  20.687  0.00  0.00    +0.000 A 
ATOM      9  C   UNL     1       1.840   2.916  21.588  0.00  0.00    +0.000 A 
ATOM     10  C   UNL     1       3.131   3.196  21.130  0.00  0.00    +0.000 A 
ATOM     11  C   UNL     1       3.294   3.367  19.770  0.00  0.00    +0.000 A 
ATOM     12  C   UNL     1       4.496   3.653  18.989  0.00  0.00    +0.000 C 
ATOM     13  O   UNL     1       5.610   3.761  19.464  0.00  0.00    +0.000 OA
ATOM     14  N   UNL     1       4.098   3.741  17.682  0.00  0.00    +0.000 N 
ENDBRANCH   3  14
ENDBRANCH   2   3
ENDBRANCH   1   2
BRANCH   1  15
ATOM     15  C   UNL     1       4.344   7.218  17.746  0.00  0.00    +0.000 C 
BRANCH  15  16
ATOM     16  C   UNL     1       2.909   7.143  18.257  0.00  0.00    +0.000 C 
BRANCH  16  17
ATOM     17  C   UNL     1       2.061   8.269  17.664  0.00  0.00    +0.000 C 
BRANCH  17  18
ATOM     18  N   UNL     1       1.993   9.362  18.629  0.00  0.00    +0.000 NA
ATOM     19  H   UNL     1       2.564  10.140  18.299  0.00  0.00    +0.000 HD
BRANCH  18  20
ATOM     20  C   UNL     1       0.618   9.837  18.804  0.00  0.00    +0.000 C 
BRANCH  20  21
ATOM     21  C   UNL     1       0.249   9.957  20.263  0.00  0.00    +0.000 A 
ATOM     22  C   UNL     1       0.674   9.023  21.221  0.00  0.00    +0.000 A 
ATOM     23  C   UNL     1       0.308   9.159  22.562  0.00  0.00    +0.000 A 
ATOM     24  C   UNL     1      -0.509  10.218  22.959  0.00  0.00    +0.000 A 
ATOM     25  C   UNL     1      -0.964  11.134  22.014  0.00  0.00    +0.000 A 
ATOM     26  C   UNL     1      -0.589  10.995  20.680  0.00  0.00    +0.000 A 
ATOM     27  F   UNL     1      -1.048  11.885  19.788  0.00  0.00    +0.000 F 
ENDBRANCH  20  21
ENDBRANCH  18  20
ENDBRANCH  17  18
ENDBRANCH  16  17
ENDBRANCH  15  16
ENDBRANCH   1  15
TORSDOF 9
ENDMDL
MODEL 4
REMARK VINA RESULT:      -7.0      3.893      6.869
REMARK  Name = 
REMARK  9 active torsions:
REMARK  status: ('A' for Active; 'I' for Inactive)
REMARK    1  A    between atoms: N_11  and  C_12
REMARK    2  A    between atoms: C_12  and  C_13
REMARK    3  A    between atoms: C_13  and  C_14
REMARK    4  A    between atoms: C_14  and  C_15
REMARK    5  A    between atoms: C_15  and  C_16
REMARK    6  A    between atoms: C_16  and  C_17
REMARK    7  A    between atoms: C_17  and  N_18
REMARK    8  A    between atoms: N_18  and  C_19
REMARK    9  A    between atoms: C_19  and  C_20
REMARK                            x       y       z     vdW  Elec       q    Type
REMARK                         _______ _______ _______ _____ _____    ______ ____
ROOT
ATOM      1  C   UNL     1       6.961   5.720  16.239  0.00  0.00    +0.000 C 
ENDROOT
BRANCH   1   2
ATOM      2  C   UNL     1       6.344   4.385  16.653  0.00  0.00    +0.000 C 
BRANCH   2   3
ATOM      3  C   UNL     1       4.892   4.264  16.194  0.00  0.00    +0.000 C 
BRANCH   3  14
ATOM      4  O   UNL     1       3.388   6.286  17.753  0.00  0.00    +0.000 OA
ATOM      5  C   UNL     1       3.342   5.089  17.960  0.00  0.00    +0.000 C 
ATOM      6  C   UNL     1       2.505   4.462  18.982  0.00  0.00    +0.000 A 
ATOM      7  C   UNL     1       1.648   5.024  19.907  0.00  0.00    +0.000 A 
ATOM      8  C   UNL     1       0.968   4.150  20.763  0.00  0.00    +0.000 A 
ATOM      9  C   UNL     1       1.159   2.754  20.672  0.00  0.00    +0.000 A 
ATOM     10  C   UNL     1       2.030   2.210  19.723  0.00  0.00    +0.000 A 
ATOM     11  C   UNL     1       2.690   3.094  18.892  0.00  0.00    +0.000 A 
ATOM     12  C   UNL     1       3.639   2.846  17.810  0.00  0.00    +0.000 C 
ATOM     13  O   UNL     1       3.987   1.740  17.445  0.00  0.00    +0.000 OA
ATOM     14  N   UNL     1       4.003   4.073  17.324  0.00  0.00    +0.000 N 
ENDBRANCH   3  14
ENDBRANCH   2   3
ENDBRANCH   1   2
BRANCH   1  15
ATOM     15  C   UNL     1       6.547   6.823  17.212  0.00  0.00    +0.000 C 
BRANCH  15  16
ATOM     16  C   UNL     1       7.633   7.885  17.355  0.00  0.00    +0.000 C 
BRANCH  16  17
ATOM     17  C   UNL     1       8.421   7.687  18.650  0.00  0.00    +0.000 C 
BRANCH  17  18
ATOM     18  N   UNL     1       8.875   8.989  19.127  0.00  0.00    +0.000 NA
ATOM     19  H   UNL     1       9.881   8.959  19.288  0.00  0.00    +0.000 HD
BRANCH  18  20
ATOM     20  C   UNL     1       8.592  10.045  18.152  0.00  0.00    +0.000 C 
BRANCH  20  21
ATOM     21  C   UNL     1       9.318  11.326  18.486  0.00  0.00    +0.000 A 
ATOM     22  C   UNL     1      10.335  11.378  19.454  0.00  0.00    +0.000 A 
ATOM     23  C   UNL     1      10.980  12.581  19.745  0.00  0.00    +0.000 A 
ATOM     24  C   UNL     1      10.603  13.754  19.092  0.00  0.00    +0.000 A 
ATOM     25  C   UNL     1       9.574  13.723  18.153  0.00  0.00    +0.000 A 
ATOM     26  C   UNL     1       8.939  12.518  17.863  0.00  0.00    +0.000 A 
ATOM     27  F   UNL     1       7.945  12.516  16.963  0.00  0.00    +0.000 F 
ENDBRANCH  20  21
ENDBRANCH  18  20
ENDBRANCH  17  18
ENDBRANCH  16  17
ENDBRANCH  15  16
ENDBRANCH   1  15
TORSDOF 9
ENDMDL
MODEL 5
REMARK VINA RESULT:      -7.0      2.618      6.550
REMARK  Name = 
REMARK  9 active torsions:
REMARK  status: ('A' for Active; 'I' for Inactive)
REMARK    1  A    between atoms: N_11  and  C_12
REMARK    2  A    between atoms: C_12  and  C_13
REMARK    3  A    between atoms: C_13  and  C_14
REMARK    4  A    between atoms: C_14  and  C_15
REMARK    5  A    between atoms: C_15  and  C_16
REMARK    6  A    between atoms: C_16  and  C_17
REMARK    7  A    between atoms: C_17  and  N_18
REMARK    8  A    between atoms: N_18  and  C_19
REMARK    9  A    between atoms: C_19  and  C_20
REMARK                            x       y       z     vdW  Elec       q    Type
REMARK                         _______ _______ _______ _____ _____    ______ ____
ROOT
ATOM      1  C   UNL     1       4.138   6.685  17.010  0.00  0.00    +0.000 C 
ENDROOT
BRANCH   1   2
ATOM      2  C   UNL     1       3.337   7.169  18.217  0.00  0.00    +0.000 C 
BRANCH   2   3
ATOM      3  C   UNL     1       2.358   8.280  17.842  0.00  0.00    +0.000 C 
BRANCH   3  14
ATOM      4  O   UNL     1       1.870   6.941  20.440  0.00  0.00    +0.000 OA
ATOM      5  C   UNL     1       1.510   8.071  20.174  0.00  0.00    +0.000 C 
ATOM      6  C   UNL     1       0.819   8.956  21.110  0.00  0.00    +0.000 A 
ATOM      7  C   UNL     1       0.414   8.742  22.413  0.00  0.00    +0.000 A 
ATOM      8  C   UNL     1      -0.229   9.802  23.064  0.00  0.00    +0.000 A 
ATOM      9  C   UNL     1      -0.445  11.031  22.406  0.00  0.00    +0.000 A 
ATOM     10  C   UNL     1      -0.020  11.223  21.088  0.00  0.00    +0.000 A 
ATOM     11  C   UNL     1       0.609  10.163  20.466  0.00  0.00    +0.000 A 
ATOM     12  C   UNL     1       1.170  10.051  19.122  0.00  0.00    +0.000 C 
ATOM     13  O   UNL     1       1.185  10.955  18.310  0.00  0.00    +0.000 OA
ATOM     14  N   UNL     1       1.660   8.778  19.011  0.00  0.00    +0.000 N 
ENDBRANCH   3  14
ENDBRANCH   2   3
ENDBRANCH   1   2
BRANCH   1  15
ATOM     15  C   UNL     1       5.628   6.949  17.218  0.00  0.00    +0.000 C 
BRANCH  15  16
ATOM     16  C   UNL     1       6.225   6.018  18.269  0.00  0.00    +0.000 C 
BRANCH  16  17
ATOM     17  C   UNL     1       6.297   4.583  17.747  0.00  0.00    +0.000 C 
BRANCH  17  18
ATOM     18  N   UNL     1       5.563   3.714  18.661  0.00  0.00    +0.000 NA
ATOM     19  H   UNL     1       5.425   4.197  19.549  0.00  0.00    +0.000 HD
BRANCH  18  20
ATOM     20  C   UNL     1       4.251   3.352  18.120  0.00  0.00    +0.000 C 
BRANCH  20  21
ATOM     21  C   UNL     1       3.206   3.252  19.204  0.00  0.00    +0.000 A 
ATOM     22  C   UNL     1       3.471   2.648  20.445  0.00  0.00    +0.000 A 
ATOM     23  C   UNL     1       2.479   2.565  21.424  0.00  0.00    +0.000 A 
ATOM     24  C   UNL     1       1.201   3.060  21.168  0.00  0.00    +0.000 A 
ATOM     25  C   UNL     1       0.915   3.633  19.931  0.00  0.00    +0.000 A 
ATOM     26  C   UNL     1       1.911   3.719  18.962  0.00  0.00    +0.000 A 
ATOM     27  F   UNL     1       1.609   4.265  17.775  0.00  0.00    +0.000 F 
ENDBRANCH  20  21
ENDBRANCH  18  20
ENDBRANCH  17  18
ENDBRANCH  16  17
ENDBRANCH  15  16
ENDBRANCH   1  15
TORSDOF 9
ENDMDL
MODEL 6
REMARK VINA RESULT:      -7.0      1.688      4.627
REMARK  Name = 
REMARK  9 active torsions:
REMARK  status: ('A' for Active; 'I' for Inactive)
REMARK    1  A    between atoms: N_11  and  C_12
REMARK    2  A    between atoms: C_12  and  C_13
REMARK    3  A    between atoms: C_13  and  C_14
REMARK    4  A    between atoms: C_14  and  C_15
REMARK    5  A    between atoms: C_15  and  C_16
REMARK    6  A    between atoms: C_16  and  C_17
REMARK    7  A    between atoms: C_17  and  N_18
REMARK    8  A    between atoms: N_18  and  C_19
REMARK    9  A    between atoms: C_19  and  C_20
REMARK                            x       y       z     vdW  Elec       q    Type
REMARK                         _______ _______ _______ _____ _____    ______ ____
ROOT
ATOM      1  C   UNL     1       6.421   5.029  15.271  0.00  0.00    +0.000 C 
ENDROOT
BRANCH   1   2
ATOM      2  C   UNL     1       5.074   4.370  15.561  0.00  0.00    +0.000 C 
BRANCH   2   3
ATOM      3  C   UNL     1       5.209   3.206  16.541  0.00  0.00    +0.000 C 
BRANCH   3  14
ATOM      4  O   UNL     1       2.265   2.910  16.386  0.00  0.00    +0.000 OA
ATOM      5  C   UNL     1       2.878   3.125  17.414  0.00  0.00    +0.000 C 
ATOM      6  C   UNL     1       2.261   3.227  18.734  0.00  0.00    +0.000 A 
ATOM      7  C   UNL     1       0.935   3.138  19.114  0.00  0.00    +0.000 A 
ATOM      8  C   UNL     1       0.651   3.273  20.478  0.00  0.00    +0.000 A 
ATOM      9  C   UNL     1       1.684   3.488  21.415  0.00  0.00    +0.000 A 
ATOM     10  C   UNL     1       3.018   3.569  21.005  0.00  0.00    +0.000 A 
ATOM     11  C   UNL     1       3.273   3.436  19.654  0.00  0.00    +0.000 A 
ATOM     12  C   UNL     1       4.537   3.461  18.923  0.00  0.00    +0.000 C 
ATOM     13  O   UNL     1       5.627   3.586  19.445  0.00  0.00    +0.000 OA
ATOM     14  N   UNL     1       4.223   3.298  17.600  0.00  0.00    +0.000 N 
ENDBRANCH   3  14
ENDBRANCH   2   3
ENDBRANCH   1   2
BRANCH   1  15
ATOM     15  C   UNL     1       7.079   5.492  16.570  0.00  0.00    +0.000 C 
BRANCH  15  16
ATOM     16  C   UNL     1       6.593   6.877  16.986  0.00  0.00    +0.000 C 
BRANCH  16  17
ATOM     17  C   UNL     1       5.475   6.773  18.023  0.00  0.00    +0.000 C 
BRANCH  17  18
ATOM     18  N   UNL     1       4.218   7.171  17.397  0.00  0.00    +0.000 NA
ATOM     19  H   UNL     1       4.145   6.736  16.477  0.00  0.00    +0.000 HD
BRANCH  18  20
ATOM     20  C   UNL     1       3.065   6.755  18.199  0.00  0.00    +0.000 C 
BRANCH  20  21
ATOM     21  C   UNL     1       2.266   7.939  18.688  0.00  0.00    +0.000 A 
ATOM     22  C   UNL     1       2.139   9.118  17.935  0.00  0.00    +0.000 A 
ATOM     23  C   UNL     1       1.399  10.198  18.420  0.00  0.00    +0.000 A 
ATOM     24  C   UNL     1       0.795  10.125  19.674  0.00  0.00    +0.000 A 
ATOM     25  C   UNL     1       0.939   8.974  20.446  0.00  0.00    +0.000 A 
ATOM     26  C   UNL     1       1.673   7.898  19.953  0.00  0.00    +0.000 A 
ATOM     27  F   UNL     1       1.805   6.805  20.718  0.00  0.00    +0.000 F 
ENDBRANCH  20  21
ENDBRANCH  18  20
ENDBRANCH  17  18
ENDBRANCH  16  17
ENDBRANCH  15  16
ENDBRANCH   1  15
TORSDOF 9
ENDMDL
MODEL 7
REMARK VINA RESULT:      -6.9      1.483      2.229
REMARK  Name = 
REMARK  9 active torsions:
REMARK  status: ('A' for Active; 'I' for Inactive)
REMARK    1  A    between atoms: N_11  and  C_12
REMARK    2  A    between atoms: C_12  and  C_13
REMARK    3  A    between atoms: C_13  and  C_14
REMARK    4  A    between atoms: C_14  and  C_15
REMARK    5  A    between atoms: C_15  and  C_16
REMARK    6  A    between atoms: C_16  and  C_17
REMARK    7  A    between atoms: C_17  and  N_18
REMARK    8  A    between atoms: N_18  and  C_19
REMARK    9  A    between atoms: C_19  and  C_20
REMARK                            x       y       z     vdW  Elec       q    Type
REMARK                         _______ _______ _______ _____ _____    ______ ____
ROOT
ATOM      1  C   UNL     1       0.611   2.912  19.737  0.00  0.00    +0.000 C 
ENDROOT
BRANCH   1   2
ATOM      2  C   UNL     1       1.891   2.147  20.067  0.00  0.00    +0.000 C 
BRANCH   2   3
ATOM      3  C   UNL     1       2.669   1.770  18.808  0.00  0.00    +0.000 C 
BRANCH   3  14
ATOM      4  O   UNL     1       5.228   2.656  20.011  0.00  0.00    +0.000 OA
ATOM      5  C   UNL     1       4.726   3.157  19.024  0.00  0.00    +0.000 C 
ATOM      6  C   UNL     1       5.330   4.245  18.256  0.00  0.00    +0.000 A 
ATOM      7  C   UNL     1       6.509   4.935  18.455  0.00  0.00    +0.000 A 
ATOM      8  C   UNL     1       6.827   5.937  17.530  0.00  0.00    +0.000 A 
ATOM      9  C   UNL     1       5.971   6.217  16.444  0.00  0.00    +0.000 A 
ATOM     10  C   UNL     1       4.784   5.500  16.263  0.00  0.00    +0.000 A 
ATOM     11  C   UNL     1       4.492   4.519  17.190  0.00  0.00    +0.000 A 
ATOM     12  C   UNL     1       3.357   3.603  17.273  0.00  0.00    +0.000 C 
ATOM     13  O   UNL     1       2.455   3.556  16.459  0.00  0.00    +0.000 OA
ATOM     14  N   UNL     1       3.549   2.847  18.398  0.00  0.00    +0.000 N 
ENDBRANCH   3  14
ENDBRANCH   2   3
ENDBRANCH   1   2
BRANCH   1  15
ATOM     15  C   UNL     1       0.749   4.380  20.135  0.00  0.00    +0.000 C 
BRANCH  15  16
ATOM     16  C   UNL     1       2.001   4.622  20.974  0.00  0.00    +0.000 C 
BRANCH  16  17
ATOM     17  C   UNL     1       2.841   5.755  20.384  0.00  0.00    +0.000 C 
BRANCH  17  18
ATOM     18  N   UNL     1       2.147   6.295  19.219  0.00  0.00    +0.000 NA
ATOM     19  H   UNL     1       1.143   6.310  19.401  0.00  0.00    +0.000 HD
BRANCH  18  20
ATOM     20  C   UNL     1       2.585   7.660  18.920  0.00  0.00    +0.000 C 
BRANCH  20  21
ATOM     21  C   UNL     1       1.465   8.658  19.089  0.00  0.00    +0.000 A 
ATOM     22  C   UNL     1       0.849   9.284  17.992  0.00  0.00    +0.000 A 
ATOM     23  C   UNL     1      -0.179  10.208  18.184  0.00  0.00    +0.000 A 
ATOM     24  C   UNL     1      -0.590  10.540  19.474  0.00  0.00    +0.000 A 
ATOM     25  C   UNL     1       0.033   9.951  20.572  0.00  0.00    +0.000 A 
ATOM     26  C   UNL     1       1.054   9.025  20.373  0.00  0.00    +0.000 A 
ATOM     27  F   UNL     1       1.645   8.479  21.446  0.00  0.00    +0.000 F 
ENDBRANCH  20  21
ENDBRANCH  18  20
ENDBRANCH  17  18
ENDBRANCH  16  17
ENDBRANCH  15  16
ENDBRANCH   1  15
TORSDOF 9
ENDMDL
MODEL 8
REMARK VINA RESULT:      -6.9      2.623      3.915
REMARK  Name = 
REMARK  9 active torsions:
REMARK  status: ('A' for Active; 'I' for Inactive)
REMARK    1  A    between atoms: N_11  and  C_12
REMARK    2  A    between atoms: C_12  and  C_13
REMARK    3  A    between atoms: C_13  and  C_14
REMARK    4  A    between atoms: C_14  and  C_15
REMARK    5  A    between atoms: C_15  and  C_16
REMARK    6  A    between atoms: C_16  and  C_17
REMARK    7  A    between atoms: C_17  and  N_18
REMARK    8  A    between atoms: N_18  and  C_19
REMARK    9  A    between atoms: C_19  and  C_20
REMARK                            x       y       z     vdW  Elec       q    Type
REMARK                         _______ _______ _______ _____ _____    ______ ____
ROOT
ATOM      1  C   UNL     1       1.829   5.472  19.626  0.00  0.00    +0.000 C 
ENDROOT
BRANCH   1   2
ATOM      2  C   UNL     1       2.604   4.510  20.524  0.00  0.00    +0.000 C 
BRANCH   2   3
ATOM      3  C   UNL     1       3.148   3.315  19.742  0.00  0.00    +0.000 C 
BRANCH   3  14
ATOM      4  O   UNL     1       5.917   4.365  19.831  0.00  0.00    +0.000 OA
ATOM      5  C   UNL     1       5.279   4.203  18.809  0.00  0.00    +0.000 C 
ATOM      6  C   UNL     1       5.795   4.463  17.467  0.00  0.00    +0.000 A 
ATOM      7  C   UNL     1       7.025   4.939  17.056  0.00  0.00    +0.000 A 
ATOM      8  C   UNL     1       7.229   5.077  15.678  0.00  0.00    +0.000 A 
ATOM      9  C   UNL     1       6.213   4.738  14.758  0.00  0.00    +0.000 A 
ATOM     10  C   UNL     1       4.979   4.253  15.201  0.00  0.00    +0.000 A 
ATOM     11  C   UNL     1       4.801   4.129  16.564  0.00  0.00    +0.000 A 
ATOM     12  C   UNL     1       3.652   3.651  17.329  0.00  0.00    +0.000 C 
ATOM     13  O   UNL     1       2.622   3.239  16.832  0.00  0.00    +0.000 OA
ATOM     14  N   UNL     1       3.997   3.749  18.651  0.00  0.00    +0.000 N 
ENDBRANCH   3  14
ENDBRANCH   2   3
ENDBRANCH   1   2
BRANCH   1  15
ATOM     15  C   UNL     1       2.444   6.869  19.685  0.00  0.00    +0.000 C 
BRANCH  15  16
ATOM     16  C   UNL     1       2.874   7.355  18.304  0.00  0.00    +0.000 C 
BRANCH  16  17
ATOM     17  C   UNL     1       1.955   8.473  17.810  0.00  0.00    +0.000 C 
BRANCH  17  18
ATOM     18  N   UNL     1       1.358   9.133  18.967  0.00  0.00    +0.000 NA
ATOM     19  H   UNL     1       2.011   9.098  19.750  0.00  0.00    +0.000 HD
BRANCH  18  20
ATOM     20  C   UNL     1       1.049  10.537  18.682  0.00  0.00    +0.000 C 
BRANCH  20  21
ATOM     21  C   UNL     1      -0.435  10.765  18.536  0.00  0.00    +0.000 A 
ATOM     22  C   UNL     1      -1.218  10.036  17.626  0.00  0.00    +0.000 A 
ATOM     23  C   UNL     1      -2.588  10.277  17.510  0.00  0.00    +0.000 A 
ATOM     24  C   UNL     1      -3.192  11.268  18.283  0.00  0.00    +0.000 A 
ATOM     25  C   UNL     1      -2.422  12.021  19.167  0.00  0.00    +0.000 A 
ATOM     26  C   UNL     1      -1.057  11.770  19.282  0.00  0.00    +0.000 A 
ATOM     27  F   UNL     1      -0.336  12.515  20.132  0.00  0.00    +0.000 F 
ENDBRANCH  20  21
ENDBRANCH  18  20
ENDBRANCH  17  18
ENDBRANCH  16  17
ENDBRANCH  15  16
ENDBRANCH   1  15
TORSDOF 9
ENDMDL
MODEL 9
REMARK VINA RESULT:      -6.8      1.913      3.073
REMARK  Name = 
REMARK  9 active torsions:
REMARK  status: ('A' for Active; 'I' for Inactive)
REMARK    1  A    between atoms: N_11  and  C_12
REMARK    2  A    between atoms: C_12  and  C_13
REMARK    3  A    between atoms: C_13  and  C_14
REMARK    4  A    between atoms: C_14  and  C_15
REMARK    5  A    between atoms: C_15  and  C_16
REMARK    6  A    between atoms: C_16  and  C_17
REMARK    7  A    between atoms: C_17  and  N_18
REMARK    8  A    between atoms: N_18  and  C_19
REMARK    9  A    between atoms: C_19  and  C_20
REMARK                            x       y       z     vdW  Elec       q    Type
REMARK                         _______ _______ _______ _____ _____    ______ ____
ROOT
ATOM      1  C   UNL     1       1.887   2.320  20.942  0.00  0.00    +0.000 C 
ENDROOT
BRANCH   1   2
ATOM      2  C   UNL     1       1.543   2.126  19.467  0.00  0.00    +0.000 C 
BRANCH   2   3
ATOM      3  C   UNL     1       2.759   1.691  18.651  0.00  0.00    +0.000 C 
BRANCH   3  14
ATOM      4  O   UNL     1       2.456   3.740  16.532  0.00  0.00    +0.000 OA
ATOM      5  C   UNL     1       3.362   3.722  17.343  0.00  0.00    +0.000 C 
ATOM      6  C   UNL     1       4.416   4.732  17.421  0.00  0.00    +0.000 A 
ATOM      7  C   UNL     1       4.644   5.852  16.646  0.00  0.00    +0.000 A 
ATOM      8  C   UNL     1       5.750   6.644  16.977  0.00  0.00    +0.000 A 
ATOM      9  C   UNL     1       6.588   6.301  18.059  0.00  0.00    +0.000 A 
ATOM     10  C   UNL     1       6.332   5.163  18.831  0.00  0.00    +0.000 A 
ATOM     11  C   UNL     1       5.237   4.398  18.484  0.00  0.00    +0.000 A 
ATOM     12  C   UNL     1       4.705   3.179  19.088  0.00  0.00    +0.000 C 
ATOM     13  O   UNL     1       5.173   2.642  20.072  0.00  0.00    +0.000 OA
ATOM     14  N   UNL     1       3.612   2.822  18.343  0.00  0.00    +0.000 N 
ENDBRANCH   3  14
ENDBRANCH   2   3
ENDBRANCH   1   2
BRANCH   1  15
ATOM     15  C   UNL     1       1.491   3.722  21.403  0.00  0.00    +0.000 C 
BRANCH  15  16
ATOM     16  C   UNL     1       1.281   4.665  20.222  0.00  0.00    +0.000 C 
BRANCH  16  17
ATOM     17  C   UNL     1       2.044   5.974  20.430  0.00  0.00    +0.000 C 
BRANCH  17  18
ATOM     18  N   UNL     1       1.084   7.037  20.707  0.00  0.00    +0.000 NA
ATOM     19  H   UNL     1       0.325   6.667  21.278  0.00  0.00    +0.000 HD
BRANCH  18  20
ATOM     20  C   UNL     1       1.709   8.148  21.429  0.00  0.00    +0.000 C 
BRANCH  20  21
ATOM     21  C   UNL     1       0.726   9.261  21.702  0.00  0.00    +0.000 A 
ATOM     22  C   UNL     1       0.068   9.392  22.936  0.00  0.00    +0.000 A 
ATOM     23  C   UNL     1      -0.841  10.430  23.153  0.00  0.00    +0.000 A 
ATOM     24  C   UNL     1      -1.124  11.337  22.132  0.00  0.00    +0.000 A 
ATOM     25  C   UNL     1      -0.502  11.201  20.893  0.00  0.00    +0.000 A 
ATOM     26  C   UNL     1       0.408  10.167  20.686  0.00  0.00    +0.000 A 
ATOM     27  F   UNL     1       0.987  10.051  19.482  0.00  0.00    +0.000 F 
ENDBRANCH  20  21
ENDBRANCH  18  20
ENDBRANCH  17  18
ENDBRANCH  16  17
ENDBRANCH  15  16
ENDBRANCH   1  15
TORSDOF 9
ENDMDL
