MODEL 1
REMARK VINA RESULT:      -8.0      0.000      0.000
REMARK  Name = 
REMARK  4 active torsions:
REMARK  status: ('A' for Active; 'I' for Inactive)
REMARK    1  A    between atoms: C_1  and  C_2
REMARK    2  A    between atoms: C_4  and  N_5
REMARK    3  A    between atoms: N_5  and  C_6
REMARK    4  A    between atoms: C_9  and  N_10
REMARK                            x       y       z     vdW  Elec       q    Type
REMARK                         _______ _______ _______ _____ _____    ______ ____
ROOT
ATOM      1  N   UNL     1       3.571   4.892  18.259  0.00  0.00    +0.000 N 
ATOM      2  H   UNL     1       2.902   4.135  18.100  0.00  0.00    +0.000 HD
ENDROOT
BRANCH   1   6
ATOM      3  C   UNL     1       6.335   3.957  14.247  0.00  0.00    +0.000 C 
ATOM      4  C   UNL     1       6.252   4.312  15.709  0.00  0.00    +0.000 A 
ATOM      5  C   UNL     1       4.883   4.437  16.285  0.00  0.00    +0.000 A 
ATOM      6  C   UNL     1       4.782   4.736  17.592  0.00  0.00    +0.000 A 
ATOM      7  N   UNL     1       5.979   4.953  18.304  0.00  0.00    +0.000 N 
ATOM      8  N   UNL     1       6.156   5.297  19.612  0.00  0.00    +0.000 NA
ATOM      9  C   UNL     1       7.485   5.330  19.711  0.00  0.00    +0.000 A 
ATOM     10  N   UNL     1       8.175   5.052  18.573  0.00  0.00    +0.000 NA
ATOM     11  C   UNL     1       7.234   4.819  17.688  0.00  0.00    +0.000 A 
ATOM     12  N   UNL     1       7.357   4.490  16.367  0.00  0.00    +0.000 NA
ENDBRANCH   1   6
BRANCH   1  13
ATOM     13  C   UNL     1       2.985   6.102  18.682  0.00  0.00    +0.000 A 
ATOM     14  C   UNL     1       2.404   6.271  19.940  0.00  0.00    +0.000 A 
ATOM     15  C   UNL     1       1.762   7.466  20.293  0.00  0.00    +0.000 A 
ATOM     16  C   UNL     1       1.666   8.545  19.409  0.00  0.00    +0.000 A 
ATOM     17  C   UNL     1       2.249   8.364  18.147  0.00  0.00    +0.000 A 
ATOM     18  C   UNL     1       2.901   7.171  17.789  0.00  0.00    +0.000 A 
BRANCH  16  19
ATOM     19  N   UNL     1       1.031   9.714  19.763  0.00  0.00    +0.000 N 
ATOM     20  C   UNL     1       0.947  10.197  21.150  0.00  0.00    +0.000 C 
ATOM     21  C   UNL     1      -0.522  10.440  21.523  0.00  0.00    +0.000 C 
ATOM     22  O   UNL     1      -1.147  11.353  20.605  0.00  0.00    +0.000 OA
ATOM     23  C   UNL     1      -1.103  10.826  19.268  0.00  0.00    +0.000 C 
ATOM     24  C   UNL     1       0.341  10.574  18.790  0.00  0.00    +0.000 C 
ENDBRANCH  16  19
ENDBRANCH   1  13
TORSDOF 3
ENDMDL
MODEL 2
REMARK VINA RESULT:      -8.0      0.802      1.296
REMARK  Name = 
REMARK  4 active torsions:
REMARK  status: ('A' for Active; 'I' for Inactive)
REMARK    1  A    between atoms: C_1  and  C_2
REMARK    2  A    between atoms: C_4  and  N_5
REMARK    3  A    between atoms: N_5  and  C_6
REMARK    4  A    between atoms: C_9  and  N_10
REMARK                            x       y       z     vdW  Elec       q    Type
REMARK                         _______ _______ _______ _____ _____    ______ ____
ROOT
ATOM      1  N   UNL     1       3.344   4.719  17.721  0.00  0.00    +0.000 N 
ATOM      2  H   UNL     1       2.659   4.106  17.273  0.00  0.00    +0.000 HD
ENDROOT
BRANCH   1   6
ATOM      3  C   UNL     1       6.538   4.033  13.988  0.00  0.00    +0.000 C 
ATOM      4  C   UNL     1       6.292   4.350  15.440  0.00  0.00    +0.000 A 
ATOM      5  C   UNL     1       4.868   4.384  15.880  0.00  0.00    +0.000 A 
ATOM      6  C   UNL     1       4.622   4.647  17.175  0.00  0.00    +0.000 A 
ATOM      7  N   UNL     1       5.729   4.916  18.005  0.00  0.00    +0.000 N 
ATOM      8  N   UNL     1       5.756   5.240  19.330  0.00  0.00    +0.000 NA
ATOM      9  C   UNL     1       7.065   5.346  19.560  0.00  0.00    +0.000 A 
ATOM     10  N   UNL     1       7.878   5.134  18.493  0.00  0.00    +0.000 NA
ATOM     11  C   UNL     1       7.043   4.868  17.515  0.00  0.00    +0.000 A 
ATOM     12  N   UNL     1       7.315   4.575  16.207  0.00  0.00    +0.000 NA
ENDBRANCH   1   6
BRANCH   1  13
ATOM     13  C   UNL     1       2.779   5.806  18.417  0.00  0.00    +0.000 A 
ATOM     14  C   UNL     1       2.786   7.114  17.929  0.00  0.00    +0.000 A 
ATOM     15  C   UNL     1       2.283   8.179  18.688  0.00  0.00    +0.000 A 
ATOM     16  C   UNL     1       1.755   7.993  19.969  0.00  0.00    +0.000 A 
ATOM     17  C   UNL     1       1.757   6.676  20.452  0.00  0.00    +0.000 A 
ATOM     18  C   UNL     1       2.253   5.602  19.694  0.00  0.00    +0.000 A 
BRANCH  16  19
ATOM     19  N   UNL     1       1.267   9.045  20.710  0.00  0.00    +0.000 N 
ATOM     20  C   UNL     1       1.104   8.994  22.171  0.00  0.00    +0.000 C 
ATOM     21  C   UNL     1      -0.344   9.344  22.541  0.00  0.00    +0.000 C 
ATOM     22  O   UNL     1      -0.721  10.626  22.009  0.00  0.00    +0.000 OA
ATOM     23  C   UNL     1      -0.610  10.625  20.576  0.00  0.00    +0.000 C 
ATOM     24  C   UNL     1       0.824  10.310  20.105  0.00  0.00    +0.000 C 
ENDBRANCH  16  19
ENDBRANCH   1  13
TORSDOF 3
ENDMDL
MODEL 3
REMARK VINA RESULT:      -7.9      0.874      1.323
REMARK  Name = 
REMARK  4 active torsions:
REMARK  status: ('A' for Active; 'I' for Inactive)
REMARK    1  A    between atoms: C_1  and  C_2
REMARK    2  A    between atoms: C_4  and  N_5
REMARK    3  A    between atoms: N_5  and  C_6
REMARK    4  A    between atoms: C_9  and  N_10
REMARK                            x       y       z     vdW  Elec       q    Type
REMARK                         _______ _______ _______ _____ _____    ______ ____
ROOT
ATOM      1  N   UNL     1       3.621   4.501  18.381  0.00  0.00    +0.000 N 
ATOM      2  H   UNL     1       3.013   3.711  18.153  0.00  0.00    +0.000 HD
ENDROOT
BRANCH   1   6
ATOM      3  C   UNL     1       6.364   4.044  14.273  0.00  0.00    +0.000 C 
ATOM      4  C   UNL     1       6.280   4.343  15.748  0.00  0.00    +0.000 A 
ATOM      5  C   UNL     1       4.923   4.275  16.361  0.00  0.00    +0.000 A 
ATOM      6  C   UNL     1       4.822   4.521  17.679  0.00  0.00    +0.000 A 
ATOM      7  N   UNL     1       6.002   4.870  18.367  0.00  0.00    +0.000 N 
ATOM      8  N   UNL     1       6.171   5.197  19.681  0.00  0.00    +0.000 NA
ATOM      9  C   UNL     1       7.488   5.397  19.747  0.00  0.00    +0.000 A 
ATOM     10  N   UNL     1       8.175   5.243  18.584  0.00  0.00    +0.000 NA
ATOM     11  C   UNL     1       7.245   4.916  17.716  0.00  0.00    +0.000 A 
ATOM     12  N   UNL     1       7.371   4.643  16.383  0.00  0.00    +0.000 NA
ENDBRANCH   1   6
BRANCH   1  13
ATOM     13  C   UNL     1       2.950   5.603  18.945  0.00  0.00    +0.000 A 
ATOM     14  C   UNL     1       2.244   5.536  20.148  0.00  0.00    +0.000 A 
ATOM     15  C   UNL     1       1.524   6.635  20.635  0.00  0.00    +0.000 A 
ATOM     16  C   UNL     1       1.470   7.850  19.945  0.00  0.00    +0.000 A 
ATOM     17  C   UNL     1       2.178   7.906  18.736  0.00  0.00    +0.000 A 
ATOM     18  C   UNL     1       2.908   6.810  18.246  0.00  0.00    +0.000 A 
BRANCH  16  19
ATOM     19  N   UNL     1       0.757   8.924  20.429  0.00  0.00    +0.000 N 
ATOM     20  C   UNL     1       0.787  10.256  19.805  0.00  0.00    +0.000 C 
ATOM     21  C   UNL     1       1.186  11.307  20.850  0.00  0.00    +0.000 C 
ATOM     22  O   UNL     1       0.304  11.272  21.985  0.00  0.00    +0.000 OA
ATOM     23  C   UNL     1       0.343   9.977  22.610  0.00  0.00    +0.000 C 
ATOM     24  C   UNL     1      -0.072   8.852  21.640  0.00  0.00    +0.000 C 
ENDBRANCH  16  19
ENDBRANCH   1  13
TORSDOF 3
ENDMDL
MODEL 4
REMARK VINA RESULT:      -7.9      0.832      1.599
REMARK  Name = 
REMARK  4 active torsions:
REMARK  status: ('A' for Active; 'I' for Inactive)
REMARK    1  A    between atoms: C_1  and  C_2
REMARK    2  A    between atoms: C_4  and  N_5
REMARK    3  A    between atoms: N_5  and  C_6
REMARK    4  A    between atoms: C_9  and  N_10
REMARK                            x       y       z     vdW  Elec       q    Type
REMARK                         _______ _______ _______ _____ _____    ______ ____
ROOT
ATOM      1  N   UNL     1       3.604   4.561  18.486  0.00  0.00    +0.000 N 
ATOM      2  H   UNL     1       3.052   3.704  18.409  0.00  0.00    +0.000 HD
ENDROOT
BRANCH   1   6
ATOM      3  C   UNL     1       6.258   4.009  14.331  0.00  0.00    +0.000 C 
ATOM      4  C   UNL     1       6.209   4.319  15.805  0.00  0.00    +0.000 A 
ATOM      5  C   UNL     1       4.862   4.290  16.444  0.00  0.00    +0.000 A 
ATOM      6  C   UNL     1       4.792   4.545  17.763  0.00  0.00    +0.000 A 
ATOM      7  N   UNL     1       5.994   4.865  18.427  0.00  0.00    +0.000 N 
ATOM      8  N   UNL     1       6.196   5.193  19.736  0.00  0.00    +0.000 NA
ATOM      9  C   UNL     1       7.519   5.359  19.776  0.00  0.00    +0.000 A 
ATOM     10  N   UNL     1       8.179   5.180  18.602  0.00  0.00    +0.000 NA
ATOM     11  C   UNL     1       7.226   4.874  17.753  0.00  0.00    +0.000 A 
ATOM     12  N   UNL     1       7.320   4.591  16.419  0.00  0.00    +0.000 NA
ENDBRANCH   1   6
BRANCH   1  13
ATOM     13  C   UNL     1       2.862   5.694  18.873  0.00  0.00    +0.000 A 
ATOM     14  C   UNL     1       2.829   6.877  18.131  0.00  0.00    +0.000 A 
ATOM     15  C   UNL     1       2.141   8.008  18.591  0.00  0.00    +0.000 A 
ATOM     16  C   UNL     1       1.458   8.015  19.811  0.00  0.00    +0.000 A 
ATOM     17  C   UNL     1       1.501   6.825  20.550  0.00  0.00    +0.000 A 
ATOM     18  C   UNL     1       2.182   5.684  20.092  0.00  0.00    +0.000 A 
BRANCH  16  19
ATOM     19  N   UNL     1       0.788   9.132  20.257  0.00  0.00    +0.000 N 
ATOM     20  C   UNL     1       0.910  10.452  19.619  0.00  0.00    +0.000 C 
ATOM     21  C   UNL     1       1.329  11.494  20.665  0.00  0.00    +0.000 C 
ATOM     22  O   UNL     1       0.408  11.521  21.769  0.00  0.00    +0.000 OA
ATOM     23  C   UNL     1       0.357  10.235  22.410  0.00  0.00    +0.000 C 
ATOM     24  C   UNL     1      -0.085   9.121  21.440  0.00  0.00    +0.000 C 
ENDBRANCH  16  19
ENDBRANCH   1  13
TORSDOF 3
ENDMDL
MODEL 5
REMARK VINA RESULT:      -7.8      1.730      2.786
REMARK  Name = 
REMARK  4 active torsions:
REMARK  status: ('A' for Active; 'I' for Inactive)
REMARK    1  A    between atoms: C_1  and  C_2
REMARK    2  A    between atoms: C_4  and  N_5
REMARK    3  A    between atoms: N_5  and  C_6
REMARK    4  A    between atoms: C_9  and  N_10
REMARK                            x       y       z     vdW  Elec       q    Type
REMARK                         _______ _______ _______ _____ _____    ______ ____
ROOT
ATOM      1  N   UNL     1       3.664   6.114  17.539  0.00  0.00    +0.000 N 
ATOM      2  H   UNL     1       3.126   5.578  16.854  0.00  0.00    +0.000 HD
ENDROOT
BRANCH   1   6
ATOM      3  C   UNL     1       8.037   8.437  17.844  0.00  0.00    +0.000 C 
ATOM      4  C   UNL     1       7.197   7.327  17.266  0.00  0.00    +0.000 A 
ATOM      5  C   UNL     1       5.777   7.266  17.717  0.00  0.00    +0.000 A 
ATOM      6  C   UNL     1       5.002   6.296  17.203  0.00  0.00    +0.000 A 
ATOM      7  N   UNL     1       5.605   5.385  16.312  0.00  0.00    +0.000 N 
ATOM      8  N   UNL     1       5.061   4.303  15.683  0.00  0.00    +0.000 NA
ATOM      9  C   UNL     1       6.091   3.858  14.962  0.00  0.00    +0.000 A 
ATOM     10  N   UNL     1       7.253   4.552  15.088  0.00  0.00    +0.000 NA
ATOM     11  C   UNL     1       6.953   5.508  15.938  0.00  0.00    +0.000 A 
ATOM     12  N   UNL     1       7.750   6.503  16.429  0.00  0.00    +0.000 NA
ENDBRANCH   1   6
BRANCH   1  13
ATOM     13  C   UNL     1       2.881   6.933  18.376  0.00  0.00    +0.000 A 
ATOM     14  C   UNL     1       2.523   6.577  19.678  0.00  0.00    +0.000 A 
ATOM     15  C   UNL     1       1.677   7.385  20.450  0.00  0.00    +0.000 A 
ATOM     16  C   UNL     1       1.146   8.582  19.960  0.00  0.00    +0.000 A 
ATOM     17  C   UNL     1       1.507   8.929  18.650  0.00  0.00    +0.000 A 
ATOM     18  C   UNL     1       2.361   8.127  17.873  0.00  0.00    +0.000 A 
BRANCH  16  19
ATOM     19  N   UNL     1       0.313   9.368  20.723  0.00  0.00    +0.000 N 
ATOM     20  C   UNL     1       0.062  10.790  20.437  0.00  0.00    +0.000 C 
ATOM     21  C   UNL     1       0.376  11.630  21.682  0.00  0.00    +0.000 C 
ATOM     22  O   UNL     1      -0.378  11.176  22.820  0.00  0.00    +0.000 OA
ATOM     23  C   UNL     1      -0.066   9.804  23.111  0.00  0.00    +0.000 C 
ATOM     24  C   UNL     1      -0.377   8.872  21.923  0.00  0.00    +0.000 C 
ENDBRANCH  16  19
ENDBRANCH   1  13
TORSDOF 3
ENDMDL
MODEL 6
REMARK VINA RESULT:      -7.7      2.079      3.481
REMARK  Name = 
REMARK  4 active torsions:
REMARK  status: ('A' for Active; 'I' for Inactive)
REMARK    1  A    between atoms: C_1  and  C_2
REMARK    2  A    between atoms: C_4  and  N_5
REMARK    3  A    between atoms: N_5  and  C_6
REMARK    4  A    between atoms: C_9  and  N_10
REMARK                            x       y       z     vdW  Elec       q    Type
REMARK                         _______ _______ _______ _____ _____    ______ ____
ROOT
ATOM      1  N   UNL     1       3.005   6.137  20.026  0.00  0.00    +0.000 N 
ATOM      2  H   UNL     1       2.928   5.722  20.958  0.00  0.00    +0.000 HD
ENDROOT
BRANCH   1   6
ATOM      3  C   UNL     1       6.240   4.491  16.644  0.00  0.00    +0.000 C 
ATOM      4  C   UNL     1       4.926   4.332  17.365  0.00  0.00    +0.000 A 
ATOM      5  C   UNL     1       4.605   5.363  18.393  0.00  0.00    +0.000 A 
ATOM      6  C   UNL     1       3.430   5.254  19.039  0.00  0.00    +0.000 A 
ATOM      7  N   UNL     1       2.616   4.147  18.724  0.00  0.00    +0.000 N 
ATOM      8  N   UNL     1       1.409   3.786  19.248  0.00  0.00    +0.000 NA
ATOM      9  C   UNL     1       1.123   2.687  18.548  0.00  0.00    +0.000 A 
ATOM     10  N   UNL     1       2.051   2.304  17.632  0.00  0.00    +0.000 NA
ATOM     11  C   UNL     1       2.990   3.215  17.743  0.00  0.00    +0.000 A 
ATOM     12  N   UNL     1       4.168   3.324  17.057  0.00  0.00    +0.000 NA
ENDBRANCH   1   6
BRANCH   1  13
ATOM     13  C   UNL     1       2.234   7.302  19.847  0.00  0.00    +0.000 A 
ATOM     14  C   UNL     1       2.234   8.045  18.664  0.00  0.00    +0.000 A 
ATOM     15  C   UNL     1       1.513   9.242  18.554  0.00  0.00    +0.000 A 
ATOM     16  C   UNL     1       0.764   9.757  19.617  0.00  0.00    +0.000 A 
ATOM     17  C   UNL     1       0.775   9.006  20.801  0.00  0.00    +0.000 A 
ATOM     18  C   UNL     1       1.489   7.801  20.916  0.00  0.00    +0.000 A 
BRANCH  16  19
ATOM     19  N   UNL     1       0.063  10.935  19.501  0.00  0.00    +0.000 N 
ATOM     20  C   UNL     1      -1.351  10.995  19.096  0.00  0.00    +0.000 C 
ATOM     21  C   UNL     1      -1.503  11.930  17.889  0.00  0.00    +0.000 C 
ATOM     22  O   UNL     1      -0.978  13.238  18.176  0.00  0.00    +0.000 OA
ATOM     23  C   UNL     1       0.419  13.155  18.509  0.00  0.00    +0.000 C 
ATOM     24  C   UNL     1       0.670  12.253  19.735  0.00  0.00    +0.000 C 
ENDBRANCH  16  19
ENDBRANCH   1  13
TORSDOF 3
ENDMDL
MODEL 7
REMARK VINA RESULT:      -7.7      2.014      3.327
REMARK  Name = 
REMARK  4 active torsions:
REMARK  status: ('A' for Active; 'I' for Inactive)
REMARK    1  A    between atoms: C_1  and  C_2
REMARK    2  A    between atoms: C_4  and  N_5
REMARK    3  A    between atoms: N_5  and  C_6
REMARK    4  A    between atoms: C_9  and  N_10
REMARK                            x       y       z     vdW  Elec       q    Type
REMARK                         _______ _______ _______ _____ _____    ______ ____
ROOT
ATOM      1  N   UNL     1       2.989   6.279  19.879  0.00  0.00    +0.000 N 
ATOM      2  H   UNL     1       2.849   5.915  20.824  0.00  0.00    +0.000 HD
ENDROOT
BRANCH   1   6
ATOM      3  C   UNL     1       6.427   4.454  16.803  0.00  0.00    +0.000 C 
ATOM      4  C   UNL     1       5.070   4.334  17.446  0.00  0.00    +0.000 A 
ATOM      5  C   UNL     1       4.687   5.419  18.395  0.00  0.00    +0.000 A 
ATOM      6  C   UNL     1       3.474   5.344  18.970  0.00  0.00    +0.000 A 
ATOM      7  N   UNL     1       2.678   4.222  18.665  0.00  0.00    +0.000 N 
ATOM      8  N   UNL     1       1.439   3.889  19.130  0.00  0.00    +0.000 NA
ATOM      9  C   UNL     1       1.195   2.753  18.474  0.00  0.00    +0.000 A 
ATOM     10  N   UNL     1       2.178   2.321  17.641  0.00  0.00    +0.000 NA
ATOM     11  C   UNL     1       3.111   3.238  17.761  0.00  0.00    +0.000 A 
ATOM     12  N   UNL     1       4.330   3.310  17.147  0.00  0.00    +0.000 NA
ENDBRANCH   1   6
BRANCH   1  13
ATOM     13  C   UNL     1       2.238   7.435  19.588  0.00  0.00    +0.000 A 
ATOM     14  C   UNL     1       2.198   8.022  18.321  0.00  0.00    +0.000 A 
ATOM     15  C   UNL     1       1.501   9.217  18.093  0.00  0.00    +0.000 A 
ATOM     16  C   UNL     1       0.817   9.883  19.114  0.00  0.00    +0.000 A 
ATOM     17  C   UNL     1       0.867   9.288  20.382  0.00  0.00    +0.000 A 
ATOM     18  C   UNL     1       1.557   8.087  20.617  0.00  0.00    +0.000 A 
BRANCH  16  19
ATOM     19  N   UNL     1       0.138  11.058  18.881  0.00  0.00    +0.000 N 
ATOM     20  C   UNL     1       0.723  12.387  19.120  0.00  0.00    +0.000 C 
ATOM     21  C   UNL     1      -0.190  13.192  20.054  0.00  0.00    +0.000 C 
ATOM     22  O   UNL     1      -1.523  13.288  19.523  0.00  0.00    +0.000 OA
ATOM     23  C   UNL     1      -2.090  11.977  19.359  0.00  0.00    +0.000 C 
ATOM     24  C   UNL     1      -1.253  11.097  18.408  0.00  0.00    +0.000 C 
ENDBRANCH  16  19
ENDBRANCH   1  13
TORSDOF 3
ENDMDL
MODEL 8
REMARK VINA RESULT:      -7.6      2.016      3.185
REMARK  Name = 
REMARK  4 active torsions:
REMARK  status: ('A' for Active; 'I' for Inactive)
REMARK    1  A    between atoms: C_1  and  C_2
REMARK    2  A    between atoms: C_4  and  N_5
REMARK    3  A    between atoms: N_5  and  C_6
REMARK    4  A    between atoms: C_9  and  N_10
REMARK                            x       y       z     vdW  Elec       q    Type
REMARK                         _______ _______ _______ _____ _____    ______ ____
ROOT
ATOM      1  N   UNL     1       2.970   6.196  20.016  0.00  0.00    +0.000 N 
ATOM      2  H   UNL     1       2.755   5.780  20.925  0.00  0.00    +0.000 HD
ENDROOT
BRANCH   1   6
ATOM      3  C   UNL     1       6.461   4.509  16.920  0.00  0.00    +0.000 C 
ATOM      4  C   UNL     1       5.096   4.356  17.541  0.00  0.00    +0.000 A 
ATOM      5  C   UNL     1       4.693   5.403  18.524  0.00  0.00    +0.000 A 
ATOM      6  C   UNL     1       3.473   5.299  19.079  0.00  0.00    +0.000 A 
ATOM      7  N   UNL     1       2.690   4.182  18.723  0.00  0.00    +0.000 N 
ATOM      8  N   UNL     1       1.448   3.824  19.160  0.00  0.00    +0.000 NA
ATOM      9  C   UNL     1       1.221   2.711  18.460  0.00  0.00    +0.000 A 
ATOM     10  N   UNL     1       2.218   2.317  17.625  0.00  0.00    +0.000 NA
ATOM     11  C   UNL     1       3.142   3.235  17.790  0.00  0.00    +0.000 A 
ATOM     12  N   UNL     1       4.368   3.339  17.195  0.00  0.00    +0.000 NA
ENDBRANCH   1   6
BRANCH   1  13
ATOM     13  C   UNL     1       2.286   7.400  19.754  0.00  0.00    +0.000 A 
ATOM     14  C   UNL     1       1.529   8.074  20.714  0.00  0.00    +0.000 A 
ATOM     15  C   UNL     1       0.800   9.227  20.392  0.00  0.00    +0.000 A 
ATOM     16  C   UNL     1       0.788   9.759  19.099  0.00  0.00    +0.000 A 
ATOM     17  C   UNL     1       1.547   9.072  18.141  0.00  0.00    +0.000 A 
ATOM     18  C   UNL     1       2.286   7.920  18.459  0.00  0.00    +0.000 A 
BRANCH  16  19
ATOM     19  N   UNL     1       0.066  10.889  18.790  0.00  0.00    +0.000 N 
ATOM     20  C   UNL     1       0.541  12.252  19.077  0.00  0.00    +0.000 C 
ATOM     21  C   UNL     1      -0.510  13.001  19.908  0.00  0.00    +0.000 C 
ATOM     22  O   UNL     1      -1.785  13.013  19.243  0.00  0.00    +0.000 OA
ATOM     23  C   UNL     1      -2.251  11.670  19.031  0.00  0.00    +0.000 C 
ATOM     24  C   UNL     1      -1.270  10.842  18.177  0.00  0.00    +0.000 C 
ENDBRANCH  16  19
ENDBRANCH   1  13
TORSDOF 3
ENDMDL
MODEL 9
REMARK VINA RESULT:      -7.6      2.301      3.977
REMARK  Name = 
REMARK  4 active torsions:
REMARK  status: ('A' for Active; 'I' for Inactive)
REMARK    1  A    between atoms: C_1  and  C_2
REMARK    2  A    between atoms: C_4  and  N_5
REMARK    3  A    between atoms: N_5  and  C_6
REMARK    4  A    between atoms: C_9  and  N_10
REMARK                            x       y       z     vdW  Elec       q    Type
REMARK                         _______ _______ _______ _____ _____    ______ ____
ROOT
ATOM      1  N   UNL     1       3.146   6.781  19.756  0.00  0.00    +0.000 N 
ATOM      2  H   UNL     1       3.933   7.090  20.330  0.00  0.00    +0.000 HD
ENDROOT
BRANCH   1   6
ATOM      3  C   UNL     1       1.439   2.551  21.707  0.00  0.00    +0.000 C 
ATOM      4  C   UNL     1       2.148   3.268  20.586  0.00  0.00    +0.000 A 
ATOM      5  C   UNL     1       2.297   4.744  20.733  0.00  0.00    +0.000 A 
ATOM      6  C   UNL     1       2.941   5.405  19.755  0.00  0.00    +0.000 A 
ATOM      7  N   UNL     1       3.385   4.655  18.647  0.00  0.00    +0.000 N 
ATOM      8  N   UNL     1       4.026   5.078  17.519  0.00  0.00    +0.000 NA
ATOM      9  C   UNL     1       4.208   3.933  16.861  0.00  0.00    +0.000 A 
ATOM     10  N   UNL     1       3.724   2.814  17.462  0.00  0.00    +0.000 NA
ATOM     11  C   UNL     1       3.203   3.265  18.581  0.00  0.00    +0.000 A 
ATOM     12  N   UNL     1       2.575   2.572  19.577  0.00  0.00    +0.000 NA
ENDBRANCH   1   6
BRANCH   1  13
ATOM     13  C   UNL     1       2.185   7.781  19.504  0.00  0.00    +0.000 A 
ATOM     14  C   UNL     1       2.000   8.365  18.250  0.00  0.00    +0.000 A 
ATOM     15  C   UNL     1       1.088   9.412  18.060  0.00  0.00    +0.000 A 
ATOM     16  C   UNL     1       0.322   9.929  19.110  0.00  0.00    +0.000 A 
ATOM     17  C   UNL     1       0.520   9.339  20.366  0.00  0.00    +0.000 A 
ATOM     18  C   UNL     1       1.427   8.283  20.563  0.00  0.00    +0.000 A 
BRANCH  16  19
ATOM     19  N   UNL     1      -0.568  10.960  18.916  0.00  0.00    +0.000 N 
ATOM     20  C   UNL     1      -0.670  12.117  19.818  0.00  0.00    +0.000 C 
ATOM     21  C   UNL     1      -2.117  12.267  20.305  0.00  0.00    +0.000 C 
ATOM     22  O   UNL     1      -3.029  12.376  19.199  0.00  0.00    +0.000 OA
ATOM     23  C   UNL     1      -2.951  11.204  18.370  0.00  0.00    +0.000 C 
ATOM     24  C   UNL     1      -1.533  10.984  17.806  0.00  0.00    +0.000 C 
ENDBRANCH  16  19
ENDBRANCH   1  13
TORSDOF 3
ENDMDL
