MODEL 1
REMARK VINA RESULT:      -6.9      0.000      0.000
REMARK  Name = 
REMARK  12 active torsions:
REMARK  status: ('A' for Active; 'I' for Inactive)
REMARK    1  A    between atoms: C_1  and  C_2
REMARK    2  A    between atoms: C_2  and  C_3
REMARK    3  A    between atoms: C_2  and  N_14
REMARK    4  A    between atoms: C_3  and  N_4
REMARK    5  A    between atoms: N_14  and  C_15
REMARK    6  A    between atoms: N_14  and  C_21
REMARK    7  A    between atoms: C_15  and  C_16
REMARK    8  A    between atoms: C_16  and  P_17
REMARK    9  A    between atoms: P_17  and  O_19
REMARK   10  A    between atoms: P_17  and  O_20
REMARK   11  A    between atoms: C_21  and  C_22
REMARK   12  A    between atoms: C_22  and  O_24
REMARK                            x       y       z     vdW  Elec       q    Type
REMARK                         _______ _______ _______ _____ _____    ______ ____
ROOT
ATOM      1  C   UNL     1       3.549   6.140  17.636  0.00  0.00    +0.000 C 
ATOM      2  C   UNL     1       4.281   5.332  16.547  0.00  0.00    +0.000 C 
ENDROOT
BRANCH   2   3
ATOM      3  C   UNL     1       4.227   3.810  16.909  0.00  0.00    +0.000 C 
BRANCH   3   4
ATOM      4  N   UNL     1       3.947   3.360  18.256  0.00  0.00    +0.000 N 
ATOM      5  C   UNL     1       4.791   3.122  19.303  0.00  0.00    +0.000 A 
ATOM      6  N   UNL     1       4.146   2.832  20.416  0.00  0.00    +0.000 NA
ATOM      7  C   UNL     1       2.812   2.838  20.063  0.00  0.00    +0.000 A 
ATOM      8  C   UNL     1       1.630   2.595  20.782  0.00  0.00    +0.000 A 
ATOM      9  N   UNL     1       1.604   2.311  22.142  0.00  0.00    +0.000 N 
ATOM     10  N   UNL     1       0.451   2.619  20.116  0.00  0.00    +0.000 NA
ATOM     11  C   UNL     1       0.465   2.920  18.800  0.00  0.00    +0.000 A 
ATOM     12  N   UNL     1       1.524   3.210  18.019  0.00  0.00    +0.000 NA
ATOM     13  C   UNL     1       2.670   3.136  18.721  0.00  0.00    +0.000 A 
ATOM     14  H   UNL     1       2.498   2.001  22.503  0.00  0.00    +0.000 HD
ATOM     15  H   UNL     1       0.781   1.783  22.404  0.00  0.00    +0.000 HD
ENDBRANCH   3   4
ENDBRANCH   2   3
BRANCH   2  16
ATOM     16  N   UNL     1       5.629   5.876  16.204  0.00  0.00    +0.000 NA
BRANCH  16  17
ATOM     17  C   UNL     1       6.145   6.765  17.283  0.00  0.00    +0.000 C 
BRANCH  17  18
ATOM     18  C   UNL     1       7.629   6.594  17.593  0.00  0.00    +0.000 C 
BRANCH  18  19
ATOM     19  P   UNL     1       7.913   5.888  19.257  0.00  0.00    +0.000 P 
ATOM     20  O   UNL     1       6.407   5.827  19.523  0.00  0.00    +0.000 OA
BRANCH  19  21
ATOM     21  O   UNL     1       8.255   4.425  18.610  0.00  0.00    +0.000 OA
ATOM     22  H   UNL     1       7.618   3.754  18.925  0.00  0.00    +0.000 HD
ENDBRANCH  19  21
BRANCH  19  23
ATOM     23  O   UNL     1       8.181   5.221  20.831  0.00  0.00    +0.000 OA
ATOM     24  H   UNL     1       7.857   4.299  20.771  0.00  0.00    +0.000 HD
ENDBRANCH  19  23
ENDBRANCH  18  19
ENDBRANCH  17  18
ENDBRANCH  16  17
BRANCH  16  25
ATOM     25  C   UNL     1       6.619   4.821  15.833  0.00  0.00    +0.000 C 
BRANCH  25  26
ATOM     26  C   UNL     1       6.932   4.742  14.332  0.00  0.00    +0.000 C 
ATOM     27  O   UNL     1       6.369   3.995  13.543  0.00  0.00    +0.000 OA
BRANCH  26  28
ATOM     28  O   UNL     1       7.920   5.577  13.932  0.00  0.00    +0.000 OA
ATOM     29  H   UNL     1       8.587   5.179  13.341  0.00  0.00    +0.000 HD
ENDBRANCH  26  28
ENDBRANCH  25  26
ENDBRANCH  16  25
ENDBRANCH   2  16
TORSDOF 11
ENDMDL
MODEL 2
REMARK VINA RESULT:      -6.9      0.627      1.048
REMARK  Name = 
REMARK  12 active torsions:
REMARK  status: ('A' for Active; 'I' for Inactive)
REMARK    1  A    between atoms: C_1  and  C_2
REMARK    2  A    between atoms: C_2  and  C_3
REMARK    3  A    between atoms: C_2  and  N_14
REMARK    4  A    between atoms: C_3  and  N_4
REMARK    5  A    between atoms: N_14  and  C_15
REMARK    6  A    between atoms: N_14  and  C_21
REMARK    7  A    between atoms: C_15  and  C_16
REMARK    8  A    between atoms: C_16  and  P_17
REMARK    9  A    between atoms: P_17  and  O_19
REMARK   10  A    between atoms: P_17  and  O_20
REMARK   11  A    between atoms: C_21  and  C_22
REMARK   12  A    between atoms: C_22  and  O_24
REMARK                            x       y       z     vdW  Elec       q    Type
REMARK                         _______ _______ _______ _____ _____    ______ ____
ROOT
ATOM      1  C   UNL     1       3.714   5.995  17.661  0.00  0.00    +0.000 C 
ATOM      2  C   UNL     1       4.202   5.108  16.498  0.00  0.00    +0.000 C 
ENDROOT
BRANCH   2   3
ATOM      3  C   UNL     1       4.258   3.618  16.974  0.00  0.00    +0.000 C 
BRANCH   3   4
ATOM      4  N   UNL     1       3.956   3.246  18.339  0.00  0.00    +0.000 N 
ATOM      5  C   UNL     1       4.781   3.086  19.416  0.00  0.00    +0.000 A 
ATOM      6  N   UNL     1       4.116   2.852  20.532  0.00  0.00    +0.000 NA
ATOM      7  C   UNL     1       2.790   2.814  20.151  0.00  0.00    +0.000 A 
ATOM      8  C   UNL     1       1.597   2.595  20.858  0.00  0.00    +0.000 A 
ATOM      9  N   UNL     1       1.547   2.393  22.233  0.00  0.00    +0.000 N 
ATOM     10  N   UNL     1       0.433   2.559  20.169  0.00  0.00    +0.000 NA
ATOM     11  C   UNL     1       0.470   2.780  18.836  0.00  0.00    +0.000 A 
ATOM     12  N   UNL     1       1.542   3.041  18.061  0.00  0.00    +0.000 NA
ATOM     13  C   UNL     1       2.673   3.028  18.790  0.00  0.00    +0.000 A 
ATOM     14  H   UNL     1       2.437   2.121  22.630  0.00  0.00    +0.000 HD
ATOM     15  H   UNL     1       0.726   1.868  22.509  0.00  0.00    +0.000 HD
ENDBRANCH   3   4
ENDBRANCH   2   3
BRANCH   2  16
ATOM     16  N   UNL     1       5.429   5.628  15.824  0.00  0.00    +0.000 NA
BRANCH  16  17
ATOM     17  C   UNL     1       6.050   6.733  16.607  0.00  0.00    +0.000 C 
BRANCH  17  18
ATOM     18  C   UNL     1       7.467   6.450  17.096  0.00  0.00    +0.000 C 
BRANCH  18  19
ATOM     19  P   UNL     1       7.502   5.902  18.841  0.00  0.00    +0.000 P 
ATOM     20  O   UNL     1       8.288   4.644  18.464  0.00  0.00    +0.000 OA
BRANCH  19  21
ATOM     21  O   UNL     1       8.663   6.999  19.192  0.00  0.00    +0.000 OA
ATOM     22  H   UNL     1       9.550   6.620  19.034  0.00  0.00    +0.000 HD
ENDBRANCH  19  21
BRANCH  19  23
ATOM     23  O   UNL     1       7.535   5.384  20.492  0.00  0.00    +0.000 OA
ATOM     24  H   UNL     1       6.609   5.142  20.697  0.00  0.00    +0.000 HD
ENDBRANCH  19  23
ENDBRANCH  18  19
ENDBRANCH  17  18
ENDBRANCH  16  17
BRANCH  16  25
ATOM     25  C   UNL     1       6.419   4.562  15.488  0.00  0.00    +0.000 C 
BRANCH  25  26
ATOM     26  C   UNL     1       6.844   4.529  14.014  0.00  0.00    +0.000 C 
ATOM     27  O   UNL     1       7.560   5.364  13.478  0.00  0.00    +0.000 OA
BRANCH  26  28
ATOM     28  O   UNL     1       6.343   3.480  13.321  0.00  0.00    +0.000 OA
ATOM     29  H   UNL     1       5.371   3.394  13.342  0.00  0.00    +0.000 HD
ENDBRANCH  26  28
ENDBRANCH  25  26
ENDBRANCH  16  25
ENDBRANCH   2  16
TORSDOF 11
ENDMDL
MODEL 3
REMARK VINA RESULT:      -6.8      3.975      5.948
REMARK  Name = 
REMARK  12 active torsions:
REMARK  status: ('A' for Active; 'I' for Inactive)
REMARK    1  A    between atoms: C_1  and  C_2
REMARK    2  A    between atoms: C_2  and  C_3
REMARK    3  A    between atoms: C_2  and  N_14
REMARK    4  A    between atoms: C_3  and  N_4
REMARK    5  A    between atoms: N_14  and  C_15
REMARK    6  A    between atoms: N_14  and  C_21
REMARK    7  A    between atoms: C_15  and  C_16
REMARK    8  A    between atoms: C_16  and  P_17
REMARK    9  A    between atoms: P_17  and  O_19
REMARK   10  A    between atoms: P_17  and  O_20
REMARK   11  A    between atoms: C_21  and  C_22
REMARK   12  A    between atoms: C_22  and  O_24
REMARK                            x       y       z     vdW  Elec       q    Type
REMARK                         _______ _______ _______ _____ _____    ______ ____
ROOT
ATOM      1  C   UNL     1       1.779   4.813  17.916  0.00  0.00    +0.000 C 
ATOM      2  C   UNL     1       2.735   4.665  19.117  0.00  0.00    +0.000 C 
ENDROOT
BRANCH   2   3
ATOM      3  C   UNL     1       3.313   6.071  19.492  0.00  0.00    +0.000 C 
BRANCH   3   4
ATOM      4  N   UNL     1       2.782   7.287  18.914  0.00  0.00    +0.000 N 
ATOM      5  C   UNL     1       3.006   7.858  17.693  0.00  0.00    +0.000 A 
ATOM      6  N   UNL     1       2.245   8.916  17.484  0.00  0.00    +0.000 NA
ATOM      7  C   UNL     1       1.521   9.067  18.649  0.00  0.00    +0.000 A 
ATOM      8  C   UNL     1       0.559  10.001  19.064  0.00  0.00    +0.000 A 
ATOM      9  N   UNL     1       0.092  11.031  18.255  0.00  0.00    +0.000 N 
ATOM     10  N   UNL     1       0.068   9.910  20.322  0.00  0.00    +0.000 NA
ATOM     11  C   UNL     1       0.497   8.897  21.106  0.00  0.00    +0.000 A 
ATOM     12  N   UNL     1       1.380   7.923  20.805  0.00  0.00    +0.000 NA
ATOM     13  C   UNL     1       1.861   8.083  19.559  0.00  0.00    +0.000 A 
ATOM     14  H   UNL     1       0.702  11.234  17.473  0.00  0.00    +0.000 HD
ATOM     15  H   UNL     1      -0.257  11.811  18.798  0.00  0.00    +0.000 HD
ENDBRANCH   3   4
ENDBRANCH   2   3
BRANCH   2  16
ATOM     16  N   UNL     1       3.735   3.568  18.952  0.00  0.00    +0.000 NA
BRANCH  16  17
ATOM     17  C   UNL     1       5.090   4.110  18.653  0.00  0.00    +0.000 C 
BRANCH  17  18
ATOM     18  C   UNL     1       5.379   4.318  17.170  0.00  0.00    +0.000 C 
BRANCH  18  19
ATOM     19  P   UNL     1       6.581   5.666  16.879  0.00  0.00    +0.000 P 
ATOM     20  O   UNL     1       7.612   4.672  16.339  0.00  0.00    +0.000 OA
BRANCH  19  21
ATOM     21  O   UNL     1       5.765   6.147  15.547  0.00  0.00    +0.000 OA
ATOM     22  H   UNL     1       6.281   5.951  14.740  0.00  0.00    +0.000 HD
ENDBRANCH  19  21
BRANCH  19  23
ATOM     23  O   UNL     1       7.719   6.940  16.605  0.00  0.00    +0.000 OA
ATOM     24  H   UNL     1       7.233   7.762  16.824  0.00  0.00    +0.000 HD
ENDBRANCH  19  23
ENDBRANCH  18  19
ENDBRANCH  17  18
ENDBRANCH  16  17
BRANCH  16  25
ATOM     25  C   UNL     1       3.761   2.612  20.099  0.00  0.00    +0.000 C 
BRANCH  25  26
ATOM     26  C   UNL     1       2.519   2.663  20.999  0.00  0.00    +0.000 C 
ATOM     27  O   UNL     1       2.511   3.076  22.151  0.00  0.00    +0.000 OA
BRANCH  26  28
ATOM     28  O   UNL     1       1.395   2.190  20.412  0.00  0.00    +0.000 OA
ATOM     29  H   UNL     1       1.519   1.811  19.521  0.00  0.00    +0.000 HD
ENDBRANCH  26  28
ENDBRANCH  25  26
ENDBRANCH  16  25
ENDBRANCH   2  16
TORSDOF 11
ENDMDL
MODEL 4
REMARK VINA RESULT:      -6.7      2.005      4.309
REMARK  Name = 
REMARK  12 active torsions:
REMARK  status: ('A' for Active; 'I' for Inactive)
REMARK    1  A    between atoms: C_1  and  C_2
REMARK    2  A    between atoms: C_2  and  C_3
REMARK    3  A    between atoms: C_2  and  N_14
REMARK    4  A    between atoms: C_3  and  N_4
REMARK    5  A    between atoms: N_14  and  C_15
REMARK    6  A    between atoms: N_14  and  C_21
REMARK    7  A    between atoms: C_15  and  C_16
REMARK    8  A    between atoms: C_16  and  P_17
REMARK    9  A    between atoms: P_17  and  O_19
REMARK   10  A    between atoms: P_17  and  O_20
REMARK   11  A    between atoms: C_21  and  C_22
REMARK   12  A    between atoms: C_22  and  O_24
REMARK                            x       y       z     vdW  Elec       q    Type
REMARK                         _______ _______ _______ _____ _____    ______ ____
ROOT
ATOM      1  C   UNL     1       4.272   6.161  17.246  0.00  0.00    +0.000 C 
ATOM      2  C   UNL     1       4.710   4.980  16.356  0.00  0.00    +0.000 C 
ENDROOT
BRANCH   2   3
ATOM      3  C   UNL     1       3.865   3.715  16.724  0.00  0.00    +0.000 C 
BRANCH   3   4
ATOM      4  N   UNL     1       2.954   3.713  17.849  0.00  0.00    +0.000 N 
ATOM      5  C   UNL     1       1.666   4.159  17.946  0.00  0.00    +0.000 A 
ATOM      6  N   UNL     1       1.121   3.878  19.114  0.00  0.00    +0.000 NA
ATOM      7  C   UNL     1       2.122   3.255  19.830  0.00  0.00    +0.000 A 
ATOM      8  C   UNL     1       2.184   2.730  21.131  0.00  0.00    +0.000 A 
ATOM      9  N   UNL     1       1.102   2.716  22.004  0.00  0.00    +0.000 N 
ATOM     10  N   UNL     1       3.361   2.225  21.571  0.00  0.00    +0.000 NA
ATOM     11  C   UNL     1       4.410   2.212  20.720  0.00  0.00    +0.000 A 
ATOM     12  N   UNL     1       4.458   2.646  19.444  0.00  0.00    +0.000 NA
ATOM     13  C   UNL     1       3.275   3.169  19.072  0.00  0.00    +0.000 A 
ATOM     14  H   UNL     1       0.372   3.368  21.747  0.00  0.00    +0.000 HD
ATOM     15  H   UNL     1       1.397   2.694  22.972  0.00  0.00    +0.000 HD
ENDBRANCH   3   4
ENDBRANCH   2   3
BRANCH   2  16
ATOM     16  N   UNL     1       6.191   4.787  16.306  0.00  0.00    +0.000 NA
BRANCH  16  17
ATOM     17  C   UNL     1       6.695   4.822  14.904  0.00  0.00    +0.000 C 
BRANCH  17  18
ATOM     18  C   UNL     1       5.639   4.542  13.841  0.00  0.00    +0.000 C 
BRANCH  18  19
ATOM     19  P   UNL     1       6.168   3.249  12.660  0.00  0.00    +0.000 P 
ATOM     20  O   UNL     1       4.873   3.405  11.859  0.00  0.00    +0.000 OA
BRANCH  19  21
ATOM     21  O   UNL     1       7.203   4.289  11.939  0.00  0.00    +0.000 OA
ATOM     22  H   UNL     1       6.930   5.213  12.104  0.00  0.00    +0.000 HD
ENDBRANCH  19  21
BRANCH  19  23
ATOM     23  O   UNL     1       6.668   2.025  11.544  0.00  0.00    +0.000 OA
ATOM     24  H   UNL     1       6.764   2.490  10.688  0.00  0.00    +0.000 HD
ENDBRANCH  19  23
ENDBRANCH  18  19
ENDBRANCH  17  18
ENDBRANCH  16  17
BRANCH  16  25
ATOM     25  C   UNL     1       6.942   5.728  17.189  0.00  0.00    +0.000 C 
BRANCH  25  26
ATOM     26  C   UNL     1       7.768   5.046  18.289  0.00  0.00    +0.000 C 
ATOM     27  O   UNL     1       7.812   5.415  19.455  0.00  0.00    +0.000 OA
BRANCH  26  28
ATOM     28  O   UNL     1       8.479   3.978  17.860  0.00  0.00    +0.000 OA
ATOM     29  H   UNL     1       8.261   3.667  16.961  0.00  0.00    +0.000 HD
ENDBRANCH  26  28
ENDBRANCH  25  26
ENDBRANCH  16  25
ENDBRANCH   2  16
TORSDOF 11
ENDMDL
MODEL 5
REMARK VINA RESULT:      -6.7      4.138      5.642
REMARK  Name = 
REMARK  12 active torsions:
REMARK  status: ('A' for Active; 'I' for Inactive)
REMARK    1  A    between atoms: C_1  and  C_2
REMARK    2  A    between atoms: C_2  and  C_3
REMARK    3  A    between atoms: C_2  and  N_14
REMARK    4  A    between atoms: C_3  and  N_4
REMARK    5  A    between atoms: N_14  and  C_15
REMARK    6  A    between atoms: N_14  and  C_21
REMARK    7  A    between atoms: C_15  and  C_16
REMARK    8  A    between atoms: C_16  and  P_17
REMARK    9  A    between atoms: P_17  and  O_19
REMARK   10  A    between atoms: P_17  and  O_20
REMARK   11  A    between atoms: C_21  and  C_22
REMARK   12  A    between atoms: C_22  and  O_24
REMARK                            x       y       z     vdW  Elec       q    Type
REMARK                         _______ _______ _______ _____ _____    ______ ____
ROOT
ATOM      1  C   UNL     1       1.911   5.024  17.734  0.00  0.00    +0.000 C 
ATOM      2  C   UNL     1       2.738   4.914  19.031  0.00  0.00    +0.000 C 
ENDROOT
BRANCH   2   3
ATOM      3  C   UNL     1       2.650   6.265  19.815  0.00  0.00    +0.000 C 
BRANCH   3   4
ATOM      4  N   UNL     1       2.336   7.511  19.148  0.00  0.00    +0.000 N 
ATOM      5  C   UNL     1       2.729   7.984  17.928  0.00  0.00    +0.000 A 
ATOM      6  N   UNL     1       2.139   9.122  17.614  0.00  0.00    +0.000 NA
ATOM      7  C   UNL     1       1.354   9.426  18.707  0.00  0.00    +0.000 A 
ATOM      8  C   UNL     1       0.499  10.500  19.003  0.00  0.00    +0.000 A 
ATOM      9  N   UNL     1       0.241  11.540  18.117  0.00  0.00    +0.000 N 
ATOM     10  N   UNL     1      -0.096  10.539  20.218  0.00  0.00    +0.000 NA
ATOM     11  C   UNL     1       0.129   9.519  21.074  0.00  0.00    +0.000 A 
ATOM     12  N   UNL     1       0.891   8.422  20.888  0.00  0.00    +0.000 NA
ATOM     13  C   UNL     1       1.485   8.453  19.681  0.00  0.00    +0.000 A 
ATOM     14  H   UNL     1       0.932  11.621  17.382  0.00  0.00    +0.000 HD
ATOM     15  H   UNL     1      -0.039  12.386  18.598  0.00  0.00    +0.000 HD
ENDBRANCH   3   4
ENDBRANCH   2   3
BRANCH   2  16
ATOM     16  N   UNL     1       4.112   4.368  18.818  0.00  0.00    +0.000 NA
BRANCH  16  17
ATOM     17  C   UNL     1       5.155   5.371  19.172  0.00  0.00    +0.000 C 
BRANCH  17  18
ATOM     18  C   UNL     1       6.579   4.966  18.806  0.00  0.00    +0.000 C 
BRANCH  18  19
ATOM     19  P   UNL     1       6.951   5.261  17.039  0.00  0.00    +0.000 P 
ATOM     20  O   UNL     1       7.774   6.504  17.387  0.00  0.00    +0.000 OA
BRANCH  19  21
ATOM     21  O   UNL     1       8.051   4.051  17.039  0.00  0.00    +0.000 OA
ATOM     22  H   UNL     1       8.702   4.181  17.756  0.00  0.00    +0.000 HD
ENDBRANCH  19  21
BRANCH  19  23
ATOM     23  O   UNL     1       7.303   5.540  15.368  0.00  0.00    +0.000 OA
ATOM     24  H   UNL     1       6.809   4.845  14.888  0.00  0.00    +0.000 HD
ENDBRANCH  19  23
ENDBRANCH  18  19
ENDBRANCH  17  18
ENDBRANCH  16  17
BRANCH  16  25
ATOM     25  C   UNL     1       4.344   3.061  19.502  0.00  0.00    +0.000 C 
BRANCH  25  26
ATOM     26  C   UNL     1       3.548   1.886  18.918  0.00  0.00    +0.000 C 
ATOM     27  O   UNL     1       2.328   1.798  18.931  0.00  0.00    +0.000 OA
BRANCH  26  28
ATOM     28  O   UNL     1       4.320   0.913  18.380  0.00  0.00    +0.000 OA
ATOM     29  H   UNL     1       5.136   0.709  18.873  0.00  0.00    +0.000 HD
ENDBRANCH  26  28
ENDBRANCH  25  26
ENDBRANCH  16  25
ENDBRANCH   2  16
TORSDOF 11
ENDMDL
MODEL 6
REMARK VINA RESULT:      -6.6      3.573      5.347
REMARK  Name = 
REMARK  12 active torsions:
REMARK  status: ('A' for Active; 'I' for Inactive)
REMARK    1  A    between atoms: C_1  and  C_2
REMARK    2  A    between atoms: C_2  and  C_3
REMARK    3  A    between atoms: C_2  and  N_14
REMARK    4  A    between atoms: C_3  and  N_4
REMARK    5  A    between atoms: N_14  and  C_15
REMARK    6  A    between atoms: N_14  and  C_21
REMARK    7  A    between atoms: C_15  and  C_16
REMARK    8  A    between atoms: C_16  and  P_17
REMARK    9  A    between atoms: P_17  and  O_19
REMARK   10  A    between atoms: P_17  and  O_20
REMARK   11  A    between atoms: C_21  and  C_22
REMARK   12  A    between atoms: C_22  and  O_24
REMARK                            x       y       z     vdW  Elec       q    Type
REMARK                         _______ _______ _______ _____ _____    ______ ____
ROOT
ATOM      1  C   UNL     1       2.381   4.205  17.831  0.00  0.00    +0.000 C 
ATOM      2  C   UNL     1       3.471   4.494  18.883  0.00  0.00    +0.000 C 
ENDROOT
BRANCH   2   3
ATOM      3  C   UNL     1       3.053   5.743  19.729  0.00  0.00    +0.000 C 
BRANCH   3   4
ATOM      4  N   UNL     1       2.677   6.992  19.102  0.00  0.00    +0.000 N 
ATOM      5  C   UNL     1       2.995   7.497  17.873  0.00  0.00    +0.000 A 
ATOM      6  N   UNL     1       2.362   8.624  17.611  0.00  0.00    +0.000 NA
ATOM      7  C   UNL     1       1.628   8.890  18.749  0.00  0.00    +0.000 A 
ATOM      8  C   UNL     1       0.763   9.937  19.108  0.00  0.00    +0.000 A 
ATOM      9  N   UNL     1       0.435  10.986  18.257  0.00  0.00    +0.000 N 
ATOM     10  N   UNL     1       0.232   9.939  20.353  0.00  0.00    +0.000 NA
ATOM     11  C   UNL     1       0.525   8.910  21.177  0.00  0.00    +0.000 A 
ATOM     12  N   UNL     1       1.302   7.836  20.931  0.00  0.00    +0.000 NA
ATOM     13  C   UNL     1       1.832   7.903  19.695  0.00  0.00    +0.000 A 
ATOM     14  H   UNL     1       1.086  11.097  17.490  0.00  0.00    +0.000 HD
ATOM     15  H   UNL     1       0.161  11.816  18.768  0.00  0.00    +0.000 HD
ENDBRANCH   3   4
ENDBRANCH   2   3
BRANCH   2  16
ATOM     16  N   UNL     1       4.854   4.517  18.319  0.00  0.00    +0.000 NA
BRANCH  16  17
ATOM     17  C   UNL     1       4.847   4.911  16.882  0.00  0.00    +0.000 C 
BRANCH  17  18
ATOM     18  C   UNL     1       5.517   3.912  15.945  0.00  0.00    +0.000 C 
BRANCH  18  19
ATOM     19  P   UNL     1       6.748   4.707  14.848  0.00  0.00    +0.000 P 
ATOM     20  O   UNL     1       6.099   4.078  13.613  0.00  0.00    +0.000 OA
BRANCH  19  21
ATOM     21  O   UNL     1       5.991   6.149  14.997  0.00  0.00    +0.000 OA
ATOM     22  H   UNL     1       5.455   6.337  14.202  0.00  0.00    +0.000 HD
ENDBRANCH  19  21
BRANCH  19  23
ATOM     23  O   UNL     1       7.911   5.457  13.811  0.00  0.00    +0.000 OA
ATOM     24  H   UNL     1       7.693   5.134  12.913  0.00  0.00    +0.000 HD
ENDBRANCH  19  23
ENDBRANCH  18  19
ENDBRANCH  17  18
ENDBRANCH  16  17
BRANCH  16  25
ATOM     25  C   UNL     1       5.807   5.344  19.117  0.00  0.00    +0.000 C 
BRANCH  25  26
ATOM     26  C   UNL     1       7.214   5.454  18.515  0.00  0.00    +0.000 C 
ATOM     27  O   UNL     1       7.737   6.499  18.152  0.00  0.00    +0.000 OA
BRANCH  26  28
ATOM     28  O   UNL     1       7.856   4.267  18.398  0.00  0.00    +0.000 OA
ATOM     29  H   UNL     1       8.755   4.316  18.023  0.00  0.00    +0.000 HD
ENDBRANCH  26  28
ENDBRANCH  25  26
ENDBRANCH  16  25
ENDBRANCH   2  16
TORSDOF 11
ENDMDL
MODEL 7
REMARK VINA RESULT:      -6.6      3.253      6.464
REMARK  Name = 
REMARK  12 active torsions:
REMARK  status: ('A' for Active; 'I' for Inactive)
REMARK    1  A    between atoms: C_1  and  C_2
REMARK    2  A    between atoms: C_2  and  C_3
REMARK    3  A    between atoms: C_2  and  N_14
REMARK    4  A    between atoms: C_3  and  N_4
REMARK    5  A    between atoms: N_14  and  C_15
REMARK    6  A    between atoms: N_14  and  C_21
REMARK    7  A    between atoms: C_15  and  C_16
REMARK    8  A    between atoms: C_16  and  P_17
REMARK    9  A    between atoms: P_17  and  O_19
REMARK   10  A    between atoms: P_17  and  O_20
REMARK   11  A    between atoms: C_21  and  C_22
REMARK   12  A    between atoms: C_22  and  O_24
REMARK                            x       y       z     vdW  Elec       q    Type
REMARK                         _______ _______ _______ _____ _____    ______ ____
ROOT
ATOM      1  C   UNL     1       2.703   2.089  17.742  0.00  0.00    +0.000 C 
ATOM      2  C   UNL     1       3.275   3.520  17.800  0.00  0.00    +0.000 C 
ENDROOT
BRANCH   2   3
ATOM      3  C   UNL     1       4.691   3.536  17.133  0.00  0.00    +0.000 C 
BRANCH   3   4
ATOM      4  N   UNL     1       5.369   4.776  16.821  0.00  0.00    +0.000 N 
ATOM      5  C   UNL     1       5.201   5.638  15.774  0.00  0.00    +0.000 A 
ATOM      6  N   UNL     1       5.931   6.730  15.898  0.00  0.00    +0.000 NA
ATOM      7  C   UNL     1       6.645   6.548  17.064  0.00  0.00    +0.000 A 
ATOM      8  C   UNL     1       7.597   7.332  17.736  0.00  0.00    +0.000 A 
ATOM      9  N   UNL     1       7.996   8.591  17.304  0.00  0.00    +0.000 N 
ATOM     10  N   UNL     1       8.172   6.834  18.856  0.00  0.00    +0.000 NA
ATOM     11  C   UNL     1       7.770   5.622  19.298  0.00  0.00    +0.000 A 
ATOM     12  N   UNL     1       6.843   4.802  18.764  0.00  0.00    +0.000 NA
ATOM     13  C   UNL     1       6.331   5.330  17.636  0.00  0.00    +0.000 A 
ATOM     14  H   UNL     1       7.780   8.767  16.330  0.00  0.00    +0.000 HD
ATOM     15  H   UNL     1       8.924   8.828  17.632  0.00  0.00    +0.000 HD
ENDBRANCH   3   4
ENDBRANCH   2   3
BRANCH   2  16
ATOM     16  N   UNL     1       3.180   4.147  19.152  0.00  0.00    +0.000 NA
BRANCH  16  17
ATOM     17  C   UNL     1       3.131   5.633  19.058  0.00  0.00    +0.000 C 
BRANCH  17  18
ATOM     18  C   UNL     1       1.988   6.180  18.209  0.00  0.00    +0.000 C 
BRANCH  18  19
ATOM     19  P   UNL     1       2.142   7.979  17.913  0.00  0.00    +0.000 P 
ATOM     20  O   UNL     1       1.850   8.278  19.385  0.00  0.00    +0.000 OA
BRANCH  19  21
ATOM     21  O   UNL     1       3.772   7.859  17.853  0.00  0.00    +0.000 OA
ATOM     22  H   UNL     1       4.044   6.921  17.811  0.00  0.00    +0.000 HD
ENDBRANCH  19  21
BRANCH  19  23
ATOM     23  O   UNL     1       2.287   9.680  17.633  0.00  0.00    +0.000 OA
ATOM     24  H   UNL     1       2.361   9.769  16.660  0.00  0.00    +0.000 HD
ENDBRANCH  19  23
ENDBRANCH  18  19
ENDBRANCH  17  18
ENDBRANCH  16  17
BRANCH  16  25
ATOM     25  C   UNL     1       2.061   3.606  19.980  0.00  0.00    +0.000 C 
BRANCH  25  26
ATOM     26  C   UNL     1       2.506   2.908  21.273  0.00  0.00    +0.000 C 
ATOM     27  O   UNL     1       1.812   2.791  22.274  0.00  0.00    +0.000 OA
BRANCH  26  28
ATOM     28  O   UNL     1       3.769   2.424  21.230  0.00  0.00    +0.000 OA
ATOM     29  H   UNL     1       4.052   1.928  22.021  0.00  0.00    +0.000 HD
ENDBRANCH  26  28
ENDBRANCH  25  26
ENDBRANCH  16  25
ENDBRANCH   2  16
TORSDOF 11
ENDMDL
MODEL 8
REMARK VINA RESULT:      -6.6      3.972      5.443
REMARK  Name = 
REMARK  12 active torsions:
REMARK  status: ('A' for Active; 'I' for Inactive)
REMARK    1  A    between atoms: C_1  and  C_2
REMARK    2  A    between atoms: C_2  and  C_3
REMARK    3  A    between atoms: C_2  and  N_14
REMARK    4  A    between atoms: C_3  and  N_4
REMARK    5  A    between atoms: N_14  and  C_15
REMARK    6  A    between atoms: N_14  and  C_21
REMARK    7  A    between atoms: C_15  and  C_16
REMARK    8  A    between atoms: C_16  and  P_17
REMARK    9  A    between atoms: P_17  and  O_19
REMARK   10  A    between atoms: P_17  and  O_20
REMARK   11  A    between atoms: C_21  and  C_22
REMARK   12  A    between atoms: C_22  and  O_24
REMARK                            x       y       z     vdW  Elec       q    Type
REMARK                         _______ _______ _______ _____ _____    ______ ____
ROOT
ATOM      1  C   UNL     1       1.464   4.687  18.112  0.00  0.00    +0.000 C 
ATOM      2  C   UNL     1       2.820   4.660  18.845  0.00  0.00    +0.000 C 
ENDROOT
BRANCH   2   3
ATOM      3  C   UNL     1       3.041   6.028  19.572  0.00  0.00    +0.000 C 
BRANCH   3   4
ATOM      4  N   UNL     1       2.647   7.282  18.964  0.00  0.00    +0.000 N 
ATOM      5  C   UNL     1       2.950   7.805  17.739  0.00  0.00    +0.000 A 
ATOM      6  N   UNL     1       2.304   8.930  17.497  0.00  0.00    +0.000 NA
ATOM      7  C   UNL     1       1.578   9.175  18.645  0.00  0.00    +0.000 A 
ATOM      8  C   UNL     1       0.707  10.208  19.025  0.00  0.00    +0.000 A 
ATOM      9  N   UNL     1       0.361  11.265  18.190  0.00  0.00    +0.000 N 
ATOM     10  N   UNL     1       0.186  10.190  20.274  0.00  0.00    +0.000 NA
ATOM     11  C   UNL     1       0.496   9.153  21.082  0.00  0.00    +0.000 A 
ATOM     12  N   UNL     1       1.281   8.090  20.816  0.00  0.00    +0.000 NA
ATOM     13  C   UNL     1       1.800   8.178  19.577  0.00  0.00    +0.000 A 
ATOM     14  H   UNL     1       1.004  11.392  17.418  0.00  0.00    +0.000 HD
ATOM     15  H   UNL     1       0.084  12.086  18.714  0.00  0.00    +0.000 HD
ENDBRANCH   3   4
ENDBRANCH   2   3
BRANCH   2  16
ATOM     16  N   UNL     1       3.950   4.179  17.994  0.00  0.00    +0.000 NA
BRANCH  16  17
ATOM     17  C   UNL     1       5.246   4.245  18.726  0.00  0.00    +0.000 C 
BRANCH  17  18
ATOM     18  C   UNL     1       6.463   4.496  17.842  0.00  0.00    +0.000 C 
BRANCH  18  19
ATOM     19  P   UNL     1       6.726   6.276  17.513  0.00  0.00    +0.000 P 
ATOM     20  O   UNL     1       7.878   6.325  18.520  0.00  0.00    +0.000 OA
BRANCH  19  21
ATOM     21  O   UNL     1       7.462   5.935  16.093  0.00  0.00    +0.000 OA
ATOM     22  H   UNL     1       7.324   6.660  15.453  0.00  0.00    +0.000 HD
ENDBRANCH  19  21
BRANCH  19  23
ATOM     23  O   UNL     1       6.975   7.960  17.202  0.00  0.00    +0.000 OA
ATOM     24  H   UNL     1       6.241   8.216  16.606  0.00  0.00    +0.000 HD
ENDBRANCH  19  23
ENDBRANCH  18  19
ENDBRANCH  17  18
ENDBRANCH  16  17
BRANCH  16  25
ATOM     25  C   UNL     1       3.714   2.828  17.403  0.00  0.00    +0.000 C 
BRANCH  25  26
ATOM     26  C   UNL     1       3.404   1.729  18.429  0.00  0.00    +0.000 C 
ATOM     27  O   UNL     1       2.391   1.683  19.114  0.00  0.00    +0.000 OA
BRANCH  26  28
ATOM     28  O   UNL     1       4.370   0.787  18.535  0.00  0.00    +0.000 OA
ATOM     29  H   UNL     1       4.718   0.649  19.436  0.00  0.00    +0.000 HD
ENDBRANCH  26  28
ENDBRANCH  25  26
ENDBRANCH  16  25
ENDBRANCH   2  16
TORSDOF 11
ENDMDL
MODEL 9
REMARK VINA RESULT:      -6.6      3.862      5.456
REMARK  Name = 
REMARK  12 active torsions:
REMARK  status: ('A' for Active; 'I' for Inactive)
REMARK    1  A    between atoms: C_1  and  C_2
REMARK    2  A    between atoms: C_2  and  C_3
REMARK    3  A    between atoms: C_2  and  N_14
REMARK    4  A    between atoms: C_3  and  N_4
REMARK    5  A    between atoms: N_14  and  C_15
REMARK    6  A    between atoms: N_14  and  C_21
REMARK    7  A    between atoms: C_15  and  C_16
REMARK    8  A    between atoms: C_16  and  P_17
REMARK    9  A    between atoms: P_17  and  O_19
REMARK   10  A    between atoms: P_17  and  O_20
REMARK   11  A    between atoms: C_21  and  C_22
REMARK   12  A    between atoms: C_22  and  O_24
REMARK                            x       y       z     vdW  Elec       q    Type
REMARK                         _______ _______ _______ _____ _____    ______ ____
ROOT
ATOM      1  C   UNL     1       2.822   3.871  19.138  0.00  0.00    +0.000 C 
ATOM      2  C   UNL     1       3.681   5.142  18.974  0.00  0.00    +0.000 C 
ENDROOT
BRANCH   2   3
ATOM      3  C   UNL     1       2.770   6.322  18.496  0.00  0.00    +0.000 C 
BRANCH   3   4
ATOM      4  N   UNL     1       2.080   7.177  19.437  0.00  0.00    +0.000 N 
ATOM      5  C   UNL     1       1.656   6.930  20.712  0.00  0.00    +0.000 A 
ATOM      6  N   UNL     1       1.164   8.005  21.298  0.00  0.00    +0.000 NA
ATOM      7  C   UNL     1       1.230   8.993  20.337  0.00  0.00    +0.000 A 
ATOM      8  C   UNL     1       0.856  10.346  20.328  0.00  0.00    +0.000 A 
ATOM      9  N   UNL     1       0.327  11.002  21.434  0.00  0.00    +0.000 N 
ATOM     10  N   UNL     1       0.998  11.050  19.180  0.00  0.00    +0.000 NA
ATOM     11  C   UNL     1       1.535  10.426  18.109  0.00  0.00    +0.000 A 
ATOM     12  N   UNL     1       1.968   9.153  18.012  0.00  0.00    +0.000 NA
ATOM     13  C   UNL     1       1.769   8.492  19.167  0.00  0.00    +0.000 A 
ATOM     14  H   UNL     1      -0.041  10.372  22.135  0.00  0.00    +0.000 HD
ATOM     15  H   UNL     1      -0.243  11.796  21.166  0.00  0.00    +0.000 HD
ENDBRANCH   3   4
ENDBRANCH   2   3
BRANCH   2  16
ATOM     16  N   UNL     1       4.932   4.920  18.190  0.00  0.00    +0.000 NA
BRANCH  16  17
ATOM     17  C   UNL     1       4.656   4.890  16.726  0.00  0.00    +0.000 C 
BRANCH  17  18
ATOM     18  C   UNL     1       5.477   3.870  15.944  0.00  0.00    +0.000 C 
BRANCH  18  19
ATOM     19  P   UNL     1       6.545   4.657  14.685  0.00  0.00    +0.000 P 
ATOM     20  O   UNL     1       5.923   6.027  14.967  0.00  0.00    +0.000 OA
BRANCH  19  21
ATOM     21  O   UNL     1       7.831   4.595  15.694  0.00  0.00    +0.000 OA
ATOM     22  H   UNL     1       8.665   4.646  15.188  0.00  0.00    +0.000 HD
ENDBRANCH  19  21
BRANCH  19  23
ATOM     23  O   UNL     1       7.555   5.401  13.493  0.00  0.00    +0.000 OA
ATOM     24  H   UNL     1       7.756   6.290  13.854  0.00  0.00    +0.000 HD
ENDBRANCH  19  23
ENDBRANCH  18  19
ENDBRANCH  17  18
ENDBRANCH  16  17
BRANCH  16  25
ATOM     25  C   UNL     1       6.024   5.880  18.530  0.00  0.00    +0.000 C 
BRANCH  25  26
ATOM     26  C   UNL     1       7.316   5.223  19.034  0.00  0.00    +0.000 C 
ATOM     27  O   UNL     1       8.001   4.445  18.383  0.00  0.00    +0.000 OA
BRANCH  26  28
ATOM     28  O   UNL     1       7.650   5.567  20.300  0.00  0.00    +0.000 OA
ATOM     29  H   UNL     1       8.301   6.290  20.376  0.00  0.00    +0.000 HD
ENDBRANCH  26  28
ENDBRANCH  25  26
ENDBRANCH  16  25
ENDBRANCH   2  16
TORSDOF 11
ENDMDL
