MODEL 1
REMARK VINA RESULT:      -7.5      0.000      0.000
REMARK  Name = 
REMARK  5 active torsions:
REMARK  status: ('A' for Active; 'I' for Inactive)
REMARK    1  A    between atoms: C_1  and  O_2
REMARK    2  A    between atoms: O_2  and  C_3
REMARK    3  A    between atoms: C_7  and  C_8
REMARK    4  A    between atoms: C_13  and  C_14
REMARK    5  A    between atoms: C_13  and  C_15
REMARK                            x       y       z     vdW  Elec       q    Type
REMARK                         _______ _______ _______ _____ _____    ______ ____
ROOT
ATOM      1  C   UNL     1       7.211   7.320  17.594  0.00  0.00    +0.000 A 
ATOM      2  C   UNL     1       5.971   7.238  16.968  0.00  0.00    +0.000 A 
ATOM      3  C   UNL     1       5.046   6.275  17.376  0.00  0.00    +0.000 A 
ATOM      4  F   UNL     1       3.861   6.260  16.746  0.00  0.00    +0.000 F 
ATOM      5  C   UNL     1       5.324   5.359  18.405  0.00  0.00    +0.000 A 
ATOM      6  C   UNL     1       6.587   5.440  19.010  0.00  0.00    +0.000 A 
ATOM      7  C   UNL     1       7.510   6.408  18.607  0.00  0.00    +0.000 A 
ATOM      8  F   UNL     1       8.702   6.450  19.223  0.00  0.00    +0.000 F 
ENDROOT
BRANCH   5   9
ATOM      9  C   UNL     1       4.348   4.313  18.804  0.00  0.00    +0.000 C 
ATOM     10  C   UNL     1       4.548   3.025  18.469  0.00  0.00    +0.000 C 
ATOM     11  C   UNL     1       3.575   1.971  18.839  0.00  0.00    +0.000 C 
ATOM     12  O   UNL     1       3.823   0.804  18.546  0.00  0.00    +0.000 OA
ATOM     13  C   UNL     1       2.336   2.353  19.616  0.00  0.00    +0.000 C 
ATOM     14  C   UNL     1       1.912   3.814  19.399  0.00  0.00    +0.000 C 
ATOM     15  C   UNL     1       0.827   4.177  20.429  0.00  0.00    +0.000 C 
ATOM     16  C   UNL     1       1.319   4.009  17.988  0.00  0.00    +0.000 C 
ATOM     17  C   UNL     1       3.129   4.741  19.596  0.00  0.00    +0.000 C 
ENDBRANCH   5   9
BRANCH   1  19
ATOM     18  C   UNL     1       8.171   9.440  17.996  0.00  0.00    +0.000 C 
ATOM     19  O   UNL     1       8.190   8.217  17.266  0.00  0.00    +0.000 OA
ENDBRANCH   1  19
TORSDOF 2
ENDMDL
MODEL 2
REMARK VINA RESULT:      -7.2      4.053      4.948
REMARK  Name = 
REMARK  5 active torsions:
REMARK  status: ('A' for Active; 'I' for Inactive)
REMARK    1  A    between atoms: C_1  and  O_2
REMARK    2  A    between atoms: O_2  and  C_3
REMARK    3  A    between atoms: C_7  and  C_8
REMARK    4  A    between atoms: C_13  and  C_14
REMARK    5  A    between atoms: C_13  and  C_15
REMARK                            x       y       z     vdW  Elec       q    Type
REMARK                         _______ _______ _______ _____ _____    ______ ____
ROOT
ATOM      1  C   UNL     1       0.953   9.655  19.745  0.00  0.00    +0.000 A 
ATOM      2  C   UNL     1       1.598   9.261  18.576  0.00  0.00    +0.000 A 
ATOM      3  C   UNL     1       2.191   7.999  18.500  0.00  0.00    +0.000 A 
ATOM      4  F   UNL     1       2.780   7.671  17.339  0.00  0.00    +0.000 F 
ATOM      5  C   UNL     1       2.176   7.097  19.577  0.00  0.00    +0.000 A 
ATOM      6  C   UNL     1       1.542   7.520  20.756  0.00  0.00    +0.000 A 
ATOM      7  C   UNL     1       0.943   8.779  20.831  0.00  0.00    +0.000 A 
ATOM      8  F   UNL     1       0.342   9.132  21.978  0.00  0.00    +0.000 F 
ENDROOT
BRANCH   5   9
ATOM      9  C   UNL     1       2.846   5.774  19.498  0.00  0.00    +0.000 C 
ATOM     10  C   UNL     1       4.182   5.689  19.361  0.00  0.00    +0.000 C 
ATOM     11  C   UNL     1       4.865   4.378  19.259  0.00  0.00    +0.000 C 
ATOM     12  O   UNL     1       6.090   4.351  19.177  0.00  0.00    +0.000 OA
ATOM     13  C   UNL     1       4.041   3.112  19.317  0.00  0.00    +0.000 C 
ATOM     14  C   UNL     1       2.589   3.313  18.854  0.00  0.00    +0.000 C 
ATOM     15  C   UNL     1       1.774   2.056  19.209  0.00  0.00    +0.000 C 
ATOM     16  C   UNL     1       2.522   3.513  17.327  0.00  0.00    +0.000 C 
ATOM     17  C   UNL     1       1.980   4.533  19.577  0.00  0.00    +0.000 C 
ENDBRANCH   5   9
BRANCH   1  19
ATOM     18  C   UNL     1       1.225  11.950  20.229  0.00  0.00    +0.000 C 
ATOM     19  O   UNL     1       0.350  10.868  19.929  0.00  0.00    +0.000 OA
ENDBRANCH   1  19
TORSDOF 2
ENDMDL
MODEL 3
REMARK VINA RESULT:      -7.1      3.963      4.761
REMARK  Name = 
REMARK  5 active torsions:
REMARK  status: ('A' for Active; 'I' for Inactive)
REMARK    1  A    between atoms: C_1  and  O_2
REMARK    2  A    between atoms: O_2  and  C_3
REMARK    3  A    between atoms: C_7  and  C_8
REMARK    4  A    between atoms: C_13  and  C_14
REMARK    5  A    between atoms: C_13  and  C_15
REMARK                            x       y       z     vdW  Elec       q    Type
REMARK                         _______ _______ _______ _____ _____    ______ ____
ROOT
ATOM      1  C   UNL     1       1.221   9.976  19.002  0.00  0.00    +0.000 A 
ATOM      2  C   UNL     1       1.896   9.279  18.004  0.00  0.00    +0.000 A 
ATOM      3  C   UNL     1       2.344   7.978  18.245  0.00  0.00    +0.000 A 
ATOM      4  F   UNL     1       2.970   7.353  17.236  0.00  0.00    +0.000 F 
ATOM      5  C   UNL     1       2.151   7.335  19.478  0.00  0.00    +0.000 A 
ATOM      6  C   UNL     1       1.489   8.061  20.481  0.00  0.00    +0.000 A 
ATOM      7  C   UNL     1       1.035   9.359  20.240  0.00  0.00    +0.000 A 
ATOM      8  F   UNL     1       0.400  10.007  21.229  0.00  0.00    +0.000 F 
ENDROOT
BRANCH   5   9
ATOM      9  C   UNL     1       2.668   5.966  19.736  0.00  0.00    +0.000 C 
ATOM     10  C   UNL     1       3.850   5.573  19.226  0.00  0.00    +0.000 C 
ATOM     11  C   UNL     1       4.371   4.205  19.454  0.00  0.00    +0.000 C 
ATOM     12  O   UNL     1       5.474   3.907  19.003  0.00  0.00    +0.000 OA
ATOM     13  C   UNL     1       3.559   3.236  20.282  0.00  0.00    +0.000 C 
ATOM     14  C   UNL     1       2.053   3.543  20.269  0.00  0.00    +0.000 C 
ATOM     15  C   UNL     1       1.359   2.687  21.344  0.00  0.00    +0.000 C 
ATOM     16  C   UNL     1       1.433   3.189  18.901  0.00  0.00    +0.000 C 
ATOM     17  C   UNL     1       1.826   5.036  20.584  0.00  0.00    +0.000 C 
ENDBRANCH   5   9
BRANCH   1  19
ATOM     18  C   UNL     1       1.722  12.283  19.018  0.00  0.00    +0.000 C 
ATOM     19  O   UNL     1       0.750  11.253  18.875  0.00  0.00    +0.000 OA
ENDBRANCH   1  19
TORSDOF 2
ENDMDL
MODEL 4
REMARK VINA RESULT:      -7.1      3.922      5.020
REMARK  Name = 
REMARK  5 active torsions:
REMARK  status: ('A' for Active; 'I' for Inactive)
REMARK    1  A    between atoms: C_1  and  O_2
REMARK    2  A    between atoms: O_2  and  C_3
REMARK    3  A    between atoms: C_7  and  C_8
REMARK    4  A    between atoms: C_13  and  C_14
REMARK    5  A    between atoms: C_13  and  C_15
REMARK                            x       y       z     vdW  Elec       q    Type
REMARK                         _______ _______ _______ _____ _____    ______ ____
ROOT
ATOM      1  C   UNL     1       1.154   9.709  19.381  0.00  0.00    +0.000 A 
ATOM      2  C   UNL     1       1.032   8.877  20.490  0.00  0.00    +0.000 A 
ATOM      3  C   UNL     1       1.607   7.604  20.473  0.00  0.00    +0.000 A 
ATOM      4  F   UNL     1       1.471   6.859  21.580  0.00  0.00    +0.000 F 
ATOM      5  C   UNL     1       2.306   7.113  19.358  0.00  0.00    +0.000 A 
ATOM      6  C   UNL     1       2.400   7.955  18.239  0.00  0.00    +0.000 A 
ATOM      7  C   UNL     1       1.831   9.231  18.258  0.00  0.00    +0.000 A 
ATOM      8  F   UNL     1       1.956  10.001  17.166  0.00  0.00    +0.000 F 
ENDROOT
BRANCH   5   9
ATOM      9  C   UNL     1       2.878   5.742  19.336  0.00  0.00    +0.000 C 
ATOM     10  C   UNL     1       4.211   5.557  19.289  0.00  0.00    +0.000 C 
ATOM     11  C   UNL     1       4.799   4.198  19.245  0.00  0.00    +0.000 C 
ATOM     12  O   UNL     1       6.021   4.079  19.245  0.00  0.00    +0.000 OA
ATOM     13  C   UNL     1       3.881   2.997  19.261  0.00  0.00    +0.000 C 
ATOM     14  C   UNL     1       2.481   3.298  18.702  0.00  0.00    +0.000 C 
ATOM     15  C   UNL     1       1.553   2.110  19.014  0.00  0.00    +0.000 C 
ATOM     16  C   UNL     1       2.529   3.480  17.171  0.00  0.00    +0.000 C 
ATOM     17  C   UNL     1       1.920   4.570  19.370  0.00  0.00    +0.000 C 
ENDBRANCH   5   9
BRANCH   1  19
ATOM     18  C   UNL     1      -0.743  11.028  18.896  0.00  0.00    +0.000 C 
ATOM     19  O   UNL     1       0.624  10.966  19.289  0.00  0.00    +0.000 OA
ENDBRANCH   1  19
TORSDOF 2
ENDMDL
MODEL 5
REMARK VINA RESULT:      -7.0      3.913      5.496
REMARK  Name = 
REMARK  5 active torsions:
REMARK  status: ('A' for Active; 'I' for Inactive)
REMARK    1  A    between atoms: C_1  and  O_2
REMARK    2  A    between atoms: O_2  and  C_3
REMARK    3  A    between atoms: C_7  and  C_8
REMARK    4  A    between atoms: C_13  and  C_14
REMARK    5  A    between atoms: C_13  and  C_15
REMARK                            x       y       z     vdW  Elec       q    Type
REMARK                         _______ _______ _______ _____ _____    ______ ____
ROOT
ATOM      1  C   UNL     1       1.153   9.470  20.004  0.00  0.00    +0.000 A 
ATOM      2  C   UNL     1       1.343   8.282  20.704  0.00  0.00    +0.000 A 
ATOM      3  C   UNL     1       1.946   7.191  20.074  0.00  0.00    +0.000 A 
ATOM      4  F   UNL     1       2.118   6.081  20.809  0.00  0.00    +0.000 F 
ATOM      5  C   UNL     1       2.366   7.237  18.734  0.00  0.00    +0.000 A 
ATOM      6  C   UNL     1       2.145   8.435  18.036  0.00  0.00    +0.000 A 
ATOM      7  C   UNL     1       1.549   9.529  18.667  0.00  0.00    +0.000 A 
ATOM      8  F   UNL     1       1.368  10.654  17.958  0.00  0.00    +0.000 F 
ENDROOT
BRANCH   5   9
ATOM      9  C   UNL     1       2.969   6.057  18.063  0.00  0.00    +0.000 C 
ATOM     10  C   UNL     1       2.280   4.906  17.951  0.00  0.00    +0.000 C 
ATOM     11  C   UNL     1       2.873   3.712  17.305  0.00  0.00    +0.000 C 
ATOM     12  O   UNL     1       2.191   2.698  17.190  0.00  0.00    +0.000 OA
ATOM     13  C   UNL     1       4.279   3.795  16.754  0.00  0.00    +0.000 C 
ATOM     14  C   UNL     1       5.142   4.857  17.455  0.00  0.00    +0.000 C 
ATOM     15  C   UNL     1       6.441   5.053  16.652  0.00  0.00    +0.000 C 
ATOM     16  C   UNL     1       5.523   4.401  18.879  0.00  0.00    +0.000 C 
ATOM     17  C   UNL     1       4.373   6.193  17.513  0.00  0.00    +0.000 C 
ENDBRANCH   5   9
BRANCH   1  19
ATOM     18  C   UNL     1      -0.814  10.760  20.214  0.00  0.00    +0.000 C 
ATOM     19  O   UNL     1       0.567  10.592  20.521  0.00  0.00    +0.000 OA
ENDBRANCH   1  19
TORSDOF 2
ENDMDL
MODEL 6
REMARK VINA RESULT:      -7.0      1.024      1.131
REMARK  Name = 
REMARK  5 active torsions:
REMARK  status: ('A' for Active; 'I' for Inactive)
REMARK    1  A    between atoms: C_1  and  O_2
REMARK    2  A    between atoms: O_2  and  C_3
REMARK    3  A    between atoms: C_7  and  C_8
REMARK    4  A    between atoms: C_13  and  C_14
REMARK    5  A    between atoms: C_13  and  C_15
REMARK                            x       y       z     vdW  Elec       q    Type
REMARK                         _______ _______ _______ _____ _____    ______ ____
ROOT
ATOM      1  C   UNL     1       7.073   7.101  17.601  0.00  0.00    +0.000 A 
ATOM      2  C   UNL     1       5.804   7.160  17.032  0.00  0.00    +0.000 A 
ATOM      3  C   UNL     1       4.829   6.234  17.407  0.00  0.00    +0.000 A 
ATOM      4  F   UNL     1       3.620   6.356  16.837  0.00  0.00    +0.000 F 
ATOM      5  C   UNL     1       5.082   5.217  18.344  0.00  0.00    +0.000 A 
ATOM      6  C   UNL     1       6.373   5.158  18.890  0.00  0.00    +0.000 A 
ATOM      7  C   UNL     1       7.347   6.088  18.520  0.00  0.00    +0.000 A 
ATOM      8  F   UNL     1       8.564   5.994  19.078  0.00  0.00    +0.000 F 
ENDROOT
BRANCH   5   9
ATOM      9  C   UNL     1       4.049   4.213  18.705  0.00  0.00    +0.000 C 
ATOM     10  C   UNL     1       3.435   3.488  17.752  0.00  0.00    +0.000 C 
ATOM     11  C   UNL     1       2.386   2.498  18.091  0.00  0.00    +0.000 C 
ATOM     12  O   UNL     1       1.885   1.831  17.190  0.00  0.00    +0.000 OA
ATOM     13  C   UNL     1       2.007   2.295  19.540  0.00  0.00    +0.000 C 
ATOM     14  C   UNL     1       2.276   3.530  20.415  0.00  0.00    +0.000 C 
ATOM     15  C   UNL     1       2.121   3.137  21.896  0.00  0.00    +0.000 C 
ATOM     16  C   UNL     1       1.261   4.651  20.109  0.00  0.00    +0.000 C 
ATOM     17  C   UNL     1       3.713   4.034  20.171  0.00  0.00    +0.000 C 
ENDBRANCH   5   9
BRANCH   1  19
ATOM     18  C   UNL     1       8.074   9.208  17.965  0.00  0.00    +0.000 C 
ATOM     19  O   UNL     1       8.101   7.951  17.298  0.00  0.00    +0.000 OA
ENDBRANCH   1  19
TORSDOF 2
ENDMDL
MODEL 7
REMARK VINA RESULT:      -6.9      4.184      5.575
REMARK  Name = 
REMARK  5 active torsions:
REMARK  status: ('A' for Active; 'I' for Inactive)
REMARK    1  A    between atoms: C_1  and  O_2
REMARK    2  A    between atoms: O_2  and  C_3
REMARK    3  A    between atoms: C_7  and  C_8
REMARK    4  A    between atoms: C_13  and  C_14
REMARK    5  A    between atoms: C_13  and  C_15
REMARK                            x       y       z     vdW  Elec       q    Type
REMARK                         _______ _______ _______ _____ _____    ______ ____
ROOT
ATOM      1  C   UNL     1       0.942   9.744  20.316  0.00  0.00    +0.000 A 
ATOM      2  C   UNL     1       1.249   9.846  18.962  0.00  0.00    +0.000 A 
ATOM      3  C   UNL     1       1.845   8.772  18.300  0.00  0.00    +0.000 A 
ATOM      4  F   UNL     1       2.098   8.926  16.991  0.00  0.00    +0.000 F 
ATOM      5  C   UNL     1       2.166   7.571  18.956  0.00  0.00    +0.000 A 
ATOM      6  C   UNL     1       1.871   7.493  20.326  0.00  0.00    +0.000 A 
ATOM      7  C   UNL     1       1.269   8.565  20.988  0.00  0.00    +0.000 A 
ATOM      8  F   UNL     1       0.999   8.437  22.297  0.00  0.00    +0.000 F 
ENDROOT
BRANCH   5   9
ATOM      9  C   UNL     1       2.836   6.450  18.250  0.00  0.00    +0.000 C 
ATOM     10  C   UNL     1       2.211   5.268  18.092  0.00  0.00    +0.000 C 
ATOM     11  C   UNL     1       2.872   4.131  17.410  0.00  0.00    +0.000 C 
ATOM     12  O   UNL     1       2.246   3.087  17.254  0.00  0.00    +0.000 OA
ATOM     13  C   UNL     1       4.275   4.308  16.875  0.00  0.00    +0.000 C 
ATOM     14  C   UNL     1       5.075   5.388  17.621  0.00  0.00    +0.000 C 
ATOM     15  C   UNL     1       6.367   5.682  16.837  0.00  0.00    +0.000 C 
ATOM     16  C   UNL     1       5.469   4.904  19.031  0.00  0.00    +0.000 C 
ATOM     17  C   UNL     1       4.235   6.679  17.718  0.00  0.00    +0.000 C 
ENDBRANCH   5   9
BRANCH   1  19
ATOM     18  C   UNL     1      -0.863  11.247  20.558  0.00  0.00    +0.000 C 
ATOM     19  O   UNL     1       0.368  10.737  21.060  0.00  0.00    +0.000 OA
ENDBRANCH   1  19
TORSDOF 2
ENDMDL
MODEL 8
REMARK VINA RESULT:      -6.9      2.642      3.349
REMARK  Name = 
REMARK  5 active torsions:
REMARK  status: ('A' for Active; 'I' for Inactive)
REMARK    1  A    between atoms: C_1  and  O_2
REMARK    2  A    between atoms: O_2  and  C_3
REMARK    3  A    between atoms: C_7  and  C_8
REMARK    4  A    between atoms: C_13  and  C_14
REMARK    5  A    between atoms: C_13  and  C_15
REMARK                            x       y       z     vdW  Elec       q    Type
REMARK                         _______ _______ _______ _____ _____    ______ ____
ROOT
ATOM      1  C   UNL     1       6.611   5.290  15.788  0.00  0.00    +0.000 A 
ATOM      2  C   UNL     1       5.604   4.346  15.614  0.00  0.00    +0.000 A 
ATOM      3  C   UNL     1       4.518   4.316  16.492  0.00  0.00    +0.000 A 
ATOM      4  F   UNL     1       3.570   3.395  16.258  0.00  0.00    +0.000 F 
ATOM      5  C   UNL     1       4.403   5.207  17.572  0.00  0.00    +0.000 A 
ATOM      6  C   UNL     1       5.439   6.137  17.747  0.00  0.00    +0.000 A 
ATOM      7  C   UNL     1       6.522   6.172  16.865  0.00  0.00    +0.000 A 
ATOM      8  F   UNL     1       7.482   7.087  17.071  0.00  0.00    +0.000 F 
ENDROOT
BRANCH   5   9
ATOM      9  C   UNL     1       3.263   5.140  18.523  0.00  0.00    +0.000 C 
ATOM     10  C   UNL     1       3.001   6.167  19.352  0.00  0.00    +0.000 C 
ATOM     11  C   UNL     1       1.883   6.109  20.322  0.00  0.00    +0.000 C 
ATOM     12  O   UNL     1       1.659   7.087  21.029  0.00  0.00    +0.000 OA
ATOM     13  C   UNL     1       1.016   4.872  20.373  0.00  0.00    +0.000 C 
ATOM     14  C   UNL     1       1.739   3.606  19.885  0.00  0.00    +0.000 C 
ATOM     15  C   UNL     1       0.706   2.476  19.715  0.00  0.00    +0.000 C 
ATOM     16  C   UNL     1       2.790   3.143  20.914  0.00  0.00    +0.000 C 
ATOM     17  C   UNL     1       2.413   3.886  18.526  0.00  0.00    +0.000 C 
ENDBRANCH   5   9
BRANCH   1  19
ATOM     18  C   UNL     1       7.541   5.013  13.636  0.00  0.00    +0.000 C 
ATOM     19  O   UNL     1       7.719   5.400  14.994  0.00  0.00    +0.000 OA
ENDBRANCH   1  19
TORSDOF 2
ENDMDL
MODEL 9
REMARK VINA RESULT:      -6.9      2.756      3.644
REMARK  Name = 
REMARK  5 active torsions:
REMARK  status: ('A' for Active; 'I' for Inactive)
REMARK    1  A    between atoms: C_1  and  O_2
REMARK    2  A    between atoms: O_2  and  C_3
REMARK    3  A    between atoms: C_7  and  C_8
REMARK    4  A    between atoms: C_13  and  C_14
REMARK    5  A    between atoms: C_13  and  C_15
REMARK                            x       y       z     vdW  Elec       q    Type
REMARK                         _______ _______ _______ _____ _____    ______ ____
ROOT
ATOM      1  C   UNL     1       6.528   5.447  16.009  0.00  0.00    +0.000 A 
ATOM      2  C   UNL     1       6.582   4.566  17.084  0.00  0.00    +0.000 A 
ATOM      3  C   UNL     1       5.478   4.431  17.929  0.00  0.00    +0.000 A 
ATOM      4  F   UNL     1       5.586   3.550  18.936  0.00  0.00    +0.000 F 
ATOM      5  C   UNL     1       4.298   5.169  17.745  0.00  0.00    +0.000 A 
ATOM      6  C   UNL     1       4.269   6.071  16.669  0.00  0.00    +0.000 A 
ATOM      7  C   UNL     1       5.370   6.202  15.819  0.00  0.00    +0.000 A 
ATOM      8  F   UNL     1       5.289   7.071  14.800  0.00  0.00    +0.000 F 
ENDROOT
BRANCH   5   9
ATOM      9  C   UNL     1       3.146   5.047  18.674  0.00  0.00    +0.000 C 
ATOM     10  C   UNL     1       2.857   6.034  19.542  0.00  0.00    +0.000 C 
ATOM     11  C   UNL     1       1.725   5.921  20.491  0.00  0.00    +0.000 C 
ATOM     12  O   UNL     1       1.476   6.865  21.235  0.00  0.00    +0.000 OA
ATOM     13  C   UNL     1       0.875   4.671  20.476  0.00  0.00    +0.000 C 
ATOM     14  C   UNL     1       1.622   3.436  19.947  0.00  0.00    +0.000 C 
ATOM     15  C   UNL     1       0.608   2.302  19.713  0.00  0.00    +0.000 C 
ATOM     16  C   UNL     1       2.664   2.944  20.972  0.00  0.00    +0.000 C 
ATOM     17  C   UNL     1       2.313   3.783  18.612  0.00  0.00    +0.000 C 
ENDBRANCH   5   9
BRANCH   1  19
ATOM     18  C   UNL     1       7.456   4.962  13.892  0.00  0.00    +0.000 C 
ATOM     19  O   UNL     1       7.552   5.662  15.128  0.00  0.00    +0.000 OA
ENDBRANCH   1  19
TORSDOF 2
ENDMDL
