MODEL 1
REMARK VINA RESULT:      -7.1      0.000      0.000
REMARK  Name = 
REMARK  3 active torsions:
REMARK  status: ('A' for Active; 'I' for Inactive)
REMARK    1  A    between atoms: C_4  and  C_5
REMARK    2  A    between atoms: C_5  and  S_6
REMARK    3  A    between atoms: S_6  and  C_7
REMARK                            x       y       z     vdW  Elec       q    Type
REMARK                         _______ _______ _______ _____ _____    ______ ____
ROOT
ATOM      1  C   UNL     1       7.360   4.585  17.825  0.00  0.00    +0.000 C 
ENDROOT
BRANCH   1   5
ATOM      2  O   UNL     1       5.720   3.848  13.322  0.00  0.00    +0.000 OA
ATOM      3  C   UNL     1       6.365   4.290  14.254  0.00  0.00    +0.000 A 
ATOM      4  C   UNL     1       6.293   3.812  15.650  0.00  0.00    +0.000 A 
ATOM      5  C   UNL     1       7.062   4.661  16.352  0.00  0.00    +0.000 A 
ATOM      6  N   UNL     1       7.579   5.680  15.556  0.00  0.00    +0.000 N 
ATOM      7  N   UNL     1       7.279   5.329  14.240  0.00  0.00    +0.000 N 
ATOM      8  H   UNL     1       8.571   5.852  15.749  0.00  0.00    +0.000 HD
ATOM      9  H   UNL     1       7.285   6.015  13.494  0.00  0.00    +0.000 HD
ENDBRANCH   1   5
BRANCH   1  10
ATOM     10  S   UNL     1       6.232   5.674  18.756  0.00  0.00    +0.000 S 
BRANCH  10  11
ATOM     11  C   UNL     1       4.583   4.945  18.680  0.00  0.00    +0.000 A 
ATOM     12  C   UNL     1       4.596   3.579  19.044  0.00  0.00    +0.000 A 
ATOM     13  C   UNL     1       3.436   2.795  19.058  0.00  0.00    +0.000 A 
ATOM     14  C   UNL     1       2.224   3.368  18.703  0.00  0.00    +0.000 A 
ATOM     15 CL   UNL     1       0.790   2.421  18.711  0.00  0.00    +0.000 Cl
ATOM     16  C   UNL     1       2.171   4.708  18.341  0.00  0.00    +0.000 A 
ATOM     17  C   UNL     1       3.337   5.498  18.328  0.00  0.00    +0.000 A 
ATOM     18 CL   UNL     1       3.068   7.135  17.855  0.00  0.00    +0.000 Cl
ENDBRANCH  10  11
ENDBRANCH   1  10
TORSDOF 3
ENDMDL
MODEL 2
REMARK VINA RESULT:      -6.7      1.838      1.933
REMARK  Name = 
REMARK  3 active torsions:
REMARK  status: ('A' for Active; 'I' for Inactive)
REMARK    1  A    between atoms: C_4  and  C_5
REMARK    2  A    between atoms: C_5  and  S_6
REMARK    3  A    between atoms: S_6  and  C_7
REMARK                            x       y       z     vdW  Elec       q    Type
REMARK                         _______ _______ _______ _____ _____    ______ ____
ROOT
ATOM      1  C   UNL     1       5.627   6.553  17.598  0.00  0.00    +0.000 C 
ENDROOT
BRANCH   1   5
ATOM      2  O   UNL     1       6.066   3.881  13.576  0.00  0.00    +0.000 OA
ATOM      3  C   UNL     1       6.351   4.579  14.530  0.00  0.00    +0.000 A 
ATOM      4  C   UNL     1       5.414   5.010  15.588  0.00  0.00    +0.000 A 
ATOM      5  C   UNL     1       6.115   5.863  16.353  0.00  0.00    +0.000 A 
ATOM      6  N   UNL     1       7.400   6.074  15.858  0.00  0.00    +0.000 N 
ATOM      7  N   UNL     1       7.578   5.140  14.839  0.00  0.00    +0.000 N 
ATOM      8  H   UNL     1       8.106   6.052  16.602  0.00  0.00    +0.000 HD
ATOM      9  H   UNL     1       8.297   5.255  14.134  0.00  0.00    +0.000 HD
ENDBRANCH   1   5
BRANCH   1  10
ATOM     10  S   UNL     1       3.822   6.800  17.520  0.00  0.00    +0.000 S 
BRANCH  10  11
ATOM     11  C   UNL     1       3.078   5.799  18.822  0.00  0.00    +0.000 A 
ATOM     12  C   UNL     1       3.378   4.425  18.667  0.00  0.00    +0.000 A 
ATOM     13  C   UNL     1       2.908   3.449  19.553  0.00  0.00    +0.000 A 
ATOM     14  C   UNL     1       2.117   3.830  20.627  0.00  0.00    +0.000 A 
ATOM     15 CL   UNL     1       1.528   2.645  21.724  0.00  0.00    +0.000 Cl
ATOM     16  C   UNL     1       1.801   5.169  20.814  0.00  0.00    +0.000 A 
ATOM     17  C   UNL     1       2.275   6.153  19.924  0.00  0.00    +0.000 A 
ATOM     18 CL   UNL     1       1.780   7.756  20.325  0.00  0.00    +0.000 Cl
ENDBRANCH  10  11
ENDBRANCH   1  10
TORSDOF 3
ENDMDL
MODEL 3
REMARK VINA RESULT:      -6.7      2.324      3.350
REMARK  Name = 
REMARK  3 active torsions:
REMARK  status: ('A' for Active; 'I' for Inactive)
REMARK    1  A    between atoms: C_4  and  C_5
REMARK    2  A    between atoms: C_5  and  S_6
REMARK    3  A    between atoms: S_6  and  C_7
REMARK                            x       y       z     vdW  Elec       q    Type
REMARK                         _______ _______ _______ _____ _____    ______ ____
ROOT
ATOM      1  C   UNL     1       4.055   3.626  16.833  0.00  0.00    +0.000 C 
ENDROOT
BRANCH   1   5
ATOM      2  O   UNL     1       7.744   5.352  14.202  0.00  0.00    +0.000 OA
ATOM      3  C   UNL     1       7.121   4.842  15.113  0.00  0.00    +0.000 A 
ATOM      4  C   UNL     1       5.676   4.532  15.095  0.00  0.00    +0.000 A 
ATOM      5  C   UNL     1       5.392   4.108  16.338  0.00  0.00    +0.000 A 
ATOM      6  N   UNL     1       6.501   4.171  17.179  0.00  0.00    +0.000 N 
ATOM      7  N   UNL     1       7.590   4.457  16.357  0.00  0.00    +0.000 N 
ATOM      8  H   UNL     1       6.595   3.327  17.754  0.00  0.00    +0.000 HD
ATOM      9  H   UNL     1       8.454   4.833  16.732  0.00  0.00    +0.000 HD
ENDBRANCH   1   5
BRANCH   1  10
ATOM     10  S   UNL     1       4.078   3.447  18.648  0.00  0.00    +0.000 S 
BRANCH  10  11
ATOM     11  C   UNL     1       3.157   4.833  19.344  0.00  0.00    +0.000 A 
ATOM     12  C   UNL     1       3.267   5.993  18.543  0.00  0.00    +0.000 A 
ATOM     13  C   UNL     1       2.643   7.200  18.880  0.00  0.00    +0.000 A 
ATOM     14  C   UNL     1       1.886   7.273  20.038  0.00  0.00    +0.000 A 
ATOM     15 CL   UNL     1       1.114   8.747  20.470  0.00  0.00    +0.000 Cl
ATOM     16  C   UNL     1       1.752   6.154  20.851  0.00  0.00    +0.000 A 
ATOM     17  C   UNL     1       2.378   4.939  20.513  0.00  0.00    +0.000 A 
ATOM     18 CL   UNL     1       2.092   3.667  21.642  0.00  0.00    +0.000 Cl
ENDBRANCH  10  11
ENDBRANCH   1  10
TORSDOF 3
ENDMDL
MODEL 4
REMARK VINA RESULT:      -6.7      1.819      2.243
REMARK  Name = 
REMARK  3 active torsions:
REMARK  status: ('A' for Active; 'I' for Inactive)
REMARK    1  A    between atoms: C_4  and  C_5
REMARK    2  A    between atoms: C_5  and  S_6
REMARK    3  A    between atoms: S_6  and  C_7
REMARK                            x       y       z     vdW  Elec       q    Type
REMARK                         _______ _______ _______ _____ _____    ______ ____
ROOT
ATOM      1  C   UNL     1       6.096   4.732  17.479  0.00  0.00    +0.000 C 
ENDROOT
BRANCH   1   5
ATOM      2  O   UNL     1       6.476   3.789  12.738  0.00  0.00    +0.000 OA
ATOM      3  C   UNL     1       6.685   4.267  13.836  0.00  0.00    +0.000 A 
ATOM      4  C   UNL     1       6.014   3.865  15.090  0.00  0.00    +0.000 A 
ATOM      5  C   UNL     1       6.449   4.735  16.016  0.00  0.00    +0.000 A 
ATOM      6  N   UNL     1       7.292   5.701  15.472  0.00  0.00    +0.000 N 
ATOM      7  N   UNL     1       7.561   5.288  14.168  0.00  0.00    +0.000 N 
ATOM      8  H   UNL     1       8.117   5.866  16.059  0.00  0.00    +0.000 HD
ATOM      9  H   UNL     1       7.907   5.932  13.467  0.00  0.00    +0.000 HD
ENDBRANCH   1   5
BRANCH   1  10
ATOM     10  S   UNL     1       4.476   5.529  17.741  0.00  0.00    +0.000 S 
BRANCH  10  11
ATOM     11  C   UNL     1       3.530   4.483  18.865  0.00  0.00    +0.000 A 
ATOM     12  C   UNL     1       3.031   5.214  19.968  0.00  0.00    +0.000 A 
ATOM     13  C   UNL     1       2.269   4.618  20.980  0.00  0.00    +0.000 A 
ATOM     14  C   UNL     1       1.985   3.263  20.909  0.00  0.00    +0.000 A 
ATOM     15 CL   UNL     1       1.054   2.513  22.144  0.00  0.00    +0.000 Cl
ATOM     16  C   UNL     1       2.457   2.511  19.841  0.00  0.00    +0.000 A 
ATOM     17  C   UNL     1       3.222   3.109  18.821  0.00  0.00    +0.000 A 
ATOM     18 CL   UNL     1       3.711   2.015  17.580  0.00  0.00    +0.000 Cl
ENDBRANCH  10  11
ENDBRANCH   1  10
TORSDOF 3
ENDMDL
MODEL 5
REMARK VINA RESULT:      -6.6      1.582      1.756
REMARK  Name = 
REMARK  3 active torsions:
REMARK  status: ('A' for Active; 'I' for Inactive)
REMARK    1  A    between atoms: C_4  and  C_5
REMARK    2  A    between atoms: C_5  and  S_6
REMARK    3  A    between atoms: S_6  and  C_7
REMARK                            x       y       z     vdW  Elec       q    Type
REMARK                         _______ _______ _______ _____ _____    ______ ____
ROOT
ATOM      1  C   UNL     1       5.416   4.075  16.449  0.00  0.00    +0.000 C 
ENDROOT
BRANCH   1   5
ATOM      2  O   UNL     1       7.405   4.592  12.058  0.00  0.00    +0.000 OA
ATOM      3  C   UNL     1       7.214   4.699  13.254  0.00  0.00    +0.000 A 
ATOM      4  C   UNL     1       6.177   3.982  14.025  0.00  0.00    +0.000 A 
ATOM      5  C   UNL     1       6.240   4.498  15.264  0.00  0.00    +0.000 A 
ATOM      6  N   UNL     1       7.178   5.524  15.356  0.00  0.00    +0.000 N 
ATOM      7  N   UNL     1       7.885   5.508  14.155  0.00  0.00    +0.000 N 
ATOM      8  H   UNL     1       7.750   5.445  16.203  0.00  0.00    +0.000 HD
ATOM      9  H   UNL     1       8.421   6.310  13.844  0.00  0.00    +0.000 HD
ENDBRANCH   1   5
BRANCH   1  10
ATOM     10  S   UNL     1       4.478   5.493  17.107  0.00  0.00    +0.000 S 
BRANCH  10  11
ATOM     11  C   UNL     1       3.503   4.901  18.505  0.00  0.00    +0.000 A 
ATOM     12  C   UNL     1       3.623   3.502  18.675  0.00  0.00    +0.000 A 
ATOM     13  C   UNL     1       2.954   2.810  19.691  0.00  0.00    +0.000 A 
ATOM     14  C   UNL     1       2.142   3.509  20.570  0.00  0.00    +0.000 A 
ATOM     15 CL   UNL     1       1.311   2.676  21.823  0.00  0.00    +0.000 Cl
ATOM     16  C   UNL     1       1.999   4.885  20.436  0.00  0.00    +0.000 A 
ATOM     17  C   UNL     1       2.672   5.583  19.415  0.00  0.00    +0.000 A 
ATOM     18 CL   UNL     1       2.372   7.282  19.415  0.00  0.00    +0.000 Cl
ENDBRANCH  10  11
ENDBRANCH   1  10
TORSDOF 3
ENDMDL
MODEL 6
REMARK VINA RESULT:      -6.6      1.088      1.118
REMARK  Name = 
REMARK  3 active torsions:
REMARK  status: ('A' for Active; 'I' for Inactive)
REMARK    1  A    between atoms: C_4  and  C_5
REMARK    2  A    between atoms: C_5  and  S_6
REMARK    3  A    between atoms: S_6  and  C_7
REMARK                            x       y       z     vdW  Elec       q    Type
REMARK                         _______ _______ _______ _____ _____    ______ ____
ROOT
ATOM      1  C   UNL     1       5.799   6.579  17.548  0.00  0.00    +0.000 C 
ENDROOT
BRANCH   1   5
ATOM      2  O   UNL     1       6.069   3.887  13.524  0.00  0.00    +0.000 OA
ATOM      3  C   UNL     1       6.396   4.572  14.473  0.00  0.00    +0.000 A 
ATOM      4  C   UNL     1       5.493   5.044  15.543  0.00  0.00    +0.000 A 
ATOM      5  C   UNL     1       6.241   5.866  16.297  0.00  0.00    +0.000 A 
ATOM      6  N   UNL     1       7.527   6.020  15.786  0.00  0.00    +0.000 N 
ATOM      7  N   UNL     1       7.651   5.078  14.767  0.00  0.00    +0.000 N 
ATOM      8  H   UNL     1       8.241   5.968  16.521  0.00  0.00    +0.000 HD
ATOM      9  H   UNL     1       8.365   5.161  14.052  0.00  0.00    +0.000 HD
ENDBRANCH   1   5
BRANCH   1  10
ATOM     10  S   UNL     1       5.758   5.420  18.955  0.00  0.00    +0.000 S 
BRANCH  10  11
ATOM     11  C   UNL     1       4.130   4.645  18.976  0.00  0.00    +0.000 A 
ATOM     12  C   UNL     1       4.197   3.271  18.647  0.00  0.00    +0.000 A 
ATOM     13  C   UNL     1       3.061   2.456  18.593  0.00  0.00    +0.000 A 
ATOM     14  C   UNL     1       1.817   3.003  18.870  0.00  0.00    +0.000 A 
ATOM     15 CL   UNL     1       0.410   2.018  18.805  0.00  0.00    +0.000 Cl
ATOM     16  C   UNL     1       1.710   4.348  19.198  0.00  0.00    +0.000 A 
ATOM     17  C   UNL     1       2.852   5.169  19.255  0.00  0.00    +0.000 A 
ATOM     18 CL   UNL     1       2.517   6.806  19.683  0.00  0.00    +0.000 Cl
ENDBRANCH  10  11
ENDBRANCH   1  10
TORSDOF 3
ENDMDL
MODEL 7
REMARK VINA RESULT:      -6.5      4.342      5.741
REMARK  Name = 
REMARK  3 active torsions:
REMARK  status: ('A' for Active; 'I' for Inactive)
REMARK    1  A    between atoms: C_4  and  C_5
REMARK    2  A    between atoms: C_5  and  S_6
REMARK    3  A    between atoms: S_6  and  C_7
REMARK                            x       y       z     vdW  Elec       q    Type
REMARK                         _______ _______ _______ _____ _____    ______ ____
ROOT
ATOM      1  C   UNL     1       3.389   5.846  19.254  0.00  0.00    +0.000 C 
ENDROOT
BRANCH   1   5
ATOM      2  O   UNL     1       0.285   2.193  18.531  0.00  0.00    +0.000 OA
ATOM      3  C   UNL     1       0.862   3.124  19.057  0.00  0.00    +0.000 A 
ATOM      4  C   UNL     1       1.902   3.959  18.421  0.00  0.00    +0.000 A 
ATOM      5  C   UNL     1       2.349   4.768  19.396  0.00  0.00    +0.000 A 
ATOM      6  N   UNL     1       1.742   4.497  20.620  0.00  0.00    +0.000 N 
ATOM      7  N   UNL     1       0.707   3.604  20.347  0.00  0.00    +0.000 N 
ATOM      8  H   UNL     1       1.464   5.355  21.108  0.00  0.00    +0.000 HD
ATOM      9  H   UNL     1       0.293   3.033  21.074  0.00  0.00    +0.000 HD
ENDBRANCH   1   5
BRANCH   1  10
ATOM     10  S   UNL     1       5.063   5.124  19.311  0.00  0.00    +0.000 S 
BRANCH  10  11
ATOM     11  C   UNL     1       5.673   5.027  17.616  0.00  0.00    +0.000 A 
ATOM     12  C   UNL     1       5.027   4.006  16.882  0.00  0.00    +0.000 A 
ATOM     13  C   UNL     1       5.334   3.734  15.543  0.00  0.00    +0.000 A 
ATOM     14  C   UNL     1       6.306   4.487  14.903  0.00  0.00    +0.000 A 
ATOM     15 CL   UNL     1       6.699   4.167  13.260  0.00  0.00    +0.000 Cl
ATOM     16  C   UNL     1       6.962   5.501  15.590  0.00  0.00    +0.000 A 
ATOM     17  C   UNL     1       6.653   5.776  16.936  0.00  0.00    +0.000 A 
ATOM     18 CL   UNL     1       7.570   7.070  17.614  0.00  0.00    +0.000 Cl
ENDBRANCH  10  11
ENDBRANCH   1  10
TORSDOF 3
ENDMDL
MODEL 8
REMARK VINA RESULT:      -6.5      2.916      3.954
REMARK  Name = 
REMARK  3 active torsions:
REMARK  status: ('A' for Active; 'I' for Inactive)
REMARK    1  A    between atoms: C_4  and  C_5
REMARK    2  A    between atoms: C_5  and  S_6
REMARK    3  A    between atoms: S_6  and  C_7
REMARK                            x       y       z     vdW  Elec       q    Type
REMARK                         _______ _______ _______ _____ _____    ______ ____
ROOT
ATOM      1  C   UNL     1       5.034   4.379  16.406  0.00  0.00    +0.000 C 
ENDROOT
BRANCH   1   5
ATOM      2  O   UNL     1       8.263   7.196  18.674  0.00  0.00    +0.000 OA
ATOM      3  C   UNL     1       7.644   6.211  18.319  0.00  0.00    +0.000 A 
ATOM      4  C   UNL     1       6.599   6.185  17.276  0.00  0.00    +0.000 A 
ATOM      5  C   UNL     1       6.101   4.938  17.308  0.00  0.00    +0.000 A 
ATOM      6  N   UNL     1       6.681   4.169  18.314  0.00  0.00    +0.000 N 
ATOM      7  N   UNL     1       7.748   4.919  18.805  0.00  0.00    +0.000 N 
ATOM      8  H   UNL     1       6.920   3.227  17.987  0.00  0.00    +0.000 HD
ATOM      9  H   UNL     1       8.158   4.729  19.712  0.00  0.00    +0.000 HD
ENDBRANCH   1   5
BRANCH   1  10
ATOM     10  S   UNL     1       3.766   3.509  17.386  0.00  0.00    +0.000 S 
BRANCH  10  11
ATOM     11  C   UNL     1       3.071   4.694  18.555  0.00  0.00    +0.000 A 
ATOM     12  C   UNL     1       2.983   5.991  17.998  0.00  0.00    +0.000 A 
ATOM     13  C   UNL     1       2.480   7.083  18.715  0.00  0.00    +0.000 A 
ATOM     14  C   UNL     1       2.049   6.899  20.020  0.00  0.00    +0.000 A 
ATOM     15 CL   UNL     1       1.430   8.228  20.917  0.00  0.00    +0.000 Cl
ATOM     16  C   UNL     1       2.118   5.639  20.601  0.00  0.00    +0.000 A 
ATOM     17  C   UNL     1       2.623   4.540  19.881  0.00  0.00    +0.000 A 
ATOM     18 CL   UNL     1       2.626   3.062  20.771  0.00  0.00    +0.000 Cl
ENDBRANCH  10  11
ENDBRANCH   1  10
TORSDOF 3
ENDMDL
MODEL 9
REMARK VINA RESULT:      -6.4      3.000      3.525
REMARK  Name = 
REMARK  3 active torsions:
REMARK  status: ('A' for Active; 'I' for Inactive)
REMARK    1  A    between atoms: C_4  and  C_5
REMARK    2  A    between atoms: C_5  and  S_6
REMARK    3  A    between atoms: S_6  and  C_7
REMARK                            x       y       z     vdW  Elec       q    Type
REMARK                         _______ _______ _______ _____ _____    ______ ____
ROOT
ATOM      1  C   UNL     1       4.911   6.560  16.613  0.00  0.00    +0.000 C 
ENDROOT
BRANCH   1   5
ATOM      2  O   UNL     1       8.345   5.274  19.786  0.00  0.00    +0.000 OA
ATOM      3  C   UNL     1       7.717   5.920  18.969  0.00  0.00    +0.000 A 
ATOM      4  C   UNL     1       6.403   5.547  18.407  0.00  0.00    +0.000 A 
ATOM      5  C   UNL     1       6.153   6.466  17.459  0.00  0.00    +0.000 A 
ATOM      6  N   UNL     1       7.206   7.365  17.310  0.00  0.00    +0.000 N 
ATOM      7  N   UNL     1       8.077   7.115  18.369  0.00  0.00    +0.000 N 
ATOM      8  H   UNL     1       6.876   8.333  17.233  0.00  0.00    +0.000 HD
ATOM      9  H   UNL     1       9.043   7.421  18.346  0.00  0.00    +0.000 HD
ENDBRANCH   1   5
BRANCH   1  10
ATOM     10  S   UNL     1       3.502   7.133  17.619  0.00  0.00    +0.000 S 
BRANCH  10  11
ATOM     11  C   UNL     1       2.911   5.726  18.582  0.00  0.00    +0.000 A 
ATOM     12  C   UNL     1       2.362   6.131  19.821  0.00  0.00    +0.000 A 
ATOM     13  C   UNL     1       1.842   5.217  20.745  0.00  0.00    +0.000 A 
ATOM     14  C   UNL     1       1.860   3.864  20.447  0.00  0.00    +0.000 A 
ATOM     15 CL   UNL     1       1.228   2.727  21.571  0.00  0.00    +0.000 Cl
ATOM     16  C   UNL     1       2.390   3.427  19.240  0.00  0.00    +0.000 A 
ATOM     17  C   UNL     1       2.912   4.345  18.308  0.00  0.00    +0.000 A 
ATOM     18 CL   UNL     1       3.520   3.612  16.870  0.00  0.00    +0.000 Cl
ENDBRANCH  10  11
ENDBRANCH   1  10
TORSDOF 3
ENDMDL
