MODEL 1
REMARK VINA RESULT:      -7.4      0.000      0.000
REMARK  Name = 
REMARK  7 active torsions:
REMARK  status: ('A' for Active; 'I' for Inactive)
REMARK    1  A    between atoms: C_1  and  C_2
REMARK    2  A    between atoms: C_5  and  N_6
REMARK    3  A    between atoms: N_9  and  C_10
REMARK    4  A    between atoms: C_10  and  C_11
REMARK    5  A    between atoms: N_13  and  C_14
REMARK    6  A    between atoms: C_17  and  C_18
REMARK    7  A    between atoms: C_24  and  C_25
REMARK                            x       y       z     vdW  Elec       q    Type
REMARK                         _______ _______ _______ _____ _____    ______ ____
ROOT
ATOM      1  N   UNL     1       3.918   4.005  17.500  0.00  0.00    +0.000 N 
ATOM      2  C   UNL     1       3.727   4.848  18.600  0.00  0.00    +0.000 C 
ATOM      3  O   UNL     1       4.210   5.958  18.792  0.00  0.00    +0.000 OA
ATOM      4  N   UNL     1       2.874   4.243  19.475  0.00  0.00    +0.000 N 
ATOM      5  C   UNL     1       2.452   3.048  18.983  0.00  0.00    +0.000 C 
ATOM      6  O   UNL     1       1.652   2.296  19.526  0.00  0.00    +0.000 OA
ATOM      7  C   UNL     1       3.169   2.769  17.662  0.00  0.00    +0.000 C 
ATOM      8  C   UNL     1       4.054   1.540  17.849  0.00  0.00    +0.000 C 
ENDROOT
BRANCH   1  13
ATOM      9  C   UNL     1       7.841   4.994  13.421  0.00  0.00    +0.000 C 
ATOM     10  C   UNL     1       6.838   4.695  14.496  0.00  0.00    +0.000 A 
ATOM     11  C   UNL     1       5.530   4.354  14.158  0.00  0.00    +0.000 A 
ATOM     12  C   UNL     1       4.589   4.089  15.153  0.00  0.00    +0.000 A 
ATOM     13  C   UNL     1       4.919   4.177  16.511  0.00  0.00    +0.000 A 
ATOM     14  C   UNL     1       6.239   4.505  16.848  0.00  0.00    +0.000 A 
ATOM     15  C   UNL     1       7.193   4.752  15.848  0.00  0.00    +0.000 A 
ENDBRANCH   1  13
BRANCH   4  16
ATOM     16  C   UNL     1       2.643   4.745  20.813  0.00  0.00    +0.000 C 
BRANCH  16  17
ATOM     17  C   UNL     1       1.569   5.845  20.745  0.00  0.00    +0.000 C 
ATOM     18  O   UNL     1       0.376   5.579  20.610  0.00  0.00    +0.000 OA
ATOM     19  N   UNL     1       2.095   7.132  20.813  0.00  0.00    +0.000 N 
ATOM     20  H   UNL     1       3.095   7.245  20.676  0.00  0.00    +0.000 HD
BRANCH  19  21
ATOM     21  C   UNL     1       1.343   8.337  20.770  0.00  0.00    +0.000 A 
ATOM     22  C   UNL     1       0.734   8.882  21.905  0.00  0.00    +0.000 A 
ATOM     23  C   UNL     1      -0.097  10.003  21.807  0.00  0.00    +0.000 A 
ATOM     24  C   UNL     1      -0.331  10.613  20.572  0.00  0.00    +0.000 A 
ATOM     25  C   UNL     1      -1.313  11.741  20.450  0.00  0.00    +0.000 C 
ATOM     26  C   UNL     1       0.341  10.128  19.445  0.00  0.00    +0.000 A 
ATOM     27  C   UNL     1       1.181   9.011  19.547  0.00  0.00    +0.000 A 
ATOM     28 CL   UNL     1       1.967   8.446  18.111  0.00  0.00    +0.000 Cl
ENDBRANCH  19  21
ENDBRANCH  16  17
ENDBRANCH   4  16
TORSDOF 4
ENDMDL
MODEL 2
REMARK VINA RESULT:      -7.3      3.298     10.226
REMARK  Name = 
REMARK  7 active torsions:
REMARK  status: ('A' for Active; 'I' for Inactive)
REMARK    1  A    between atoms: C_1  and  C_2
REMARK    2  A    between atoms: C_5  and  N_6
REMARK    3  A    between atoms: N_9  and  C_10
REMARK    4  A    between atoms: C_10  and  C_11
REMARK    5  A    between atoms: N_13  and  C_14
REMARK    6  A    between atoms: C_17  and  C_18
REMARK    7  A    between atoms: C_24  and  C_25
REMARK                            x       y       z     vdW  Elec       q    Type
REMARK                         _______ _______ _______ _____ _____    ______ ____
ROOT
ATOM      1  N   UNL     1      -1.106  12.064  21.900  0.00  0.00    +0.000 N 
ATOM      2  C   UNL     1      -0.503  10.938  22.471  0.00  0.00    +0.000 C 
ATOM      3  O   UNL     1      -0.745  10.421  23.555  0.00  0.00    +0.000 OA
ATOM      4  N   UNL     1       0.435  10.456  21.607  0.00  0.00    +0.000 N 
ATOM      5  C   UNL     1       0.453  11.189  20.462  0.00  0.00    +0.000 C 
ATOM      6  O   UNL     1       1.162  10.972  19.487  0.00  0.00    +0.000 OA
ATOM      7  C   UNL     1      -0.525  12.356  20.599  0.00  0.00    +0.000 C 
ATOM      8  C   UNL     1       0.275  13.655  20.567  0.00  0.00    +0.000 C 
ENDROOT
BRANCH   1  13
ATOM      9  C   UNL     1      -4.347  15.998  24.550  0.00  0.00    +0.000 C 
ATOM     10  C   UNL     1      -3.525  14.937  23.881  0.00  0.00    +0.000 A 
ATOM     11  C   UNL     1      -2.193  14.748  24.246  0.00  0.00    +0.000 A 
ATOM     12  C   UNL     1      -1.419  13.773  23.616  0.00  0.00    +0.000 A 
ATOM     13  C   UNL     1      -1.944  12.974  22.593  0.00  0.00    +0.000 A 
ATOM     14  C   UNL     1      -3.286  13.155  22.238  0.00  0.00    +0.000 A 
ATOM     15  C   UNL     1      -4.073  14.122  22.884  0.00  0.00    +0.000 A 
ENDBRANCH   1  13
BRANCH   4  16
ATOM     16  C   UNL     1       1.393   9.437  21.982  0.00  0.00    +0.000 C 
BRANCH  16  17
ATOM     17  C   UNL     1       1.015   8.125  21.272  0.00  0.00    +0.000 C 
ATOM     18  O   UNL     1      -0.140   7.704  21.260  0.00  0.00    +0.000 OA
ATOM     19  N   UNL     1       2.105   7.476  20.698  0.00  0.00    +0.000 N 
ATOM     20  H   UNL     1       3.035   7.775  20.973  0.00  0.00    +0.000 HD
BRANCH  19  21
ATOM     21  C   UNL     1       2.056   6.248  19.984  0.00  0.00    +0.000 A 
ATOM     22  C   UNL     1       1.658   5.049  20.582  0.00  0.00    +0.000 A 
ATOM     23  C   UNL     1       1.735   3.837  19.886  0.00  0.00    +0.000 A 
ATOM     24  C   UNL     1       2.203   3.800  18.569  0.00  0.00    +0.000 A 
ATOM     25  C   UNL     1       2.395   2.489  17.864  0.00  0.00    +0.000 C 
ATOM     26  C   UNL     1       2.521   5.005  17.934  0.00  0.00    +0.000 A 
ATOM     27  C   UNL     1       2.435   6.218  18.631  0.00  0.00    +0.000 A 
ATOM     28 CL   UNL     1       2.864   7.672  17.795  0.00  0.00    +0.000 Cl
ENDBRANCH  19  21
ENDBRANCH  16  17
ENDBRANCH   4  16
TORSDOF 4
ENDMDL
MODEL 3
REMARK VINA RESULT:      -7.3      1.662      2.778
REMARK  Name = 
REMARK  7 active torsions:
REMARK  status: ('A' for Active; 'I' for Inactive)
REMARK    1  A    between atoms: C_1  and  C_2
REMARK    2  A    between atoms: C_5  and  N_6
REMARK    3  A    between atoms: N_9  and  C_10
REMARK    4  A    between atoms: C_10  and  C_11
REMARK    5  A    between atoms: N_13  and  C_14
REMARK    6  A    between atoms: C_17  and  C_18
REMARK    7  A    between atoms: C_24  and  C_25
REMARK                            x       y       z     vdW  Elec       q    Type
REMARK                         _______ _______ _______ _____ _____    ______ ____
ROOT
ATOM      1  N   UNL     1       6.046   4.347  16.786  0.00  0.00    +0.000 N 
ATOM      2  C   UNL     1       4.923   3.798  17.415  0.00  0.00    +0.000 C 
ATOM      3  O   UNL     1       4.063   3.074  16.927  0.00  0.00    +0.000 OA
ATOM      4  N   UNL     1       4.917   4.188  18.722  0.00  0.00    +0.000 N 
ATOM      5  C   UNL     1       6.015   4.938  19.003  0.00  0.00    +0.000 C 
ATOM      6  O   UNL     1       6.304   5.396  20.101  0.00  0.00    +0.000 OA
ATOM      7  C   UNL     1       6.814   5.157  17.718  0.00  0.00    +0.000 C 
ATOM      8  C   UNL     1       6.793   6.647  17.391  0.00  0.00    +0.000 C 
ENDROOT
BRANCH   1  13
ATOM      9  C   UNL     1       7.162   4.235  11.152  0.00  0.00    +0.000 C 
ATOM     10  C   UNL     1       6.834   4.293  12.614  0.00  0.00    +0.000 A 
ATOM     11  C   UNL     1       7.657   4.999  13.490  0.00  0.00    +0.000 A 
ATOM     12  C   UNL     1       7.365   5.044  14.853  0.00  0.00    +0.000 A 
ATOM     13  C   UNL     1       6.259   4.371  15.384  0.00  0.00    +0.000 A 
ATOM     14  C   UNL     1       5.425   3.674  14.501  0.00  0.00    +0.000 A 
ATOM     15  C   UNL     1       5.705   3.644  13.125  0.00  0.00    +0.000 A 
ENDBRANCH   1  13
BRANCH   4  16
ATOM     16  C   UNL     1       3.780   3.980  19.594  0.00  0.00    +0.000 C 
BRANCH  16  17
ATOM     17  C   UNL     1       2.735   5.071  19.305  0.00  0.00    +0.000 C 
ATOM     18  O   UNL     1       1.783   4.874  18.551  0.00  0.00    +0.000 OA
ATOM     19  N   UNL     1       3.007   6.277  19.943  0.00  0.00    +0.000 N 
ATOM     20  H   UNL     1       3.934   6.409  20.336  0.00  0.00    +0.000 HD
BRANCH  19  21
ATOM     21  C   UNL     1       2.219   7.457  19.856  0.00  0.00    +0.000 A 
ATOM     22  C   UNL     1       1.396   7.887  20.900  0.00  0.00    +0.000 A 
ATOM     23  C   UNL     1       0.543   8.985  20.739  0.00  0.00    +0.000 A 
ATOM     24  C   UNL     1       0.503   9.686  19.531  0.00  0.00    +0.000 A 
ATOM     25  C   UNL     1      -0.494  10.788  19.320  0.00  0.00    +0.000 C 
ATOM     26  C   UNL     1       1.385   9.317  18.510  0.00  0.00    +0.000 A 
ATOM     27  C   UNL     1       2.244   8.222  18.677  0.00  0.00    +0.000 A 
ATOM     28 CL   UNL     1       3.296   7.802  17.367  0.00  0.00    +0.000 Cl
ENDBRANCH  19  21
ENDBRANCH  16  17
ENDBRANCH   4  16
TORSDOF 4
ENDMDL
MODEL 4
REMARK VINA RESULT:      -7.1      1.894      7.364
REMARK  Name = 
REMARK  7 active torsions:
REMARK  status: ('A' for Active; 'I' for Inactive)
REMARK    1  A    between atoms: C_1  and  C_2
REMARK    2  A    between atoms: C_5  and  N_6
REMARK    3  A    between atoms: N_9  and  C_10
REMARK    4  A    between atoms: C_10  and  C_11
REMARK    5  A    between atoms: N_13  and  C_14
REMARK    6  A    between atoms: C_17  and  C_18
REMARK    7  A    between atoms: C_24  and  C_25
REMARK                            x       y       z     vdW  Elec       q    Type
REMARK                         _______ _______ _______ _____ _____    ______ ____
ROOT
ATOM      1  N   UNL     1       2.584   5.918  20.214  0.00  0.00    +0.000 N 
ATOM      2  C   UNL     1       3.738   5.351  19.663  0.00  0.00    +0.000 C 
ATOM      3  O   UNL     1       4.623   5.909  19.025  0.00  0.00    +0.000 OA
ATOM      4  N   UNL     1       3.756   4.019  19.957  0.00  0.00    +0.000 N 
ATOM      5  C   UNL     1       2.682   3.683  20.720  0.00  0.00    +0.000 C 
ATOM      6  O   UNL     1       2.450   2.568  21.173  0.00  0.00    +0.000 OA
ATOM      7  C   UNL     1       1.786   4.909  20.892  0.00  0.00    +0.000 C 
ATOM      8  C   UNL     1       0.453   4.625  20.206  0.00  0.00    +0.000 C 
ENDROOT
BRANCH   1  13
ATOM      9  C   UNL     1       0.352  11.028  18.832  0.00  0.00    +0.000 C 
ATOM     10  C   UNL     1       0.969   9.717  19.216  0.00  0.00    +0.000 A 
ATOM     11  C   UNL     1       1.622   8.942  18.259  0.00  0.00    +0.000 A 
ATOM     12  C   UNL     1       2.185   7.714  18.608  0.00  0.00    +0.000 A 
ATOM     13  C   UNL     1       2.095   7.215  19.912  0.00  0.00    +0.000 A 
ATOM     14  C   UNL     1       1.452   8.002  20.876  0.00  0.00    +0.000 A 
ATOM     15  C   UNL     1       0.902   9.247  20.533  0.00  0.00    +0.000 A 
ENDBRANCH   1  13
BRANCH   4  16
ATOM     16  C   UNL     1       4.693   3.097  19.350  0.00  0.00    +0.000 C 
BRANCH  16  17
ATOM     17  C   UNL     1       4.686   3.324  17.827  0.00  0.00    +0.000 C 
ATOM     18  O   UNL     1       3.711   3.039  17.135  0.00  0.00    +0.000 OA
ATOM     19  N   UNL     1       5.885   3.835  17.341  0.00  0.00    +0.000 N 
ATOM     20  H   UNL     1       6.698   3.802  17.950  0.00  0.00    +0.000 HD
BRANCH  19  21
ATOM     21  C   UNL     1       6.166   4.138  15.981  0.00  0.00    +0.000 A 
ATOM     22  C   UNL     1       5.730   3.330  14.928  0.00  0.00    +0.000 A 
ATOM     23  C   UNL     1       6.124   3.590  13.610  0.00  0.00    +0.000 A 
ATOM     24  C   UNL     1       6.956   4.674  13.315  0.00  0.00    +0.000 A 
ATOM     25  C   UNL     1       7.471   4.884  11.922  0.00  0.00    +0.000 C 
ATOM     26  C   UNL     1       7.326   5.538  14.350  0.00  0.00    +0.000 A 
ATOM     27  C   UNL     1       6.923   5.280  15.668  0.00  0.00    +0.000 A 
ATOM     28 CL   UNL     1       7.434   6.376  16.908  0.00  0.00    +0.000 Cl
ENDBRANCH  19  21
ENDBRANCH  16  17
ENDBRANCH   4  16
TORSDOF 4
ENDMDL
MODEL 5
REMARK VINA RESULT:      -7.0      5.385      7.229
REMARK  Name = 
REMARK  7 active torsions:
REMARK  status: ('A' for Active; 'I' for Inactive)
REMARK    1  A    between atoms: C_1  and  C_2
REMARK    2  A    between atoms: C_5  and  N_6
REMARK    3  A    between atoms: N_9  and  C_10
REMARK    4  A    between atoms: C_10  and  C_11
REMARK    5  A    between atoms: N_13  and  C_14
REMARK    6  A    between atoms: C_17  and  C_18
REMARK    7  A    between atoms: C_24  and  C_25
REMARK                            x       y       z     vdW  Elec       q    Type
REMARK                         _______ _______ _______ _____ _____    ______ ____
ROOT
ATOM      1  N   UNL     1       5.512   5.063  17.735  0.00  0.00    +0.000 N 
ATOM      2  C   UNL     1       6.424   5.477  18.712  0.00  0.00    +0.000 C 
ATOM      3  O   UNL     1       6.383   5.269  19.919  0.00  0.00    +0.000 OA
ATOM      4  N   UNL     1       7.430   6.171  18.108  0.00  0.00    +0.000 N 
ATOM      5  C   UNL     1       7.250   6.201  16.761  0.00  0.00    +0.000 C 
ATOM      6  O   UNL     1       8.011   6.717  15.951  0.00  0.00    +0.000 OA
ATOM      7  C   UNL     1       5.924   5.523  16.418  0.00  0.00    +0.000 C 
ATOM      8  C   UNL     1       4.992   6.573  15.821  0.00  0.00    +0.000 C 
ENDROOT
BRANCH   1  13
ATOM      9  C   UNL     1       0.427   2.724  19.029  0.00  0.00    +0.000 C 
ATOM     10  C   UNL     1       1.733   3.364  18.661  0.00  0.00    +0.000 A 
ATOM     11  C   UNL     1       2.653   2.677  17.872  0.00  0.00    +0.000 A 
ATOM     12  C   UNL     1       3.875   3.262  17.540  0.00  0.00    +0.000 A 
ATOM     13  C   UNL     1       4.223   4.537  18.001  0.00  0.00    +0.000 A 
ATOM     14  C   UNL     1       3.290   5.232  18.781  0.00  0.00    +0.000 A 
ATOM     15  C   UNL     1       2.051   4.654  19.100  0.00  0.00    +0.000 A 
ENDBRANCH   1  13
BRANCH   4  16
ATOM     16  C   UNL     1       8.415   6.927  18.854  0.00  0.00    +0.000 C 
BRANCH  16  17
ATOM     17  C   UNL     1       8.229   8.421  18.539  0.00  0.00    +0.000 C 
ATOM     18  O   UNL     1       7.334   8.819  17.795  0.00  0.00    +0.000 OA
ATOM     19  N   UNL     1       9.183   9.235  19.143  0.00  0.00    +0.000 N 
ATOM     20  H   UNL     1      10.011   8.791  19.529  0.00  0.00    +0.000 HD
BRANCH  19  21
ATOM     21  C   UNL     1       9.259  10.649  19.026  0.00  0.00    +0.000 A 
ATOM     22  C   UNL     1       9.377  11.294  17.792  0.00  0.00    +0.000 A 
ATOM     23  C   UNL     1       9.570  12.678  17.719  0.00  0.00    +0.000 A 
ATOM     24  C   UNL     1       9.639  13.451  18.881  0.00  0.00    +0.000 A 
ATOM     25  C   UNL     1       9.962  14.915  18.806  0.00  0.00    +0.000 C 
ATOM     26  C   UNL     1       9.436  12.828  20.116  0.00  0.00    +0.000 A 
ATOM     27  C   UNL     1       9.234  11.442  20.187  0.00  0.00    +0.000 A 
ATOM     28 CL   UNL     1       9.012  10.728  21.748  0.00  0.00    +0.000 Cl
ENDBRANCH  19  21
ENDBRANCH  16  17
ENDBRANCH   4  16
TORSDOF 4
ENDMDL
MODEL 6
REMARK VINA RESULT:      -6.9      2.926      9.588
REMARK  Name = 
REMARK  7 active torsions:
REMARK  status: ('A' for Active; 'I' for Inactive)
REMARK    1  A    between atoms: C_1  and  C_2
REMARK    2  A    between atoms: C_5  and  N_6
REMARK    3  A    between atoms: N_9  and  C_10
REMARK    4  A    between atoms: C_10  and  C_11
REMARK    5  A    between atoms: N_13  and  C_14
REMARK    6  A    between atoms: C_17  and  C_18
REMARK    7  A    between atoms: C_24  and  C_25
REMARK                            x       y       z     vdW  Elec       q    Type
REMARK                         _______ _______ _______ _____ _____    ______ ____
ROOT
ATOM      1  N   UNL     1      -0.694  11.227  20.731  0.00  0.00    +0.000 N 
ATOM      2  C   UNL     1       0.583  10.675  20.588  0.00  0.00    +0.000 C 
ATOM      3  O   UNL     1       1.495  10.659  21.407  0.00  0.00    +0.000 OA
ATOM      4  N   UNL     1       0.682  10.112  19.350  0.00  0.00    +0.000 N 
ATOM      5  C   UNL     1      -0.492  10.227  18.676  0.00  0.00    +0.000 C 
ATOM      6  O   UNL     1      -0.720   9.782  17.557  0.00  0.00    +0.000 OA
ATOM      7  C   UNL     1      -1.476  11.038  19.519  0.00  0.00    +0.000 C 
ATOM      8  C   UNL     1      -1.779  12.339  18.781  0.00  0.00    +0.000 C 
ENDROOT
BRANCH   1  13
ATOM      9  C   UNL     1      -2.381  14.998  24.723  0.00  0.00    +0.000 C 
ATOM     10  C   UNL     1      -1.928  13.984  23.716  0.00  0.00    +0.000 A 
ATOM     11  C   UNL     1      -0.769  14.203  22.973  0.00  0.00    +0.000 A 
ATOM     12  C   UNL     1      -0.351  13.270  22.024  0.00  0.00    +0.000 A 
ATOM     13  C   UNL     1      -1.085  12.105  21.773  0.00  0.00    +0.000 A 
ATOM     14  C   UNL     1      -2.241  11.880  22.531  0.00  0.00    +0.000 A 
ATOM     15  C   UNL     1      -2.654  12.807  23.502  0.00  0.00    +0.000 A 
ENDBRANCH   1  13
BRANCH   4  16
ATOM     16  C   UNL     1       1.940   9.652  18.799  0.00  0.00    +0.000 C 
BRANCH  16  17
ATOM     17  C   UNL     1       2.065   8.140  19.057  0.00  0.00    +0.000 C 
ATOM     18  O   UNL     1       1.860   7.654  20.167  0.00  0.00    +0.000 OA
ATOM     19  N   UNL     1       2.462   7.421  17.934  0.00  0.00    +0.000 N 
ATOM     20  H   UNL     1       2.839   7.939  17.146  0.00  0.00    +0.000 HD
BRANCH  19  21
ATOM     21  C   UNL     1       2.661   6.015  17.878  0.00  0.00    +0.000 A 
ATOM     22  C   UNL     1       1.605   5.104  17.967  0.00  0.00    +0.000 A 
ATOM     23  C   UNL     1       1.845   3.727  18.029  0.00  0.00    +0.000 A 
ATOM     24  C   UNL     1       3.150   3.228  17.993  0.00  0.00    +0.000 A 
ATOM     25  C   UNL     1       3.413   1.763  18.177  0.00  0.00    +0.000 C 
ATOM     26  C   UNL     1       4.209   4.126  17.818  0.00  0.00    +0.000 A 
ATOM     27  C   UNL     1       3.965   5.504  17.746  0.00  0.00    +0.000 A 
ATOM     28 CL   UNL     1       5.319   6.565  17.551  0.00  0.00    +0.000 Cl
ENDBRANCH  19  21
ENDBRANCH  16  17
ENDBRANCH   4  16
TORSDOF 4
ENDMDL
MODEL 7
REMARK VINA RESULT:      -6.9      2.309      9.045
REMARK  Name = 
REMARK  7 active torsions:
REMARK  status: ('A' for Active; 'I' for Inactive)
REMARK    1  A    between atoms: C_1  and  C_2
REMARK    2  A    between atoms: C_5  and  N_6
REMARK    3  A    between atoms: N_9  and  C_10
REMARK    4  A    between atoms: C_10  and  C_11
REMARK    5  A    between atoms: N_13  and  C_14
REMARK    6  A    between atoms: C_17  and  C_18
REMARK    7  A    between atoms: C_24  and  C_25
REMARK                            x       y       z     vdW  Elec       q    Type
REMARK                         _______ _______ _______ _____ _____    ______ ____
ROOT
ATOM      1  N   UNL     1       0.121  10.201  19.851  0.00  0.00    +0.000 N 
ATOM      2  C   UNL     1       0.555   8.987  20.394  0.00  0.00    +0.000 C 
ATOM      3  O   UNL     1       0.180   8.445  21.427  0.00  0.00    +0.000 OA
ATOM      4  N   UNL     1       1.498   8.449  19.569  0.00  0.00    +0.000 N 
ATOM      5  C   UNL     1       1.679   9.232  18.473  0.00  0.00    +0.000 C 
ATOM      6  O   UNL     1       2.431   8.988  17.537  0.00  0.00    +0.000 OA
ATOM      7  C   UNL     1       0.825  10.492  18.612  0.00  0.00    +0.000 C 
ATOM      8  C   UNL     1       1.760  11.694  18.711  0.00  0.00    +0.000 C 
ENDROOT
BRANCH   1  13
ATOM      9  C   UNL     1      -3.291  13.867  22.664  0.00  0.00    +0.000 C 
ATOM     10  C   UNL     1      -2.367  12.944  21.928  0.00  0.00    +0.000 A 
ATOM     11  C   UNL     1      -2.621  12.610  20.599  0.00  0.00    +0.000 A 
ATOM     12  C   UNL     1      -1.774  11.740  19.914  0.00  0.00    +0.000 A 
ATOM     13  C   UNL     1      -0.662  11.162  20.538  0.00  0.00    +0.000 A 
ATOM     14  C   UNL     1      -0.400  11.510  21.870  0.00  0.00    +0.000 A 
ATOM     15  C   UNL     1      -1.240  12.402  22.556  0.00  0.00    +0.000 A 
ENDBRANCH   1  13
BRANCH   4  16
ATOM     16  C   UNL     1       2.310   7.310  19.947  0.00  0.00    +0.000 C 
BRANCH  16  17
ATOM     17  C   UNL     1       2.663   6.517  18.677  0.00  0.00    +0.000 C 
ATOM     18  O   UNL     1       1.808   5.912  18.032  0.00  0.00    +0.000 OA
ATOM     19  N   UNL     1       4.022   6.533  18.378  0.00  0.00    +0.000 N 
ATOM     20  H   UNL     1       4.664   6.849  19.098  0.00  0.00    +0.000 HD
BRANCH  19  21
ATOM     21  C   UNL     1       4.634   5.886  17.271  0.00  0.00    +0.000 A 
ATOM     22  C   UNL     1       4.996   6.572  16.108  0.00  0.00    +0.000 A 
ATOM     23  C   UNL     1       5.487   5.886  14.991  0.00  0.00    +0.000 A 
ATOM     24  C   UNL     1       5.637   4.497  15.016  0.00  0.00    +0.000 A 
ATOM     25  C   UNL     1       6.052   3.752  13.781  0.00  0.00    +0.000 C 
ATOM     26  C   UNL     1       5.360   3.812  16.203  0.00  0.00    +0.000 A 
ATOM     27  C   UNL     1       4.877   4.502  17.324  0.00  0.00    +0.000 A 
ATOM     28 CL   UNL     1       4.531   3.593  18.756  0.00  0.00    +0.000 Cl
ENDBRANCH  19  21
ENDBRANCH  16  17
ENDBRANCH   4  16
TORSDOF 4
ENDMDL
MODEL 8
REMARK VINA RESULT:      -6.8      1.895      3.123
REMARK  Name = 
REMARK  7 active torsions:
REMARK  status: ('A' for Active; 'I' for Inactive)
REMARK    1  A    between atoms: C_1  and  C_2
REMARK    2  A    between atoms: C_5  and  N_6
REMARK    3  A    between atoms: N_9  and  C_10
REMARK    4  A    between atoms: C_10  and  C_11
REMARK    5  A    between atoms: N_13  and  C_14
REMARK    6  A    between atoms: C_17  and  C_18
REMARK    7  A    between atoms: C_24  and  C_25
REMARK                            x       y       z     vdW  Elec       q    Type
REMARK                         _______ _______ _______ _____ _____    ______ ____
ROOT
ATOM      1  N   UNL     1       6.090   4.368  16.712  0.00  0.00    +0.000 N 
ATOM      2  C   UNL     1       4.905   3.970  17.339  0.00  0.00    +0.000 C 
ATOM      3  O   UNL     1       3.956   3.369  16.848  0.00  0.00    +0.000 OA
ATOM      4  N   UNL     1       4.952   4.350  18.648  0.00  0.00    +0.000 N 
ATOM      5  C   UNL     1       6.140   4.947  18.932  0.00  0.00    +0.000 C 
ATOM      6  O   UNL     1       6.488   5.356  20.032  0.00  0.00    +0.000 OA
ATOM      7  C   UNL     1       6.960   5.064  17.647  0.00  0.00    +0.000 C 
ATOM      8  C   UNL     1       7.136   6.546  17.328  0.00  0.00    +0.000 C 
ENDROOT
BRANCH   1  13
ATOM      9  C   UNL     1       7.217   4.183  11.082  0.00  0.00    +0.000 C 
ATOM     10  C   UNL     1       6.885   4.258  12.542  0.00  0.00    +0.000 A 
ATOM     11  C   UNL     1       7.677   5.017  13.403  0.00  0.00    +0.000 A 
ATOM     12  C   UNL     1       7.381   5.078  14.765  0.00  0.00    +0.000 A 
ATOM     13  C   UNL     1       6.304   4.371  15.310  0.00  0.00    +0.000 A 
ATOM     14  C   UNL     1       5.501   3.621  14.441  0.00  0.00    +0.000 A 
ATOM     15  C   UNL     1       5.783   3.573  13.067  0.00  0.00    +0.000 A 
ENDBRANCH   1  13
BRANCH   4  16
ATOM     16  C   UNL     1       3.797   4.290  19.521  0.00  0.00    +0.000 C 
BRANCH  16  17
ATOM     17  C   UNL     1       2.776   5.343  19.055  0.00  0.00    +0.000 C 
ATOM     18  O   UNL     1       1.808   5.043  18.359  0.00  0.00    +0.000 OA
ATOM     19  N   UNL     1       3.090   6.634  19.467  0.00  0.00    +0.000 N 
ATOM     20  H   UNL     1       4.026   6.807  19.821  0.00  0.00    +0.000 HD
BRANCH  19  21
ATOM     21  C   UNL     1       2.332   7.802  19.182  0.00  0.00    +0.000 A 
ATOM     22  C   UNL     1       2.471   8.513  17.987  0.00  0.00    +0.000 A 
ATOM     23  C   UNL     1       1.799   9.724  17.787  0.00  0.00    +0.000 A 
ATOM     24  C   UNL     1       0.962  10.247  18.776  0.00  0.00    +0.000 A 
ATOM     25  C   UNL     1       0.334  11.600  18.609  0.00  0.00    +0.000 C 
ATOM     26  C   UNL     1       0.748   9.501  19.940  0.00  0.00    +0.000 A 
ATOM     27  C   UNL     1       1.416   8.283  20.134  0.00  0.00    +0.000 A 
ATOM     28 CL   UNL     1       1.125   7.418  21.606  0.00  0.00    +0.000 Cl
ENDBRANCH  19  21
ENDBRANCH  16  17
ENDBRANCH   4  16
TORSDOF 4
ENDMDL
MODEL 9
REMARK VINA RESULT:      -6.7      3.520      9.624
REMARK  Name = 
REMARK  7 active torsions:
REMARK  status: ('A' for Active; 'I' for Inactive)
REMARK    1  A    between atoms: C_1  and  C_2
REMARK    2  A    between atoms: C_5  and  N_6
REMARK    3  A    between atoms: N_9  and  C_10
REMARK    4  A    between atoms: C_10  and  C_11
REMARK    5  A    between atoms: N_13  and  C_14
REMARK    6  A    between atoms: C_17  and  C_18
REMARK    7  A    between atoms: C_24  and  C_25
REMARK                            x       y       z     vdW  Elec       q    Type
REMARK                         _______ _______ _______ _____ _____    ______ ____
ROOT
ATOM      1  N   UNL     1      -1.535  11.538  18.386  0.00  0.00    +0.000 N 
ATOM      2  C   UNL     1      -0.981  10.299  18.723  0.00  0.00    +0.000 C 
ATOM      3  O   UNL     1      -1.539   9.208  18.767  0.00  0.00    +0.000 OA
ATOM      4  N   UNL     1       0.343  10.471  19.002  0.00  0.00    +0.000 N 
ATOM      5  C   UNL     1       0.705  11.768  18.821  0.00  0.00    +0.000 C 
ATOM      6  O   UNL     1       1.837  12.218  18.955  0.00  0.00    +0.000 OA
ATOM      7  C   UNL     1      -0.534  12.589  18.463  0.00  0.00    +0.000 C 
ATOM      8  C   UNL     1      -0.785  13.589  19.588  0.00  0.00    +0.000 C 
ENDROOT
BRANCH   1  13
ATOM      9  C   UNL     1      -7.215  12.279  17.945  0.00  0.00    +0.000 C 
ATOM     10  C   UNL     1      -5.727  12.133  18.061  0.00  0.00    +0.000 A 
ATOM     11  C   UNL     1      -4.977  11.705  16.967  0.00  0.00    +0.000 A 
ATOM     12  C   UNL     1      -3.595  11.552  17.074  0.00  0.00    +0.000 A 
ATOM     13  C   UNL     1      -2.925  11.801  18.277  0.00  0.00    +0.000 A 
ATOM     14  C   UNL     1      -3.678  12.246  19.371  0.00  0.00    +0.000 A 
ATOM     15  C   UNL     1      -5.066  12.420  19.261  0.00  0.00    +0.000 A 
ENDBRANCH   1  13
BRANCH   4  16
ATOM     16  C   UNL     1       1.157   9.433  19.599  0.00  0.00    +0.000 C 
BRANCH  16  17
ATOM     17  C   UNL     1       1.942   8.722  18.482  0.00  0.00    +0.000 C 
ATOM     18  O   UNL     1       1.955   9.147  17.328  0.00  0.00    +0.000 OA
ATOM     19  N   UNL     1       2.581   7.563  18.910  0.00  0.00    +0.000 N 
ATOM     20  H   UNL     1       2.309   7.173  19.808  0.00  0.00    +0.000 HD
BRANCH  19  21
ATOM     21  C   UNL     1       3.372   6.705  18.099  0.00  0.00    +0.000 A 
ATOM     22  C   UNL     1       4.442   7.175  17.332  0.00  0.00    +0.000 A 
ATOM     23  C   UNL     1       5.125   6.327  16.453  0.00  0.00    +0.000 A 
ATOM     24  C   UNL     1       4.759   4.984  16.328  0.00  0.00    +0.000 A 
ATOM     25  C   UNL     1       5.413   4.106  15.303  0.00  0.00    +0.000 C 
ATOM     26  C   UNL     1       3.747   4.484  17.154  0.00  0.00    +0.000 A 
ATOM     27  C   UNL     1       3.070   5.333  18.040  0.00  0.00    +0.000 A 
ATOM     28 CL   UNL     1       1.811   4.658  19.018  0.00  0.00    +0.000 Cl
ENDBRANCH  19  21
ENDBRANCH  16  17
ENDBRANCH   4  16
TORSDOF 4
ENDMDL
