MODEL 1
REMARK VINA RESULT:     -10.4      0.000      0.000
REMARK  Name = 
REMARK  4 active torsions:
REMARK  status: ('A' for Active; 'I' for Inactive)
REMARK    1  A    between atoms: C_2  and  C_26
REMARK    2  A    between atoms: N_3  and  N_4
REMARK    3  A    between atoms: C_5  and  C_6
REMARK    4  A    between atoms: C_7  and  C_8
REMARK                            x       y       z     vdW  Elec       q    Type
REMARK                         _______ _______ _______ _____ _____    ______ ____
ROOT
ATOM      1  C   UNL     1       3.845   5.423  18.650  0.00  0.00    +0.000 A 
ATOM      2  C   UNL     1       4.735   4.640  17.913  0.00  0.00    +0.000 A 
ATOM      3  N   UNL     1       4.768   3.403  18.526  0.00  0.00    +0.000 N 
ATOM      4  C   UNL     1       3.894   3.345  19.585  0.00  0.00    +0.000 A 
ATOM      5  C   UNL     1       3.598   2.289  20.455  0.00  0.00    +0.000 A 
ATOM      6  C   UNL     1       2.659   2.525  21.465  0.00  0.00    +0.000 A 
ATOM      7  C   UNL     1       2.044   3.766  21.596  0.00  0.00    +0.000 A 
ATOM      8  C   UNL     1       2.353   4.808  20.716  0.00  0.00    +0.000 A 
ATOM      9  C   UNL     1       3.294   4.596  19.684  0.00  0.00    +0.000 A 
ATOM     10  H   UNL     1       5.369   2.637  18.244  0.00  0.00    +0.000 HD
ENDROOT
BRANCH   2  11
ATOM     11  C   UNL     1       5.529   4.833  16.733  0.00  0.00    +0.000 A 
ATOM     12  C   UNL     1       5.228   4.133  15.627  0.00  0.00    +0.000 A 
ATOM     13  C   UNL     1       5.987   4.293  14.399  0.00  0.00    +0.000 A 
ATOM     14  C   UNL     1       5.674   3.579  13.239  0.00  0.00    +0.000 A 
ATOM     15  C   UNL     1       6.437   3.758  12.081  0.00  0.00    +0.000 A 
ATOM     16  C   UNL     1       7.511   4.650  12.080  0.00  0.00    +0.000 A 
ATOM     17  C   UNL     1       7.823   5.368  13.233  0.00  0.00    +0.000 A 
ATOM     18  C   UNL     1       7.054   5.180  14.377  0.00  0.00    +0.000 A 
ATOM     19  O   UNL     1       7.401   5.909  15.526  0.00  0.00    +0.000 OA
ATOM     20  C   UNL     1       6.718   5.752  16.728  0.00  0.00    +0.000 A 
ATOM     21  O   UNL     1       7.097   6.328  17.745  0.00  0.00    +0.000 OA
ENDBRANCH   2  11
BRANCH   1  23
ATOM     22  N   UNL     1       2.318   7.170  18.216  0.00  0.00    +0.000 NA
ATOM     23  C   UNL     1       3.546   6.819  18.405  0.00  0.00    +0.000 C 
BRANCH  22  26
ATOM     24  O   UNL     1       1.040   8.795  20.025  0.00  0.00    +0.000 OA
ATOM     25  C   UNL     1       1.483   9.248  18.972  0.00  0.00    +0.000 C 
ATOM     26  N   UNL     1       2.091   8.491  17.986  0.00  0.00    +0.000 N 
ATOM     27  H   UNL     1       2.466   8.928  17.151  0.00  0.00    +0.000 HD
BRANCH  25  28
ATOM     28  C   UNL     1       1.327  10.706  18.707  0.00  0.00    +0.000 A 
ATOM     29  C   UNL     1       2.497  11.389  18.323  0.00  0.00    +0.000 A 
ATOM     30  C   UNL     1       2.464  12.745  18.001  0.00  0.00    +0.000 A 
ATOM     31  C   UNL     1       1.260  13.439  18.053  0.00  0.00    +0.000 A 
ATOM     32  C   UNL     1       0.093  12.778  18.436  0.00  0.00    +0.000 A 
ATOM     33  C   UNL     1       0.119  11.415  18.767  0.00  0.00    +0.000 A 
ATOM     34 CL   UNL     1      -1.397  10.705  19.202  0.00  0.00    +0.000 Cl
ENDBRANCH  25  28
ENDBRANCH  22  26
ENDBRANCH   1  23
TORSDOF 4
ENDMDL
MODEL 2
REMARK VINA RESULT:      -9.4      1.047      1.311
REMARK  Name = 
REMARK  4 active torsions:
REMARK  status: ('A' for Active; 'I' for Inactive)
REMARK    1  A    between atoms: C_2  and  C_26
REMARK    2  A    between atoms: N_3  and  N_4
REMARK    3  A    between atoms: C_5  and  C_6
REMARK    4  A    between atoms: C_7  and  C_8
REMARK                            x       y       z     vdW  Elec       q    Type
REMARK                         _______ _______ _______ _____ _____    ______ ____
ROOT
ATOM      1  C   UNL     1       3.396   5.097  18.623  0.00  0.00    +0.000 A 
ATOM      2  C   UNL     1       4.526   4.520  18.045  0.00  0.00    +0.000 A 
ATOM      3  N   UNL     1       4.829   3.406  18.804  0.00  0.00    +0.000 N 
ATOM      4  C   UNL     1       3.906   3.216  19.803  0.00  0.00    +0.000 A 
ATOM      5  C   UNL     1       3.821   2.211  20.775  0.00  0.00    +0.000 A 
ATOM      6  C   UNL     1       2.763   2.279  21.687  0.00  0.00    +0.000 A 
ATOM      7  C   UNL     1       1.831   3.311  21.628  0.00  0.00    +0.000 A 
ATOM      8  C   UNL     1       1.933   4.304  20.650  0.00  0.00    +0.000 A 
ATOM      9  C   UNL     1       2.989   4.258  19.713  0.00  0.00    +0.000 A 
ATOM     10  H   UNL     1       5.636   2.811  18.654  0.00  0.00    +0.000 HD
ENDROOT
BRANCH   2  11
ATOM     11  C   UNL     1       5.347   4.805  16.902  0.00  0.00    +0.000 A 
ATOM     12  C   UNL     1       5.165   4.095  15.777  0.00  0.00    +0.000 A 
ATOM     13  C   UNL     1       5.956   4.344  14.586  0.00  0.00    +0.000 A 
ATOM     14  C   UNL     1       5.764   3.619  13.406  0.00  0.00    +0.000 A 
ATOM     15  C   UNL     1       6.555   3.888  12.285  0.00  0.00    +0.000 A 
ATOM     16  C   UNL     1       7.536   4.880  12.339  0.00  0.00    +0.000 A 
ATOM     17  C   UNL     1       7.727   5.609  13.512  0.00  0.00    +0.000 A 
ATOM     18  C   UNL     1       6.932   5.331  14.619  0.00  0.00    +0.000 A 
ATOM     19  O   UNL     1       7.156   6.075  15.790  0.00  0.00    +0.000 OA
ATOM     20  C   UNL     1       6.440   5.835  16.958  0.00  0.00    +0.000 A 
ATOM     21  O   UNL     1       6.717   6.431  17.997  0.00  0.00    +0.000 OA
ENDBRANCH   2  11
BRANCH   1  23
ATOM     22  N   UNL     1       2.492   7.231  19.073  0.00  0.00    +0.000 NA
ATOM     23  C   UNL     1       2.760   6.326  18.193  0.00  0.00    +0.000 C 
BRANCH  22  26
ATOM     24  O   UNL     1       0.757   8.710  20.605  0.00  0.00    +0.000 OA
ATOM     25  C   UNL     1       1.069   9.076  19.474  0.00  0.00    +0.000 C 
ATOM     26  N   UNL     1       1.892   8.364  18.619  0.00  0.00    +0.000 N 
ATOM     27  H   UNL     1       2.139   8.733  17.707  0.00  0.00    +0.000 HD
BRANCH  25  28
ATOM     28  C   UNL     1       0.498  10.351  18.959  0.00  0.00    +0.000 A 
ATOM     29  C   UNL     1      -0.551  10.222  18.028  0.00  0.00    +0.000 A 
ATOM     30  C   UNL     1      -1.196  11.346  17.513  0.00  0.00    +0.000 A 
ATOM     31  C   UNL     1      -0.808  12.616  17.926  0.00  0.00    +0.000 A 
ATOM     32  C   UNL     1       0.231  12.761  18.844  0.00  0.00    +0.000 A 
ATOM     33  C   UNL     1       0.890  11.636  19.362  0.00  0.00    +0.000 A 
ATOM     34 CL   UNL     1       2.144  11.946  20.511  0.00  0.00    +0.000 Cl
ENDBRANCH  25  28
ENDBRANCH  22  26
ENDBRANCH   1  23
TORSDOF 4
ENDMDL
MODEL 3
REMARK VINA RESULT:      -8.9      3.370      9.245
REMARK  Name = 
REMARK  4 active torsions:
REMARK  status: ('A' for Active; 'I' for Inactive)
REMARK    1  A    between atoms: C_2  and  C_26
REMARK    2  A    between atoms: N_3  and  N_4
REMARK    3  A    between atoms: C_5  and  C_6
REMARK    4  A    between atoms: C_7  and  C_8
REMARK                            x       y       z     vdW  Elec       q    Type
REMARK                         _______ _______ _______ _____ _____    ______ ____
ROOT
ATOM      1  C   UNL     1      -0.888  10.875  18.299  0.00  0.00    +0.000 A 
ATOM      2  C   UNL     1      -0.569  12.038  19.000  0.00  0.00    +0.000 A 
ATOM      3  N   UNL     1      -1.768  12.657  19.298  0.00  0.00    +0.000 N 
ATOM      4  C   UNL     1      -2.837  11.909  18.870  0.00  0.00    +0.000 A 
ATOM      5  C   UNL     1      -4.212  12.149  18.984  0.00  0.00    +0.000 A 
ATOM      6  C   UNL     1      -5.084  11.204  18.435  0.00  0.00    +0.000 A 
ATOM      7  C   UNL     1      -4.598  10.066  17.798  0.00  0.00    +0.000 A 
ATOM      8  C   UNL     1      -3.222   9.844  17.694  0.00  0.00    +0.000 A 
ATOM      9  C   UNL     1      -2.318  10.780  18.244  0.00  0.00    +0.000 A 
ATOM     10  H   UNL     1      -1.852  13.556  19.760  0.00  0.00    +0.000 HD
ENDROOT
BRANCH   2  11
ATOM     11  C   UNL     1       0.644  12.652  19.461  0.00  0.00    +0.000 A 
ATOM     12  C   UNL     1       1.439  13.269  18.572  0.00  0.00    +0.000 A 
ATOM     13  C   UNL     1       2.672  13.918  18.979  0.00  0.00    +0.000 A 
ATOM     14  C   UNL     1       3.499  14.573  18.062  0.00  0.00    +0.000 A 
ATOM     15  C   UNL     1       4.683  15.177  18.498  0.00  0.00    +0.000 A 
ATOM     16  C   UNL     1       5.040  15.130  19.847  0.00  0.00    +0.000 A 
ATOM     17  C   UNL     1       4.215  14.482  20.765  0.00  0.00    +0.000 A 
ATOM     18  C   UNL     1       3.040  13.886  20.317  0.00  0.00    +0.000 A 
ATOM     19  O   UNL     1       2.236  13.231  21.264  0.00  0.00    +0.000 OA
ATOM     20  C   UNL     1       1.068  12.569  20.900  0.00  0.00    +0.000 A 
ATOM     21  O   UNL     1       0.430  11.922  21.728  0.00  0.00    +0.000 OA
ENDBRANCH   2  11
BRANCH   1  23
ATOM     22  N   UNL     1       1.010   9.484  18.479  0.00  0.00    +0.000 NA
ATOM     23  C   UNL     1       0.064   9.943  17.731  0.00  0.00    +0.000 C 
BRANCH  22  26
ATOM     24  O   UNL     1       2.126   7.368  19.831  0.00  0.00    +0.000 OA
ATOM     25  C   UNL     1       2.358   7.548  18.637  0.00  0.00    +0.000 C 
ATOM     26  N   UNL     1       1.881   8.616  17.897  0.00  0.00    +0.000 N 
ATOM     27  H   UNL     1       2.081   8.693  16.906  0.00  0.00    +0.000 HD
BRANCH  25  28
ATOM     28  C   UNL     1       3.246   6.580  17.935  0.00  0.00    +0.000 A 
ATOM     29  C   UNL     1       4.418   7.120  17.371  0.00  0.00    +0.000 A 
ATOM     30  C   UNL     1       5.349   6.303  16.731  0.00  0.00    +0.000 A 
ATOM     31  C   UNL     1       5.127   4.933  16.650  0.00  0.00    +0.000 A 
ATOM     32  C   UNL     1       3.969   4.383  17.200  0.00  0.00    +0.000 A 
ATOM     33  C   UNL     1       3.024   5.199  17.839  0.00  0.00    +0.000 A 
ATOM     34 CL   UNL     1       1.644   4.395  18.501  0.00  0.00    +0.000 Cl
ENDBRANCH  25  28
ENDBRANCH  22  26
ENDBRANCH   1  23
TORSDOF 4
ENDMDL
MODEL 4
REMARK VINA RESULT:      -8.3      3.943     10.859
REMARK  Name = 
REMARK  4 active torsions:
REMARK  status: ('A' for Active; 'I' for Inactive)
REMARK    1  A    between atoms: C_2  and  C_26
REMARK    2  A    between atoms: N_3  and  N_4
REMARK    3  A    between atoms: C_5  and  C_6
REMARK    4  A    between atoms: C_7  and  C_8
REMARK                            x       y       z     vdW  Elec       q    Type
REMARK                         _______ _______ _______ _____ _____    ______ ____
ROOT
ATOM      1  C   UNL     1       0.270  12.389  19.380  0.00  0.00    +0.000 A 
ATOM      2  C   UNL     1      -1.000  12.890  19.096  0.00  0.00    +0.000 A 
ATOM      3  N   UNL     1      -0.844  14.242  18.858  0.00  0.00    +0.000 N 
ATOM      4  C   UNL     1       0.477  14.611  18.920  0.00  0.00    +0.000 A 
ATOM      5  C   UNL     1       1.076  15.862  18.725  0.00  0.00    +0.000 A 
ATOM      6  C   UNL     1       2.465  15.946  18.866  0.00  0.00    +0.000 A 
ATOM      7  C   UNL     1       3.221  14.824  19.189  0.00  0.00    +0.000 A 
ATOM      8  C   UNL     1       2.604  13.583  19.380  0.00  0.00    +0.000 A 
ATOM      9  C   UNL     1       1.204  13.469  19.239  0.00  0.00    +0.000 A 
ATOM     10  H   UNL     1      -1.606  14.885  18.675  0.00  0.00    +0.000 HD
ENDROOT
BRANCH   2  11
ATOM     11  C   UNL     1      -2.316  12.329  18.979  0.00  0.00    +0.000 A 
ATOM     12  C   UNL     1      -3.240  12.641  19.902  0.00  0.00    +0.000 A 
ATOM     13  C   UNL     1      -4.591  12.115  19.832  0.00  0.00    +0.000 A 
ATOM     14  C   UNL     1      -5.563  12.445  20.781  0.00  0.00    +0.000 A 
ATOM     15  C   UNL     1      -6.850  11.908  20.679  0.00  0.00    +0.000 A 
ATOM     16  C   UNL     1      -7.168  11.042  19.630  0.00  0.00    +0.000 A 
ATOM     17  C   UNL     1      -6.203  10.716  18.678  0.00  0.00    +0.000 A 
ATOM     18  C   UNL     1      -4.927  11.258  18.793  0.00  0.00    +0.000 A 
ATOM     19  O   UNL     1      -3.974  10.901  17.825  0.00  0.00    +0.000 OA
ATOM     20  C   UNL     1      -2.662  11.358  17.885  0.00  0.00    +0.000 A 
ATOM     21  O   UNL     1      -1.821  10.958  17.083  0.00  0.00    +0.000 OA
ENDBRANCH   2  11
BRANCH   1  23
ATOM     22  N   UNL     1       1.125  10.246  18.880  0.00  0.00    +0.000 NA
ATOM     23  C   UNL     1       0.576  11.023  19.753  0.00  0.00    +0.000 C 
BRANCH  22  26
ATOM     24  O   UNL     1       2.639   8.505  17.389  0.00  0.00    +0.000 OA
ATOM     25  C   UNL     1       2.201   8.178  18.489  0.00  0.00    +0.000 C 
ATOM     26  N   UNL     1       1.388   8.972  19.278  0.00  0.00    +0.000 N 
ATOM     27  H   UNL     1       1.082   8.658  20.193  0.00  0.00    +0.000 HD
BRANCH  25  28
ATOM     28  C   UNL     1       2.525   6.818  19.004  0.00  0.00    +0.000 A 
ATOM     29  C   UNL     1       1.814   6.410  20.150  0.00  0.00    +0.000 A 
ATOM     30  C   UNL     1       1.997   5.139  20.694  0.00  0.00    +0.000 A 
ATOM     31  C   UNL     1       2.888   4.254  20.098  0.00  0.00    +0.000 A 
ATOM     32  C   UNL     1       3.603   4.644  18.966  0.00  0.00    +0.000 A 
ATOM     33  C   UNL     1       3.429   5.923  18.416  0.00  0.00    +0.000 A 
ATOM     34 CL   UNL     1       4.354   6.277  16.998  0.00  0.00    +0.000 Cl
ENDBRANCH  25  28
ENDBRANCH  22  26
ENDBRANCH   1  23
TORSDOF 4
ENDMDL
MODEL 5
REMARK VINA RESULT:      -8.2      4.625      7.723
REMARK  Name = 
REMARK  4 active torsions:
REMARK  status: ('A' for Active; 'I' for Inactive)
REMARK    1  A    between atoms: C_2  and  C_26
REMARK    2  A    between atoms: N_3  and  N_4
REMARK    3  A    between atoms: C_5  and  C_6
REMARK    4  A    between atoms: C_7  and  C_8
REMARK                            x       y       z     vdW  Elec       q    Type
REMARK                         _______ _______ _______ _____ _____    ______ ____
ROOT
ATOM      1  C   UNL     1       6.136   6.299  16.894  0.00  0.00    +0.000 A 
ATOM      2  C   UNL     1       4.761   6.176  17.089  0.00  0.00    +0.000 A 
ATOM      3  N   UNL     1       4.281   5.424  16.035  0.00  0.00    +0.000 N 
ATOM      4  C   UNL     1       5.299   5.013  15.209  0.00  0.00    +0.000 A 
ATOM      5  C   UNL     1       5.262   4.226  14.052  0.00  0.00    +0.000 A 
ATOM      6  C   UNL     1       6.473   3.975  13.399  0.00  0.00    +0.000 A 
ATOM      7  C   UNL     1       7.670   4.492  13.885  0.00  0.00    +0.000 A 
ATOM      8  C   UNL     1       7.686   5.276  15.043  0.00  0.00    +0.000 A 
ATOM      9  C   UNL     1       6.478   5.541  15.725  0.00  0.00    +0.000 A 
ATOM     10  H   UNL     1       3.302   5.212  15.878  0.00  0.00    +0.000 HD
ENDROOT
BRANCH   2  11
ATOM     11  C   UNL     1       3.829   6.607  18.093  0.00  0.00    +0.000 A 
ATOM     12  C   UNL     1       3.150   7.750  17.901  0.00  0.00    +0.000 A 
ATOM     13  C   UNL     1       2.186   8.232  18.874  0.00  0.00    +0.000 A 
ATOM     14  C   UNL     1       1.465   9.413  18.676  0.00  0.00    +0.000 A 
ATOM     15  C   UNL     1       0.553   9.844  19.644  0.00  0.00    +0.000 A 
ATOM     16  C   UNL     1       0.358   9.097  20.808  0.00  0.00    +0.000 A 
ATOM     17  C   UNL     1       1.072   7.915  21.006  0.00  0.00    +0.000 A 
ATOM     18  C   UNL     1       1.975   7.499  20.034  0.00  0.00    +0.000 A 
ATOM     19  O   UNL     1       2.687   6.311  20.268  0.00  0.00    +0.000 OA
ATOM     20  C   UNL     1       3.643   5.842  19.373  0.00  0.00    +0.000 A 
ATOM     21  O   UNL     1       4.322   4.853  19.642  0.00  0.00    +0.000 OA
ENDBRANCH   2  11
BRANCH   1  23
ATOM     22  N   UNL     1       7.559   8.148  17.256  0.00  0.00    +0.000 NA
ATOM     23  C   UNL     1       7.043   7.063  17.727  0.00  0.00    +0.000 C 
BRANCH  22  26
ATOM     24  O   UNL     1       7.778  10.886  17.231  0.00  0.00    +0.000 OA
ATOM     25  C   UNL     1       8.418  10.208  18.032  0.00  0.00    +0.000 C 
ATOM     26  N   UNL     1       8.407   8.826  18.076  0.00  0.00    +0.000 N 
ATOM     27  H   UNL     1       8.933   8.323  18.781  0.00  0.00    +0.000 HD
BRANCH  25  28
ATOM     28  C   UNL     1       9.305  10.909  19.003  0.00  0.00    +0.000 A 
ATOM     29  C   UNL     1       8.878  10.894  20.345  0.00  0.00    +0.000 A 
ATOM     30  C   UNL     1       9.651  11.475  21.350  0.00  0.00    +0.000 A 
ATOM     31  C   UNL     1      10.864  12.074  21.031  0.00  0.00    +0.000 A 
ATOM     32  C   UNL     1      11.299  12.101  19.706  0.00  0.00    +0.000 A 
ATOM     33  C   UNL     1      10.525  11.524  18.688  0.00  0.00    +0.000 A 
ATOM     34 CL   UNL     1      11.184  11.601  17.091  0.00  0.00    +0.000 Cl
ENDBRANCH  25  28
ENDBRANCH  22  26
ENDBRANCH   1  23
TORSDOF 4
ENDMDL
MODEL 6
REMARK VINA RESULT:      -8.2      4.361      7.528
REMARK  Name = 
REMARK  4 active torsions:
REMARK  status: ('A' for Active; 'I' for Inactive)
REMARK    1  A    between atoms: C_2  and  C_26
REMARK    2  A    between atoms: N_3  and  N_4
REMARK    3  A    between atoms: C_5  and  C_6
REMARK    4  A    between atoms: C_7  and  C_8
REMARK                            x       y       z     vdW  Elec       q    Type
REMARK                         _______ _______ _______ _____ _____    ______ ____
ROOT
ATOM      1  C   UNL     1       6.679   5.660  16.321  0.00  0.00    +0.000 A 
ATOM      2  C   UNL     1       5.430   5.109  16.610  0.00  0.00    +0.000 A 
ATOM      3  N   UNL     1       4.995   4.497  15.451  0.00  0.00    +0.000 N 
ATOM      4  C   UNL     1       5.938   4.582  14.455  0.00  0.00    +0.000 A 
ATOM      5  C   UNL     1       5.917   4.085  13.147  0.00  0.00    +0.000 A 
ATOM      6  C   UNL     1       7.031   4.338  12.339  0.00  0.00    +0.000 A 
ATOM      7  C   UNL     1       8.118   5.058  12.823  0.00  0.00    +0.000 A 
ATOM      8  C   UNL     1       8.120   5.546  14.134  0.00  0.00    +0.000 A 
ATOM      9  C   UNL     1       7.011   5.302  14.973  0.00  0.00    +0.000 A 
ATOM     10  H   UNL     1       4.091   4.052  15.340  0.00  0.00    +0.000 HD
ENDROOT
BRANCH   2  11
ATOM     11  C   UNL     1       4.594   5.030  17.774  0.00  0.00    +0.000 A 
ATOM     12  C   UNL     1       4.471   3.851  18.406  0.00  0.00    +0.000 A 
ATOM     13  C   UNL     1       3.648   3.710  19.594  0.00  0.00    +0.000 A 
ATOM     14  C   UNL     1       3.525   2.491  20.266  0.00  0.00    +0.000 A 
ATOM     15  C   UNL     1       2.715   2.399  21.402  0.00  0.00    +0.000 A 
ATOM     16  C   UNL     1       2.030   3.523  21.869  0.00  0.00    +0.000 A 
ATOM     17  C   UNL     1       2.155   4.742  21.205  0.00  0.00    +0.000 A 
ATOM     18  C   UNL     1       2.965   4.818  20.076  0.00  0.00    +0.000 A 
ATOM     19  O   UNL     1       3.062   6.057  19.422  0.00  0.00    +0.000 OA
ATOM     20  C   UNL     1       3.811   6.216  18.261  0.00  0.00    +0.000 A 
ATOM     21  O   UNL     1       3.805   7.284  17.652  0.00  0.00    +0.000 OA
ENDBRANCH   2  11
BRANCH   1  23
ATOM     22  N   UNL     1       7.506   7.736  17.083  0.00  0.00    +0.000 NA
ATOM     23  C   UNL     1       7.483   6.454  17.229  0.00  0.00    +0.000 C 
BRANCH  22  26
ATOM     24  O   UNL     1       7.695  10.476  17.037  0.00  0.00    +0.000 OA
ATOM     25  C   UNL     1       8.278   9.817  17.895  0.00  0.00    +0.000 C 
ATOM     26  N   UNL     1       8.278   8.435  17.958  0.00  0.00    +0.000 N 
ATOM     27  H   UNL     1       8.753   7.948  18.710  0.00  0.00    +0.000 HD
BRANCH  25  28
ATOM     28  C   UNL     1       9.077  10.541  18.923  0.00  0.00    +0.000 A 
ATOM     29  C   UNL     1       8.617  10.430  20.249  0.00  0.00    +0.000 A 
ATOM     30  C   UNL     1       9.311  11.024  21.303  0.00  0.00    +0.000 A 
ATOM     31  C   UNL     1      10.479  11.734  21.048  0.00  0.00    +0.000 A 
ATOM     32  C   UNL     1      10.946  11.857  19.739  0.00  0.00    +0.000 A 
ATOM     33  C   UNL     1      10.250  11.267  18.674  0.00  0.00    +0.000 A 
ATOM     34 CL   UNL     1      10.944  11.471  17.103  0.00  0.00    +0.000 Cl
ENDBRANCH  25  28
ENDBRANCH  22  26
ENDBRANCH   1  23
TORSDOF 4
ENDMDL
MODEL 7
REMARK VINA RESULT:      -8.1      5.676      9.208
REMARK  Name = 
REMARK  4 active torsions:
REMARK  status: ('A' for Active; 'I' for Inactive)
REMARK    1  A    between atoms: C_2  and  C_26
REMARK    2  A    between atoms: N_3  and  N_4
REMARK    3  A    between atoms: C_5  and  C_6
REMARK    4  A    between atoms: C_7  and  C_8
REMARK                            x       y       z     vdW  Elec       q    Type
REMARK                         _______ _______ _______ _____ _____    ______ ____
ROOT
ATOM      1  C   UNL     1      -0.785  13.140  22.200  0.00  0.00    +0.000 A 
ATOM      2  C   UNL     1      -0.836  11.747  22.242  0.00  0.00    +0.000 A 
ATOM      3  N   UNL     1      -1.936  11.418  23.010  0.00  0.00    +0.000 N 
ATOM      4  C   UNL     1      -2.622  12.539  23.408  0.00  0.00    +0.000 A 
ATOM      5  C   UNL     1      -3.791  12.661  24.169  0.00  0.00    +0.000 A 
ATOM      6  C   UNL     1      -4.261  13.951  24.434  0.00  0.00    +0.000 A 
ATOM      7  C   UNL     1      -3.589  15.071  23.955  0.00  0.00    +0.000 A 
ATOM      8  C   UNL     1      -2.423  14.929  23.196  0.00  0.00    +0.000 A 
ATOM      9  C   UNL     1      -1.928  13.638  22.910  0.00  0.00    +0.000 A 
ATOM     10  H   UNL     1      -2.200  10.471  23.261  0.00  0.00    +0.000 HD
ENDROOT
BRANCH   2  11
ATOM     11  C   UNL     1      -0.063  10.679  21.673  0.00  0.00    +0.000 A 
ATOM     12  C   UNL     1       0.099  10.633  20.341  0.00  0.00    +0.000 A 
ATOM     13  C   UNL     1       0.879   9.584  19.707  0.00  0.00    +0.000 A 
ATOM     14  C   UNL     1       1.063   9.535  18.323  0.00  0.00    +0.000 A 
ATOM     15  C   UNL     1       1.816   8.503  17.755  0.00  0.00    +0.000 A 
ATOM     16  C   UNL     1       2.385   7.520  18.568  0.00  0.00    +0.000 A 
ATOM     17  C   UNL     1       2.208   7.569  19.950  0.00  0.00    +0.000 A 
ATOM     18  C   UNL     1       1.457   8.603  20.500  0.00  0.00    +0.000 A 
ATOM     19  O   UNL     1       1.287   8.618  21.894  0.00  0.00    +0.000 OA
ATOM     20  C   UNL     1       0.516   9.587  22.528  0.00  0.00    +0.000 A 
ATOM     21  O   UNL     1       0.302   9.527  23.737  0.00  0.00    +0.000 OA
ENDBRANCH   2  11
BRANCH   1  23
ATOM     22  N   UNL     1       1.156  14.482  22.285  0.00  0.00    +0.000 NA
ATOM     23  C   UNL     1       0.245  13.929  21.556  0.00  0.00    +0.000 C 
BRANCH  22  26
ATOM     24  O   UNL     1       3.733  13.604  21.920  0.00  0.00    +0.000 OA
ATOM     25  C   UNL     1       3.358  14.676  21.451  0.00  0.00    +0.000 C 
ATOM     26  N   UNL     1       2.097  15.215  21.633  0.00  0.00    +0.000 N 
ATOM     27  H   UNL     1       1.837  16.091  21.194  0.00  0.00    +0.000 HD
BRANCH  25  28
ATOM     28  C   UNL     1       4.332  15.482  20.663  0.00  0.00    +0.000 A 
ATOM     29  C   UNL     1       5.357  16.103  21.403  0.00  0.00    +0.000 A 
ATOM     30  C   UNL     1       6.354  16.843  20.768  0.00  0.00    +0.000 A 
ATOM     31  C   UNL     1       6.346  16.970  19.383  0.00  0.00    +0.000 A 
ATOM     32  C   UNL     1       5.334  16.365  18.636  0.00  0.00    +0.000 A 
ATOM     33  C   UNL     1       4.325  15.624  19.267  0.00  0.00    +0.000 A 
ATOM     34 CL   UNL     1       3.144  14.904  18.230  0.00  0.00    +0.000 Cl
ENDBRANCH  25  28
ENDBRANCH  22  26
ENDBRANCH   1  23
TORSDOF 4
ENDMDL
MODEL 8
REMARK VINA RESULT:      -8.1      3.713     10.779
REMARK  Name = 
REMARK  4 active torsions:
REMARK  status: ('A' for Active; 'I' for Inactive)
REMARK    1  A    between atoms: C_2  and  C_26
REMARK    2  A    between atoms: N_3  and  N_4
REMARK    3  A    between atoms: C_5  and  C_6
REMARK    4  A    between atoms: C_7  and  C_8
REMARK                            x       y       z     vdW  Elec       q    Type
REMARK                         _______ _______ _______ _____ _____    ______ ____
ROOT
ATOM      1  C   UNL     1       0.280  12.324  19.215  0.00  0.00    +0.000 A 
ATOM      2  C   UNL     1      -0.984  12.865  18.983  0.00  0.00    +0.000 A 
ATOM      3  N   UNL     1      -0.802  14.222  18.801  0.00  0.00    +0.000 N 
ATOM      4  C   UNL     1       0.529  14.559  18.847  0.00  0.00    +0.000 A 
ATOM      5  C   UNL     1       1.152  15.803  18.692  0.00  0.00    +0.000 A 
ATOM      6  C   UNL     1       2.545  15.850  18.803  0.00  0.00    +0.000 A 
ATOM      7  C   UNL     1       3.282  14.698  19.059  0.00  0.00    +0.000 A 
ATOM      8  C   UNL     1       2.641  13.464  19.211  0.00  0.00    +0.000 A 
ATOM      9  C   UNL     1       1.236  13.388  19.099  0.00  0.00    +0.000 A 
ATOM     10  H   UNL     1      -1.553  14.890  18.665  0.00  0.00    +0.000 HD
ENDROOT
BRANCH   2  11
ATOM     11  C   UNL     1      -2.316  12.339  18.874  0.00  0.00    +0.000 A 
ATOM     12  C   UNL     1      -3.207  12.621  19.839  0.00  0.00    +0.000 A 
ATOM     13  C   UNL     1      -4.571  12.128  19.779  0.00  0.00    +0.000 A 
ATOM     14  C   UNL     1      -5.509  12.427  20.771  0.00  0.00    +0.000 A 
ATOM     15  C   UNL     1      -6.810  11.924  20.677  0.00  0.00    +0.000 A 
ATOM     16  C   UNL     1      -7.176  11.124  19.592  0.00  0.00    +0.000 A 
ATOM     17  C   UNL     1      -6.245  10.828  18.598  0.00  0.00    +0.000 A 
ATOM     18  C   UNL     1      -4.955  11.337  18.705  0.00  0.00    +0.000 A 
ATOM     19  O   UNL     1      -4.037  11.012  17.693  0.00  0.00    +0.000 OA
ATOM     20  C   UNL     1      -2.713  11.437  17.740  0.00  0.00    +0.000 A 
ATOM     21  O   UNL     1      -1.903  11.063  16.894  0.00  0.00    +0.000 OA
ENDBRANCH   2  11
BRANCH   1  23
ATOM     22  N   UNL     1       1.161  10.211  18.636  0.00  0.00    +0.000 NA
ATOM     23  C   UNL     1       0.562  10.936  19.521  0.00  0.00    +0.000 C 
BRANCH  22  26
ATOM     24  O   UNL     1       2.795   8.572  17.157  0.00  0.00    +0.000 OA
ATOM     25  C   UNL     1       2.274   8.173  18.196  0.00  0.00    +0.000 C 
ATOM     26  N   UNL     1       1.399   8.915  18.970  0.00  0.00    +0.000 N 
ATOM     27  H   UNL     1       1.026   8.542  19.836  0.00  0.00    +0.000 HD
BRANCH  25  28
ATOM     28  C   UNL     1       2.565   6.783  18.646  0.00  0.00    +0.000 A 
ATOM     29  C   UNL     1       3.294   5.986  17.743  0.00  0.00    +0.000 A 
ATOM     30  C   UNL     1       3.668   4.684  18.075  0.00  0.00    +0.000 A 
ATOM     31  C   UNL     1       3.322   4.160  19.316  0.00  0.00    +0.000 A 
ATOM     32  C   UNL     1       2.596   4.936  20.219  0.00  0.00    +0.000 A 
ATOM     33  C   UNL     1       2.212   6.244  19.891  0.00  0.00    +0.000 A 
ATOM     34 CL   UNL     1       1.337   7.110  21.105  0.00  0.00    +0.000 Cl
ENDBRANCH  25  28
ENDBRANCH  22  26
ENDBRANCH   1  23
TORSDOF 4
ENDMDL
MODEL 9
REMARK VINA RESULT:      -8.1      3.485      9.258
REMARK  Name = 
REMARK  4 active torsions:
REMARK  status: ('A' for Active; 'I' for Inactive)
REMARK    1  A    between atoms: C_2  and  C_26
REMARK    2  A    between atoms: N_3  and  N_4
REMARK    3  A    between atoms: C_5  and  C_6
REMARK    4  A    between atoms: C_7  and  C_8
REMARK                            x       y       z     vdW  Elec       q    Type
REMARK                         _______ _______ _______ _____ _____    ______ ____
ROOT
ATOM      1  C   UNL     1      -0.421  10.751  18.382  0.00  0.00    +0.000 A 
ATOM      2  C   UNL     1      -0.146  12.032  18.859  0.00  0.00    +0.000 A 
ATOM      3  N   UNL     1      -1.352  12.705  18.891  0.00  0.00    +0.000 N 
ATOM      4  C   UNL     1      -2.390  11.889  18.512  0.00  0.00    +0.000 A 
ATOM      5  C   UNL     1      -3.762  12.154  18.425  0.00  0.00    +0.000 A 
ATOM      6  C   UNL     1      -4.597  11.119  17.990  0.00  0.00    +0.000 A 
ATOM      7  C   UNL     1      -4.077   9.872  17.657  0.00  0.00    +0.000 A 
ATOM      8  C   UNL     1      -2.704   9.627  17.752  0.00  0.00    +0.000 A 
ATOM      9  C   UNL     1      -1.839  10.652  18.192  0.00  0.00    +0.000 A 
ATOM     10  H   UNL     1      -1.460  13.680  19.148  0.00  0.00    +0.000 HD
ENDROOT
BRANCH   2  11
ATOM     11  C   UNL     1       1.027  12.723  19.314  0.00  0.00    +0.000 A 
ATOM     12  C   UNL     1       1.753  13.424  18.428  0.00  0.00    +0.000 A 
ATOM     13  C   UNL     1       2.943  14.152  18.829  0.00  0.00    +0.000 A 
ATOM     14  C   UNL     1       3.697  14.895  17.916  0.00  0.00    +0.000 A 
ATOM     15  C   UNL     1       4.841  15.575  18.345  0.00  0.00    +0.000 A 
ATOM     16  C   UNL     1       5.232  15.516  19.684  0.00  0.00    +0.000 A 
ATOM     17  C   UNL     1       4.479  14.781  20.599  0.00  0.00    +0.000 A 
ATOM     18  C   UNL     1       3.343  14.110  20.157  0.00  0.00    +0.000 A 
ATOM     19  O   UNL     1       2.612  13.369  21.100  0.00  0.00    +0.000 OA
ATOM     20  C   UNL     1       1.490  12.631  20.741  0.00  0.00    +0.000 A 
ATOM     21  O   UNL     1       0.921  11.914  21.562  0.00  0.00    +0.000 OA
ENDBRANCH   2  11
BRANCH   1  23
ATOM     22  N   UNL     1       1.158   9.160  19.125  0.00  0.00    +0.000 NA
ATOM     23  C   UNL     1       0.561   9.717  18.125  0.00  0.00    +0.000 C 
BRANCH  22  26
ATOM     24  O   UNL     1       1.572   6.963  20.721  0.00  0.00    +0.000 OA
ATOM     25  C   UNL     1       2.183   7.100  19.663  0.00  0.00    +0.000 C 
ATOM     26  N   UNL     1       2.074   8.199  18.830  0.00  0.00    +0.000 N 
ATOM     27  H   UNL     1       2.582   8.240  17.953  0.00  0.00    +0.000 HD
BRANCH  25  28
ATOM     28  C   UNL     1       3.143   6.035  19.257  0.00  0.00    +0.000 A 
ATOM     29  C   UNL     1       3.103   4.850  20.017  0.00  0.00    +0.000 A 
ATOM     30  C   UNL     1       3.920   3.766  19.700  0.00  0.00    +0.000 A 
ATOM     31  C   UNL     1       4.787   3.847  18.615  0.00  0.00    +0.000 A 
ATOM     32  C   UNL     1       4.842   5.016  17.856  0.00  0.00    +0.000 A 
ATOM     33  C   UNL     1       4.028   6.113  18.172  0.00  0.00    +0.000 A 
ATOM     34 CL   UNL     1       4.171   7.493  17.140  0.00  0.00    +0.000 Cl
ENDBRANCH  25  28
ENDBRANCH  22  26
ENDBRANCH   1  23
TORSDOF 4
ENDMDL
