MODEL 1
REMARK VINA RESULT:      -9.6      0.000      0.000
REMARK  Name = 
REMARK  8 active torsions:
REMARK  status: ('A' for Active; 'I' for Inactive)
REMARK    1  A    between atoms: C_1  and  C_2
REMARK    2  A    between atoms: C_2  and  C_3
REMARK    3  A    between atoms: C_2  and  C_4
REMARK    4  A    between atoms: C_2  and  C_14
REMARK    5  A    between atoms: N_6  and  C_7
REMARK    6  A    between atoms: C_7  and  C_8
REMARK    7  A    between atoms: C_22  and  C_23
REMARK    8  A    between atoms: N_25  and  C_26
REMARK                            x       y       z     vdW  Elec       q    Type
REMARK                         _______ _______ _______ _____ _____    ______ ____
ROOT
ATOM      1  C   UNL     1       5.350   4.387  17.210  0.00  0.00    +0.000 C 
ATOM      2  C   UNL     1       5.678   4.110  18.662  0.00  0.00    +0.000 C 
ATOM      3  O   UNL     1       6.177   4.931  19.427  0.00  0.00    +0.000 OA
ATOM      4  N   UNL     1       5.089   2.939  19.115  0.00  0.00    +0.000 N 
ATOM      5  C   UNL     1       3.835   3.110  19.768  0.00  0.00    +0.000 A 
ATOM      6  C   UNL     1       3.638   2.269  20.864  0.00  0.00    +0.000 A 
ATOM      7  C   UNL     1       2.628   2.555  21.762  0.00  0.00    +0.000 A 
ATOM      8  C   UNL     1       1.862   3.702  21.572  0.00  0.00    +0.000 A 
ATOM      9  C   UNL     1       2.042   4.575  20.465  0.00  0.00    +0.000 A 
ATOM     10  C   UNL     1       2.982   4.225  19.480  0.00  0.00    +0.000 A 
ATOM     11  N   UNL     1       3.122   4.926  18.227  0.00  0.00    +0.000 N 
ATOM     12  C   UNL     1       3.815   4.347  17.158  0.00  0.00    +0.000 C 
ATOM     13  O   UNL     1       3.234   3.651  16.322  0.00  0.00    +0.000 OA
ATOM     14  H   UNL     1       5.079   2.143  18.483  0.00  0.00    +0.000 HD
ATOM     15  H   UNL     1       3.062   5.937  18.281  0.00  0.00    +0.000 HD
ENDROOT
BRANCH   9  16
ATOM     16  C   UNL     1       1.361   5.884  20.676  0.00  0.00    +0.000 C 
ATOM     17  O   UNL     1       0.133   5.804  20.642  0.00  0.00    +0.000 OA
ATOM     18  N   UNL     1       2.068   7.072  20.809  0.00  0.00    +0.000 N 
ATOM     19  H   UNL     1       3.071   7.062  20.674  0.00  0.00    +0.000 HD
BRANCH  18  20
ATOM     20  C   UNL     1       1.429   8.362  20.852  0.00  0.00    +0.000 A 
ATOM     21  C   UNL     1       0.943   8.941  22.039  0.00  0.00    +0.000 A 
ATOM     22  C   UNL     1       0.241  10.153  22.042  0.00  0.00    +0.000 A 
ATOM     23  C   UNL     1       0.035  10.832  20.851  0.00  0.00    +0.000 A 
ATOM     24  C   UNL     1       0.540  10.310  19.671  0.00  0.00    +0.000 A 
ATOM     25  C   UNL     1       1.237   9.084  19.664  0.00  0.00    +0.000 A 
ENDBRANCH  18  20
ENDBRANCH   9  16
BRANCH   1  27
ATOM     26  C   UNL     1       6.840   6.486  17.568  0.00  0.00    +0.000 C 
ATOM     27  C   UNL     1       6.065   5.613  16.570  0.00  0.00    +0.000 C 
ATOM     28  C   UNL     1       5.021   6.541  15.894  0.00  0.00    +0.000 C 
BRANCH  27  29
ATOM     29  C   UNL     1       6.999   5.104  15.431  0.00  0.00    +0.000 C 
ATOM     30  O   UNL     1       8.106   4.619  15.656  0.00  0.00    +0.000 OA
ATOM     31  N   UNL     1       6.552   5.303  14.153  0.00  0.00    +0.000 N 
ATOM     32  H   UNL     1       5.617   5.674  13.992  0.00  0.00    +0.000 HD
BRANCH  31  33
ATOM     33  C   UNL     1       7.326   5.003  12.972  0.00  0.00    +0.000 C 
BRANCH  33  34
ATOM     34  C   UNL     1       6.765   3.804  12.268  0.00  0.00    +0.000 A 
ATOM     35  C   UNL     1       5.389   3.584  12.190  0.00  0.00    +0.000 A 
ATOM     36  C   UNL     1       4.893   2.438  11.563  0.00  0.00    +0.000 A 
ATOM     37  C   UNL     1       5.774   1.498  11.025  0.00  0.00    +0.000 A 
ATOM     38  C   UNL     1       7.147   1.708  11.104  0.00  0.00    +0.000 A 
ATOM     39  C   UNL     1       7.641   2.857  11.728  0.00  0.00    +0.000 A 
ENDBRANCH  33  34
ENDBRANCH  31  33
ENDBRANCH  27  29
ENDBRANCH   1  27
TORSDOF 6
ENDMDL
MODEL 2
REMARK VINA RESULT:      -9.1      2.342      7.790
REMARK  Name = 
REMARK  8 active torsions:
REMARK  status: ('A' for Active; 'I' for Inactive)
REMARK    1  A    between atoms: C_1  and  C_2
REMARK    2  A    between atoms: C_2  and  C_3
REMARK    3  A    between atoms: C_2  and  C_4
REMARK    4  A    between atoms: C_2  and  C_14
REMARK    5  A    between atoms: N_6  and  C_7
REMARK    6  A    between atoms: C_7  and  C_8
REMARK    7  A    between atoms: C_22  and  C_23
REMARK    8  A    between atoms: N_25  and  C_26
REMARK                            x       y       z     vdW  Elec       q    Type
REMARK                         _______ _______ _______ _____ _____    ______ ____
ROOT
ATOM      1  C   UNL     1       3.130   3.471  19.217  0.00  0.00    +0.000 C 
ATOM      2  C   UNL     1       3.023   4.081  17.835  0.00  0.00    +0.000 C 
ATOM      3  O   UNL     1       2.578   5.203  17.607  0.00  0.00    +0.000 OA
ATOM      4  N   UNL     1       3.747   3.366  16.892  0.00  0.00    +0.000 N 
ATOM      5  C   UNL     1       5.063   3.851  16.651  0.00  0.00    +0.000 A 
ATOM      6  C   UNL     1       5.465   3.783  15.316  0.00  0.00    +0.000 A 
ATOM      7  C   UNL     1       6.566   4.508  14.904  0.00  0.00    +0.000 A 
ATOM      8  C   UNL     1       7.219   5.324  15.824  0.00  0.00    +0.000 A 
ATOM      9  C   UNL     1       6.831   5.412  17.188  0.00  0.00    +0.000 A 
ATOM     10  C   UNL     1       5.791   4.583  17.645  0.00  0.00    +0.000 A 
ATOM     11  N   UNL     1       5.434   4.445  19.036  0.00  0.00    +0.000 N 
ATOM     12  C   UNL     1       4.643   3.375  19.468  0.00  0.00    +0.000 C 
ATOM     13  O   UNL     1       5.150   2.313  19.837  0.00  0.00    +0.000 OA
ATOM     14  H   UNL     1       3.725   2.351  16.954  0.00  0.00    +0.000 HD
ATOM     15  H   UNL     1       5.432   5.303  19.575  0.00  0.00    +0.000 HD
ENDROOT
BRANCH   9  16
ATOM     16  C   UNL     1       7.443   6.591  17.863  0.00  0.00    +0.000 C 
ATOM     17  O   UNL     1       7.593   6.434  19.075  0.00  0.00    +0.000 OA
ATOM     18  N   UNL     1       7.725   7.769  17.183  0.00  0.00    +0.000 N 
ATOM     19  H   UNL     1       7.428   7.860  16.219  0.00  0.00    +0.000 HD
BRANCH  18  20
ATOM     20  C   UNL     1       8.166   8.969  17.845  0.00  0.00    +0.000 A 
ATOM     21  C   UNL     1       7.904  10.260  17.353  0.00  0.00    +0.000 A 
ATOM     22  C   UNL     1       8.423  11.409  17.963  0.00  0.00    +0.000 A 
ATOM     23  C   UNL     1       9.198  11.290  19.107  0.00  0.00    +0.000 A 
ATOM     24  C   UNL     1       9.438  10.034  19.642  0.00  0.00    +0.000 A 
ATOM     25  C   UNL     1       8.925   8.876  19.023  0.00  0.00    +0.000 A 
ENDBRANCH  18  20
ENDBRANCH   9  16
BRANCH   1  27
ATOM     26  C   UNL     1       2.385   3.475  21.708  0.00  0.00    +0.000 C 
ATOM     27  C   UNL     1       2.253   4.127  20.323  0.00  0.00    +0.000 C 
ATOM     28  C   UNL     1       0.753   4.031  19.935  0.00  0.00    +0.000 C 
BRANCH  27  29
ATOM     29  C   UNL     1       2.591   5.647  20.388  0.00  0.00    +0.000 C 
ATOM     30  O   UNL     1       3.678   6.094  20.029  0.00  0.00    +0.000 OA
ATOM     31  N   UNL     1       1.636   6.453  20.947  0.00  0.00    +0.000 N 
ATOM     32  H   UNL     1       0.730   6.066  21.205  0.00  0.00    +0.000 HD
BRANCH  31  33
ATOM     33  C   UNL     1       1.816   7.863  21.196  0.00  0.00    +0.000 C 
BRANCH  33  34
ATOM     34  C   UNL     1       1.108   8.674  20.152  0.00  0.00    +0.000 A 
ATOM     35  C   UNL     1       1.601   8.772  18.850  0.00  0.00    +0.000 A 
ATOM     36  C   UNL     1       0.945   9.568  17.906  0.00  0.00    +0.000 A 
ATOM     37  C   UNL     1      -0.199  10.281  18.267  0.00  0.00    +0.000 A 
ATOM     38  C   UNL     1      -0.692  10.194  19.564  0.00  0.00    +0.000 A 
ATOM     39  C   UNL     1      -0.037   9.395  20.506  0.00  0.00    +0.000 A 
ENDBRANCH  33  34
ENDBRANCH  31  33
ENDBRANCH  27  29
ENDBRANCH   1  27
TORSDOF 6
ENDMDL
MODEL 3
REMARK VINA RESULT:      -9.0      0.877      1.476
REMARK  Name = 
REMARK  8 active torsions:
REMARK  status: ('A' for Active; 'I' for Inactive)
REMARK    1  A    between atoms: C_1  and  C_2
REMARK    2  A    between atoms: C_2  and  C_3
REMARK    3  A    between atoms: C_2  and  C_4
REMARK    4  A    between atoms: C_2  and  C_14
REMARK    5  A    between atoms: N_6  and  C_7
REMARK    6  A    between atoms: C_7  and  C_8
REMARK    7  A    between atoms: C_22  and  C_23
REMARK    8  A    between atoms: N_25  and  C_26
REMARK                            x       y       z     vdW  Elec       q    Type
REMARK                         _______ _______ _______ _____ _____    ______ ____
ROOT
ATOM      1  C   UNL     1       5.370   4.560  17.215  0.00  0.00    +0.000 C 
ATOM      2  C   UNL     1       5.615   4.321  18.690  0.00  0.00    +0.000 C 
ATOM      3  O   UNL     1       6.207   5.104  19.429  0.00  0.00    +0.000 OA
ATOM      4  N   UNL     1       4.852   3.272  19.182  0.00  0.00    +0.000 N 
ATOM      5  C   UNL     1       3.619   3.657  19.781  0.00  0.00    +0.000 A 
ATOM      6  C   UNL     1       3.273   2.914  20.911  0.00  0.00    +0.000 A 
ATOM      7  C   UNL     1       2.291   3.391  21.757  0.00  0.00    +0.000 A 
ATOM      8  C   UNL     1       1.703   4.623  21.483  0.00  0.00    +0.000 A 
ATOM      9  C   UNL     1       2.037   5.398  20.340  0.00  0.00    +0.000 A 
ATOM     10  C   UNL     1       2.943   4.864  19.407  0.00  0.00    +0.000 A 
ATOM     11  N   UNL     1       3.216   5.467  18.125  0.00  0.00    +0.000 N 
ATOM     12  C   UNL     1       3.848   4.737  17.112  0.00  0.00    +0.000 C 
ATOM     13  O   UNL     1       3.196   4.085  16.293  0.00  0.00    +0.000 OA
ATOM     14  H   UNL     1       4.744   2.452  18.591  0.00  0.00    +0.000 HD
ATOM     15  H   UNL     1       3.301   6.477  18.125  0.00  0.00    +0.000 HD
ENDROOT
BRANCH   9  16
ATOM     16  C   UNL     1       1.546   6.800  20.460  0.00  0.00    +0.000 C 
ATOM     17  O   UNL     1       2.268   7.619  19.888  0.00  0.00    +0.000 OA
ATOM     18  N   UNL     1       0.432   7.132  21.219  0.00  0.00    +0.000 N 
ATOM     19  H   UNL     1      -0.011   6.412  21.777  0.00  0.00    +0.000 HD
BRANCH  18  20
ATOM     20  C   UNL     1       0.037   8.492  21.478  0.00  0.00    +0.000 A 
ATOM     21  C   UNL     1      -0.046   9.474  20.474  0.00  0.00    +0.000 A 
ATOM     22  C   UNL     1      -0.340  10.812  20.764  0.00  0.00    +0.000 A 
ATOM     23  C   UNL     1      -0.589  11.194  22.073  0.00  0.00    +0.000 A 
ATOM     24  C   UNL     1      -0.559  10.242  23.080  0.00  0.00    +0.000 A 
ATOM     25  C   UNL     1      -0.252   8.896  22.791  0.00  0.00    +0.000 A 
ENDBRANCH  18  20
ENDBRANCH   9  16
BRANCH   1  27
ATOM     26  C   UNL     1       7.195   6.388  17.508  0.00  0.00    +0.000 C 
ATOM     27  C   UNL     1       6.272   5.635  16.539  0.00  0.00    +0.000 C 
ATOM     28  C   UNL     1       5.388   6.709  15.851  0.00  0.00    +0.000 C 
BRANCH  27  29
ATOM     29  C   UNL     1       7.092   4.951  15.404  0.00  0.00    +0.000 C 
ATOM     30  O   UNL     1       8.020   4.180  15.636  0.00  0.00    +0.000 OA
ATOM     31  N   UNL     1       6.774   5.322  14.125  0.00  0.00    +0.000 N 
ATOM     32  H   UNL     1       5.978   5.935  13.955  0.00  0.00    +0.000 HD
BRANCH  31  33
ATOM     33  C   UNL     1       7.497   4.884  12.955  0.00  0.00    +0.000 C 
BRANCH  33  34
ATOM     34  C   UNL     1       6.797   3.727  12.308  0.00  0.00    +0.000 A 
ATOM     35  C   UNL     1       7.511   2.694  11.699  0.00  0.00    +0.000 A 
ATOM     36  C   UNL     1       6.834   1.646  11.067  0.00  0.00    +0.000 A 
ATOM     37  C   UNL     1       5.438   1.638  11.030  0.00  0.00    +0.000 A 
ATOM     38  C   UNL     1       4.721   2.667  11.629  0.00  0.00    +0.000 A 
ATOM     39  C   UNL     1       5.399   3.711  12.264  0.00  0.00    +0.000 A 
ENDBRANCH  33  34
ENDBRANCH  31  33
ENDBRANCH  27  29
ENDBRANCH   1  27
TORSDOF 6
ENDMDL
MODEL 4
REMARK VINA RESULT:      -8.9      0.596      1.321
REMARK  Name = 
REMARK  8 active torsions:
REMARK  status: ('A' for Active; 'I' for Inactive)
REMARK    1  A    between atoms: C_1  and  C_2
REMARK    2  A    between atoms: C_2  and  C_3
REMARK    3  A    between atoms: C_2  and  C_4
REMARK    4  A    between atoms: C_2  and  C_14
REMARK    5  A    between atoms: N_6  and  C_7
REMARK    6  A    between atoms: C_7  and  C_8
REMARK    7  A    between atoms: C_22  and  C_23
REMARK    8  A    between atoms: N_25  and  C_26
REMARK                            x       y       z     vdW  Elec       q    Type
REMARK                         _______ _______ _______ _____ _____    ______ ____
ROOT
ATOM      1  C   UNL     1       5.493   4.507  17.171  0.00  0.00    +0.000 C 
ATOM      2  C   UNL     1       5.814   4.221  18.624  0.00  0.00    +0.000 C 
ATOM      3  O   UNL     1       6.279   5.048  19.404  0.00  0.00    +0.000 OA
ATOM      4  N   UNL     1       5.257   3.027  19.055  0.00  0.00    +0.000 N 
ATOM      5  C   UNL     1       3.992   3.150  19.696  0.00  0.00    +0.000 A 
ATOM      6  C   UNL     1       3.809   2.289  20.779  0.00  0.00    +0.000 A 
ATOM      7  C   UNL     1       2.781   2.532  21.669  0.00  0.00    +0.000 A 
ATOM      8  C   UNL     1       1.981   3.657  21.486  0.00  0.00    +0.000 A 
ATOM      9  C   UNL     1       2.146   4.550  20.392  0.00  0.00    +0.000 A 
ATOM     10  C   UNL     1       3.107   4.243  19.413  0.00  0.00    +0.000 A 
ATOM     11  N   UNL     1       3.238   4.964  18.170  0.00  0.00    +0.000 N 
ATOM     12  C   UNL     1       3.961   4.421  17.102  0.00  0.00    +0.000 C 
ATOM     13  O   UNL     1       3.411   3.719  16.251  0.00  0.00    +0.000 OA
ATOM     14  H   UNL     1       5.278   2.239  18.412  0.00  0.00    +0.000 HD
ATOM     15  H   UNL     1       3.147   5.971  18.237  0.00  0.00    +0.000 HD
ENDROOT
BRANCH   9  16
ATOM     16  C   UNL     1       1.423   5.834  20.613  0.00  0.00    +0.000 C 
ATOM     17  O   UNL     1       0.198   5.709  20.610  0.00  0.00    +0.000 OA
ATOM     18  N   UNL     1       2.088   7.048  20.720  0.00  0.00    +0.000 N 
ATOM     19  H   UNL     1       3.088   7.075  20.560  0.00  0.00    +0.000 HD
BRANCH  18  20
ATOM     20  C   UNL     1       1.403   8.314  20.773  0.00  0.00    +0.000 A 
ATOM     21  C   UNL     1       1.180   9.116  19.638  0.00  0.00    +0.000 A 
ATOM     22  C   UNL     1       0.596  10.386  19.729  0.00  0.00    +0.000 A 
ATOM     23  C   UNL     1       0.193  10.872  20.963  0.00  0.00    +0.000 A 
ATOM     24  C   UNL     1       0.358  10.088  22.093  0.00  0.00    +0.000 A 
ATOM     25  C   UNL     1       0.956   8.814  22.006  0.00  0.00    +0.000 A 
ENDBRANCH  18  20
ENDBRANCH   9  16
BRANCH   1  27
ATOM     26  C   UNL     1       7.032   6.569  17.545  0.00  0.00    +0.000 C 
ATOM     27  C   UNL     1       6.176   5.764  16.555  0.00  0.00    +0.000 C 
ATOM     28  C   UNL     1       5.098   6.739  16.013  0.00  0.00    +0.000 C 
BRANCH  27  29
ATOM     29  C   UNL     1       7.020   5.315  15.324  0.00  0.00    +0.000 C 
ATOM     30  O   UNL     1       8.085   5.851  15.026  0.00  0.00    +0.000 OA
ATOM     31  N   UNL     1       6.465   4.340  14.539  0.00  0.00    +0.000 N 
ATOM     32  H   UNL     1       5.600   3.887  14.824  0.00  0.00    +0.000 HD
BRANCH  31  33
ATOM     33  C   UNL     1       7.043   3.880  13.298  0.00  0.00    +0.000 C 
BRANCH  33  34
ATOM     34  C   UNL     1       5.985   3.287  12.416  0.00  0.00    +0.000 A 
ATOM     35  C   UNL     1       6.183   2.071  11.761  0.00  0.00    +0.000 A 
ATOM     36  C   UNL     1       5.197   1.559  10.912  0.00  0.00    +0.000 A 
ATOM     37  C   UNL     1       4.016   2.272  10.703  0.00  0.00    +0.000 A 
ATOM     38  C   UNL     1       3.814   3.487  11.348  0.00  0.00    +0.000 A 
ATOM     39  C   UNL     1       4.799   3.995  12.199  0.00  0.00    +0.000 A 
ENDBRANCH  33  34
ENDBRANCH  31  33
ENDBRANCH  27  29
ENDBRANCH   1  27
TORSDOF 6
ENDMDL
MODEL 5
REMARK VINA RESULT:      -8.8      1.125      1.314
REMARK  Name = 
REMARK  8 active torsions:
REMARK  status: ('A' for Active; 'I' for Inactive)
REMARK    1  A    between atoms: C_1  and  C_2
REMARK    2  A    between atoms: C_2  and  C_3
REMARK    3  A    between atoms: C_2  and  C_4
REMARK    4  A    between atoms: C_2  and  C_14
REMARK    5  A    between atoms: N_6  and  C_7
REMARK    6  A    between atoms: C_7  and  C_8
REMARK    7  A    between atoms: C_22  and  C_23
REMARK    8  A    between atoms: N_25  and  C_26
REMARK                            x       y       z     vdW  Elec       q    Type
REMARK                         _______ _______ _______ _____ _____    ______ ____
ROOT
ATOM      1  C   UNL     1       5.365   4.143  17.420  0.00  0.00    +0.000 C 
ATOM      2  C   UNL     1       5.527   3.908  18.908  0.00  0.00    +0.000 C 
ATOM      3  O   UNL     1       6.140   4.658  19.663  0.00  0.00    +0.000 OA
ATOM      4  N   UNL     1       4.670   2.923  19.376  0.00  0.00    +0.000 N 
ATOM      5  C   UNL     1       3.442   3.403  19.914  0.00  0.00    +0.000 A 
ATOM      6  C   UNL     1       2.994   2.703  21.036  0.00  0.00    +0.000 A 
ATOM      7  C   UNL     1       2.012   3.261  21.832  0.00  0.00    +0.000 A 
ATOM      8  C   UNL     1       1.527   4.528  21.518  0.00  0.00    +0.000 A 
ATOM      9  C   UNL     1       1.966   5.260  20.382  0.00  0.00    +0.000 A 
ATOM     10  C   UNL     1       2.872   4.650  19.497  0.00  0.00    +0.000 A 
ATOM     11  N   UNL     1       3.243   5.213  18.222  0.00  0.00    +0.000 N 
ATOM     12  C   UNL     1       3.865   4.425  17.247  0.00  0.00    +0.000 C 
ATOM     13  O   UNL     1       3.205   3.810  16.407  0.00  0.00    +0.000 OA
ATOM     14  H   UNL     1       4.530   2.104  18.790  0.00  0.00    +0.000 HD
ATOM     15  H   UNL     1       3.400   6.215  18.215  0.00  0.00    +0.000 HD
ENDROOT
BRANCH   9  16
ATOM     16  C   UNL     1       1.572   6.695  20.464  0.00  0.00    +0.000 C 
ATOM     17  O   UNL     1       2.313   7.441  19.822  0.00  0.00    +0.000 OA
ATOM     18  N   UNL     1       0.522   7.130  21.262  0.00  0.00    +0.000 N 
ATOM     19  H   UNL     1       0.063   6.464  21.873  0.00  0.00    +0.000 HD
BRANCH  18  20
ATOM     20  C   UNL     1       0.228   8.523  21.480  0.00  0.00    +0.000 A 
ATOM     21  C   UNL     1      -0.093   9.054  22.742  0.00  0.00    +0.000 A 
ATOM     22  C   UNL     1      -0.468  10.393  22.912  0.00  0.00    +0.000 A 
ATOM     23  C   UNL     1      -0.501  11.243  21.818  0.00  0.00    +0.000 A 
ATOM     24  C   UNL     1      -0.147  10.761  20.568  0.00  0.00    +0.000 A 
ATOM     25  C   UNL     1       0.220   9.411  20.392  0.00  0.00    +0.000 A 
ENDBRANCH  18  20
ENDBRANCH   9  16
BRANCH   1  27
ATOM     26  C   UNL     1       7.828   4.656  16.766  0.00  0.00    +0.000 C 
ATOM     27  C   UNL     1       6.370   5.141  16.773  0.00  0.00    +0.000 C 
ATOM     28  C   UNL     1       6.358   6.483  17.552  0.00  0.00    +0.000 C 
BRANCH  27  29
ATOM     29  C   UNL     1       5.883   5.468  15.330  0.00  0.00    +0.000 C 
ATOM     30  O   UNL     1       5.489   6.587  15.007  0.00  0.00    +0.000 OA
ATOM     31  N   UNL     1       5.838   4.414  14.457  0.00  0.00    +0.000 N 
ATOM     32  H   UNL     1       6.202   3.505  14.736  0.00  0.00    +0.000 HD
BRANCH  31  33
ATOM     33  C   UNL     1       5.308   4.500  13.117  0.00  0.00    +0.000 C 
BRANCH  33  34
ATOM     34  C   UNL     1       5.855   3.394  12.265  0.00  0.00    +0.000 A 
ATOM     35  C   UNL     1       5.042   2.352  11.817  0.00  0.00    +0.000 A 
ATOM     36  C   UNL     1       5.585   1.311  11.057  0.00  0.00    +0.000 A 
ATOM     37  C   UNL     1       6.948   1.301  10.759  0.00  0.00    +0.000 A 
ATOM     38  C   UNL     1       7.766   2.333  11.207  0.00  0.00    +0.000 A 
ATOM     39  C   UNL     1       7.220   3.375  11.963  0.00  0.00    +0.000 A 
ENDBRANCH  33  34
ENDBRANCH  31  33
ENDBRANCH  27  29
ENDBRANCH   1  27
TORSDOF 6
ENDMDL
MODEL 6
REMARK VINA RESULT:      -8.7      0.845      1.324
REMARK  Name = 
REMARK  8 active torsions:
REMARK  status: ('A' for Active; 'I' for Inactive)
REMARK    1  A    between atoms: C_1  and  C_2
REMARK    2  A    between atoms: C_2  and  C_3
REMARK    3  A    between atoms: C_2  and  C_4
REMARK    4  A    between atoms: C_2  and  C_14
REMARK    5  A    between atoms: N_6  and  C_7
REMARK    6  A    between atoms: C_7  and  C_8
REMARK    7  A    between atoms: C_22  and  C_23
REMARK    8  A    between atoms: N_25  and  C_26
REMARK                            x       y       z     vdW  Elec       q    Type
REMARK                         _______ _______ _______ _____ _____    ______ ____
ROOT
ATOM      1  C   UNL     1       5.368   4.269  17.289  0.00  0.00    +0.000 C 
ATOM      2  C   UNL     1       5.663   4.007  18.751  0.00  0.00    +0.000 C 
ATOM      3  O   UNL     1       6.155   4.834  19.516  0.00  0.00    +0.000 OA
ATOM      4  N   UNL     1       5.055   2.847  19.206  0.00  0.00    +0.000 N 
ATOM      5  C   UNL     1       3.790   3.038  19.831  0.00  0.00    +0.000 A 
ATOM      6  C   UNL     1       3.563   2.212  20.933  0.00  0.00    +0.000 A 
ATOM      7  C   UNL     1       2.538   2.518  21.807  0.00  0.00    +0.000 A 
ATOM      8  C   UNL     1       1.786   3.670  21.588  0.00  0.00    +0.000 A 
ATOM      9  C   UNL     1       1.997   4.527  20.474  0.00  0.00    +0.000 A 
ATOM     10  C   UNL     1       2.953   4.157  19.513  0.00  0.00    +0.000 A 
ATOM     11  N   UNL     1       3.124   4.841  18.254  0.00  0.00    +0.000 N 
ATOM     12  C   UNL     1       3.834   4.242  17.207  0.00  0.00    +0.000 C 
ATOM     13  O   UNL     1       3.264   3.541  16.368  0.00  0.00    +0.000 OA
ATOM     14  H   UNL     1       5.050   2.043  18.584  0.00  0.00    +0.000 HD
ATOM     15  H   UNL     1       3.073   5.852  18.294  0.00  0.00    +0.000 HD
ENDROOT
BRANCH   9  16
ATOM     16  C   UNL     1       1.324   5.844  20.655  0.00  0.00    +0.000 C 
ATOM     17  O   UNL     1       0.095   5.768  20.647  0.00  0.00    +0.000 OA
ATOM     18  N   UNL     1       2.036   7.034  20.735  0.00  0.00    +0.000 N 
ATOM     19  H   UNL     1       3.037   7.016  20.580  0.00  0.00    +0.000 HD
BRANCH  18  20
ATOM     20  C   UNL     1       1.402   8.327  20.748  0.00  0.00    +0.000 A 
ATOM     21  C   UNL     1       1.267   9.130  19.601  0.00  0.00    +0.000 A 
ATOM     22  C   UNL     1       0.731  10.423  19.658  0.00  0.00    +0.000 A 
ATOM     23  C   UNL     1       0.289  10.933  20.868  0.00  0.00    +0.000 A 
ATOM     24  C   UNL     1       0.367  10.150  22.009  0.00  0.00    +0.000 A 
ATOM     25  C   UNL     1       0.916   8.852  21.957  0.00  0.00    +0.000 A 
ENDBRANCH  18  20
ENDBRANCH   9  16
BRANCH   1  27
ATOM     26  C   UNL     1       7.639   5.381  16.689  0.00  0.00    +0.000 C 
ATOM     27  C   UNL     1       6.107   5.480  16.649  0.00  0.00    +0.000 C 
ATOM     28  C   UNL     1       5.731   6.786  17.400  0.00  0.00    +0.000 C 
BRANCH  27  29
ATOM     29  C   UNL     1       5.597   5.656  15.187  0.00  0.00    +0.000 C 
ATOM     30  O   UNL     1       5.147   6.721  14.770  0.00  0.00    +0.000 OA
ATOM     31  N   UNL     1       5.599   4.528  14.410  0.00  0.00    +0.000 N 
ATOM     32  H   UNL     1       6.008   3.665  14.765  0.00  0.00    +0.000 HD
BRANCH  31  33
ATOM     33  C   UNL     1       5.059   4.469  13.073  0.00  0.00    +0.000 C 
BRANCH  33  34
ATOM     34  C   UNL     1       5.762   3.417  12.269  0.00  0.00    +0.000 A 
ATOM     35  C   UNL     1       5.085   2.296  11.787  0.00  0.00    +0.000 A 
ATOM     36  C   UNL     1       5.772   1.309  11.074  0.00  0.00    +0.000 A 
ATOM     37  C   UNL     1       7.145   1.433  10.856  0.00  0.00    +0.000 A 
ATOM     38  C   UNL     1       7.828   2.544  11.339  0.00  0.00    +0.000 A 
ATOM     39  C   UNL     1       7.138   3.532  12.047  0.00  0.00    +0.000 A 
ENDBRANCH  33  34
ENDBRANCH  31  33
ENDBRANCH  27  29
ENDBRANCH   1  27
TORSDOF 6
ENDMDL
MODEL 7
REMARK VINA RESULT:      -8.6      2.162      4.745
REMARK  Name = 
REMARK  8 active torsions:
REMARK  status: ('A' for Active; 'I' for Inactive)
REMARK    1  A    between atoms: C_1  and  C_2
REMARK    2  A    between atoms: C_2  and  C_3
REMARK    3  A    between atoms: C_2  and  C_4
REMARK    4  A    between atoms: C_2  and  C_14
REMARK    5  A    between atoms: N_6  and  C_7
REMARK    6  A    between atoms: C_7  and  C_8
REMARK    7  A    between atoms: C_22  and  C_23
REMARK    8  A    between atoms: N_25  and  C_26
REMARK                            x       y       z     vdW  Elec       q    Type
REMARK                         _______ _______ _______ _____ _____    ______ ____
ROOT
ATOM      1  C   UNL     1       5.152   4.454  17.125  0.00  0.00    +0.000 C 
ATOM      2  C   UNL     1       5.546   4.201  18.565  0.00  0.00    +0.000 C 
ATOM      3  O   UNL     1       6.048   5.045  19.303  0.00  0.00    +0.000 OA
ATOM      4  N   UNL     1       5.015   3.015  19.050  0.00  0.00    +0.000 N 
ATOM      5  C   UNL     1       3.783   3.151  19.750  0.00  0.00    +0.000 A 
ATOM      6  C   UNL     1       3.657   2.313  20.859  0.00  0.00    +0.000 A 
ATOM      7  C   UNL     1       2.674   2.574  21.794  0.00  0.00    +0.000 A 
ATOM      8  C   UNL     1       1.863   3.694  21.627  0.00  0.00    +0.000 A 
ATOM      9  C   UNL     1       1.970   4.562  20.507  0.00  0.00    +0.000 A 
ATOM     10  C   UNL     1       2.882   4.235  19.488  0.00  0.00    +0.000 A 
ATOM     11  N   UNL     1       2.949   4.929  18.225  0.00  0.00    +0.000 N 
ATOM     12  C   UNL     1       3.619   4.364  17.134  0.00  0.00    +0.000 C 
ATOM     13  O   UNL     1       3.029   3.642  16.327  0.00  0.00    +0.000 OA
ATOM     14  H   UNL     1       5.006   2.214  18.424  0.00  0.00    +0.000 HD
ATOM     15  H   UNL     1       2.858   5.937  18.274  0.00  0.00    +0.000 HD
ENDROOT
BRANCH   9  16
ATOM     16  C   UNL     1       1.255   5.849  20.735  0.00  0.00    +0.000 C 
ATOM     17  O   UNL     1       0.030   5.741  20.686  0.00  0.00    +0.000 OA
ATOM     18  N   UNL     1       1.931   7.052  20.898  0.00  0.00    +0.000 N 
ATOM     19  H   UNL     1       2.936   7.069  20.774  0.00  0.00    +0.000 HD
BRANCH  18  20
ATOM     20  C   UNL     1       1.260   8.325  20.959  0.00  0.00    +0.000 A 
ATOM     21  C   UNL     1       0.681   8.835  22.136  0.00  0.00    +0.000 A 
ATOM     22  C   UNL     1      -0.048  10.030  22.148  0.00  0.00    +0.000 A 
ATOM     23  C   UNL     1      -0.189  10.763  20.980  0.00  0.00    +0.000 A 
ATOM     24  C   UNL     1       0.407  10.310  19.814  0.00  0.00    +0.000 A 
ATOM     25  C   UNL     1       1.132   9.101  19.796  0.00  0.00    +0.000 A 
ENDBRANCH  18  20
ENDBRANCH   9  16
BRANCH   1  27
ATOM     26  C   UNL     1       4.907   6.947  16.430  0.00  0.00    +0.000 C 
ATOM     27  C   UNL     1       5.801   5.698  16.448  0.00  0.00    +0.000 C 
ATOM     28  C   UNL     1       6.138   5.378  14.967  0.00  0.00    +0.000 C 
BRANCH  27  29
ATOM     29  C   UNL     1       7.159   5.993  17.152  0.00  0.00    +0.000 C 
ATOM     30  O   UNL     1       8.044   5.147  17.254  0.00  0.00    +0.000 OA
ATOM     31  N   UNL     1       7.282   7.229  17.728  0.00  0.00    +0.000 N 
ATOM     32  H   UNL     1       6.550   7.926  17.601  0.00  0.00    +0.000 HD
BRANCH  31  33
ATOM     33  C   UNL     1       8.417   7.641  18.519  0.00  0.00    +0.000 C 
BRANCH  33  34
ATOM     34  C   UNL     1       8.562   9.133  18.492  0.00  0.00    +0.000 A 
ATOM     35  C   UNL     1       7.942   9.906  17.509  0.00  0.00    +0.000 A 
ATOM     36  C   UNL     1       8.126  11.291  17.481  0.00  0.00    +0.000 A 
ATOM     37  C   UNL     1       8.944  11.906  18.430  0.00  0.00    +0.000 A 
ATOM     38  C   UNL     1       9.570  11.142  19.408  0.00  0.00    +0.000 A 
ATOM     39  C   UNL     1       9.382   9.757  19.437  0.00  0.00    +0.000 A 
ENDBRANCH  33  34
ENDBRANCH  31  33
ENDBRANCH  27  29
ENDBRANCH   1  27
TORSDOF 6
ENDMDL
MODEL 8
REMARK VINA RESULT:      -8.4      2.409      8.392
REMARK  Name = 
REMARK  8 active torsions:
REMARK  status: ('A' for Active; 'I' for Inactive)
REMARK    1  A    between atoms: C_1  and  C_2
REMARK    2  A    between atoms: C_2  and  C_3
REMARK    3  A    between atoms: C_2  and  C_4
REMARK    4  A    between atoms: C_2  and  C_14
REMARK    5  A    between atoms: N_6  and  C_7
REMARK    6  A    between atoms: C_7  and  C_8
REMARK    7  A    between atoms: C_22  and  C_23
REMARK    8  A    between atoms: N_25  and  C_26
REMARK                            x       y       z     vdW  Elec       q    Type
REMARK                         _______ _______ _______ _____ _____    ______ ____
ROOT
ATOM      1  C   UNL     1       3.080   4.004  19.149  0.00  0.00    +0.000 C 
ATOM      2  C   UNL     1       3.072   4.526  17.727  0.00  0.00    +0.000 C 
ATOM      3  O   UNL     1       2.718   5.660  17.410  0.00  0.00    +0.000 OA
ATOM      4  N   UNL     1       3.776   3.701  16.864  0.00  0.00    +0.000 N 
ATOM      5  C   UNL     1       5.133   4.075  16.649  0.00  0.00    +0.000 A 
ATOM      6  C   UNL     1       5.579   3.890  15.340  0.00  0.00    +0.000 A 
ATOM      7  C   UNL     1       6.745   4.507  14.930  0.00  0.00    +0.000 A 
ATOM      8  C   UNL     1       7.421   5.334  15.824  0.00  0.00    +0.000 A 
ATOM      9  C   UNL     1       6.988   5.539  17.161  0.00  0.00    +0.000 A 
ATOM     10  C   UNL     1       5.874   4.818  17.625  0.00  0.00    +0.000 A 
ATOM     11  N   UNL     1       5.455   4.799  19.006  0.00  0.00    +0.000 N 
ATOM     12  C   UNL     1       4.571   3.818  19.470  0.00  0.00    +0.000 C 
ATOM     13  O   UNL     1       4.985   2.751  19.928  0.00  0.00    +0.000 OA
ATOM     14  H   UNL     1       3.678   2.697  16.989  0.00  0.00    +0.000 HD
ATOM     15  H   UNL     1       5.495   5.689  19.488  0.00  0.00    +0.000 HD
ENDROOT
BRANCH   9  16
ATOM     16  C   UNL     1       7.659   6.714  17.786  0.00  0.00    +0.000 C 
ATOM     17  O   UNL     1       8.115   6.477  18.904  0.00  0.00    +0.000 OA
ATOM     18  N   UNL     1       7.676   7.964  17.180  0.00  0.00    +0.000 N 
ATOM     19  H   UNL     1       7.145   8.103  16.329  0.00  0.00    +0.000 HD
BRANCH  18  20
ATOM     20  C   UNL     1       8.176   9.145  17.836  0.00  0.00    +0.000 A 
ATOM     21  C   UNL     1       7.990  10.444  17.328  0.00  0.00    +0.000 A 
ATOM     22  C   UNL     1       8.567  11.568  17.933  0.00  0.00    +0.000 A 
ATOM     23  C   UNL     1       9.324  11.418  19.085  0.00  0.00    +0.000 A 
ATOM     24  C   UNL     1       9.488  10.157  19.635  0.00  0.00    +0.000 A 
ATOM     25  C   UNL     1       8.918   9.022  19.021  0.00  0.00    +0.000 A 
ENDBRANCH  18  20
ENDBRANCH   9  16
BRANCH   1  27
ATOM     26  C   UNL     1       2.404   4.360  21.633  0.00  0.00    +0.000 C 
ATOM     27  C   UNL     1       2.211   4.793  20.172  0.00  0.00    +0.000 C 
ATOM     28  C   UNL     1       0.706   4.595  19.851  0.00  0.00    +0.000 C 
BRANCH  27  29
ATOM     29  C   UNL     1       2.500   6.314  19.998  0.00  0.00    +0.000 C 
ATOM     30  O   UNL     1       3.636   6.780  20.060  0.00  0.00    +0.000 OA
ATOM     31  N   UNL     1       1.403   7.122  19.855  0.00  0.00    +0.000 N 
ATOM     32  H   UNL     1       0.475   6.710  19.772  0.00  0.00    +0.000 HD
BRANCH  31  33
ATOM     33  C   UNL     1       1.465   8.563  19.797  0.00  0.00    +0.000 C 
BRANCH  33  34
ATOM     34  C   UNL     1       0.657   9.167  20.906  0.00  0.00    +0.000 A 
ATOM     35  C   UNL     1      -0.267  10.185  20.660  0.00  0.00    +0.000 A 
ATOM     36  C   UNL     1      -0.979  10.760  21.717  0.00  0.00    +0.000 A 
ATOM     37  C   UNL     1      -0.756  10.330  23.026  0.00  0.00    +0.000 A 
ATOM     38  C   UNL     1       0.166   9.321  23.278  0.00  0.00    +0.000 A 
ATOM     39  C   UNL     1       0.875   8.744  22.220  0.00  0.00    +0.000 A 
ENDBRANCH  33  34
ENDBRANCH  31  33
ENDBRANCH  27  29
ENDBRANCH   1  27
TORSDOF 6
ENDMDL
MODEL 9
REMARK VINA RESULT:      -8.3      5.404      9.984
REMARK  Name = 
REMARK  8 active torsions:
REMARK  status: ('A' for Active; 'I' for Inactive)
REMARK    1  A    between atoms: C_1  and  C_2
REMARK    2  A    between atoms: C_2  and  C_3
REMARK    3  A    between atoms: C_2  and  C_4
REMARK    4  A    between atoms: C_2  and  C_14
REMARK    5  A    between atoms: N_6  and  C_7
REMARK    6  A    between atoms: C_7  and  C_8
REMARK    7  A    between atoms: C_22  and  C_23
REMARK    8  A    between atoms: N_25  and  C_26
REMARK                            x       y       z     vdW  Elec       q    Type
REMARK                         _______ _______ _______ _____ _____    ______ ____
ROOT
ATOM      1  C   UNL     1       0.701  11.743  19.463  0.00  0.00    +0.000 C 
ATOM      2  C   UNL     1      -0.074  12.606  18.488  0.00  0.00    +0.000 C 
ATOM      3  O   UNL     1      -1.168  12.305  18.017  0.00  0.00    +0.000 OA
ATOM      4  N   UNL     1       0.437  13.893  18.412  0.00  0.00    +0.000 N 
ATOM      5  C   UNL     1      -0.201  14.843  19.259  0.00  0.00    +0.000 A 
ATOM      6  C   UNL     1      -0.349  16.110  18.692  0.00  0.00    +0.000 A 
ATOM      7  C   UNL     1      -1.225  17.010  19.267  0.00  0.00    +0.000 A 
ATOM      8  C   UNL     1      -1.971  16.611  20.374  0.00  0.00    +0.000 A 
ATOM      9  C   UNL     1      -1.839  15.328  20.970  0.00  0.00    +0.000 A 
ATOM     10  C   UNL     1      -0.861  14.451  20.469  0.00  0.00    +0.000 A 
ATOM     11  N   UNL     1      -0.506  13.205  21.104  0.00  0.00    +0.000 N 
ATOM     12  C   UNL     1       0.683  12.547  20.771  0.00  0.00    +0.000 C 
ATOM     13  O   UNL     1       1.730  12.772  21.382  0.00  0.00    +0.000 OA
ATOM     14  H   UNL     1       1.448  13.999  18.422  0.00  0.00    +0.000 HD
ATOM     15  H   UNL     1      -1.282  12.661  21.465  0.00  0.00    +0.000 HD
ENDROOT
BRANCH   9  16
ATOM     16  C   UNL     1      -2.973  15.027  21.890  0.00  0.00    +0.000 C 
ATOM     17  O   UNL     1      -2.609  14.728  23.028  0.00  0.00    +0.000 OA
ATOM     18  N   UNL     1      -4.292  15.008  21.457  0.00  0.00    +0.000 N 
ATOM     19  H   UNL     1      -4.484  15.118  20.469  0.00  0.00    +0.000 HD
BRANCH  18  20
ATOM     20  C   UNL     1      -5.382  14.564  22.287  0.00  0.00    +0.000 A 
ATOM     21  C   UNL     1      -6.170  15.440  23.056  0.00  0.00    +0.000 A 
ATOM     22  C   UNL     1      -7.162  14.976  23.929  0.00  0.00    +0.000 A 
ATOM     23  C   UNL     1      -7.410  13.616  24.029  0.00  0.00    +0.000 A 
ATOM     24  C   UNL     1      -6.682  12.730  23.251  0.00  0.00    +0.000 A 
ATOM     25  C   UNL     1      -5.674  13.194  22.380  0.00  0.00    +0.000 A 
ENDBRANCH  18  20
ENDBRANCH   9  16
BRANCH   1  27
ATOM     26  C   UNL     1      -1.134   9.957  19.010  0.00  0.00    +0.000 C 
ATOM     27  C   UNL     1       0.284  10.244  19.528  0.00  0.00    +0.000 C 
ATOM     28  C   UNL     1       0.323   9.748  20.998  0.00  0.00    +0.000 C 
BRANCH  27  29
ATOM     29  C   UNL     1       1.342   9.402  18.754  0.00  0.00    +0.000 C 
ATOM     30  O   UNL     1       1.723   9.701  17.624  0.00  0.00    +0.000 OA
ATOM     31  N   UNL     1       1.766   8.255  19.371  0.00  0.00    +0.000 N 
ATOM     32  H   UNL     1       1.463   8.045  20.320  0.00  0.00    +0.000 HD
BRANCH  31  33
ATOM     33  C   UNL     1       2.652   7.292  18.761  0.00  0.00    +0.000 C 
BRANCH  33  34
ATOM     34  C   UNL     1       2.157   5.898  19.003  0.00  0.00    +0.000 A 
ATOM     35  C   UNL     1       1.851   5.448  20.288  0.00  0.00    +0.000 A 
ATOM     36  C   UNL     1       1.430   4.130  20.492  0.00  0.00    +0.000 A 
ATOM     37  C   UNL     1       1.331   3.253  19.411  0.00  0.00    +0.000 A 
ATOM     38  C   UNL     1       1.640   3.692  18.129  0.00  0.00    +0.000 A 
ATOM     39  C   UNL     1       2.057   5.011  17.926  0.00  0.00    +0.000 A 
ENDBRANCH  33  34
ENDBRANCH  31  33
ENDBRANCH  27  29
ENDBRANCH   1  27
TORSDOF 6
ENDMDL
