MODEL 1
REMARK VINA RESULT:      -8.5      0.000      0.000
REMARK  Name = 
REMARK  6 active torsions:
REMARK  status: ('A' for Active; 'I' for Inactive)
REMARK    1  A    between atoms: C_2  and  O_3
REMARK    2  A    between atoms: C_2  and  C_4
REMARK    3  A    between atoms: C_9  and  N_10
REMARK    4  A    between atoms: N_11  and  C_12
REMARK    5  A    between atoms: C_19  and  C_20
REMARK    6  A    between atoms: N_22  and  C_23
REMARK                            x       y       z     vdW  Elec       q    Type
REMARK                         _______ _______ _______ _____ _____    ______ ____
ROOT
ATOM      1  C   UNL     1       2.071   7.825  18.998  0.00  0.00    +0.000 A 
ATOM      2  C   UNL     1       2.272   8.740  17.946  0.00  0.00    +0.000 A 
ATOM      3  C   UNL     1       1.790  10.046  17.994  0.00  0.00    +0.000 A 
ATOM      4  C   UNL     1       1.068  10.453  19.106  0.00  0.00    +0.000 A 
ATOM      5  O   UNL     1       0.461  11.718  19.029  0.00  0.00    +0.000 OA
ATOM      6  C   UNL     1      -0.606  11.975  19.880  0.00  0.00    +0.000 A 
ATOM      7  O   UNL     1      -1.540  12.701  19.555  0.00  0.00    +0.000 OA
ATOM      8  C   UNL     1      -0.499  11.388  21.228  0.00  0.00    +0.000 A 
ATOM      9  C   UNL     1       0.205  10.238  21.364  0.00  0.00    +0.000 A 
ATOM     10  C   UNL     1       0.879   9.619  20.208  0.00  0.00    +0.000 A 
ATOM     11  C   UNL     1       1.384   8.290  20.147  0.00  0.00    +0.000 A 
ENDROOT
BRANCH   8  12
ATOM     12  C   UNL     1      -1.104  12.064  22.438  0.00  0.00    +0.000 C 
ATOM     13  O   UNL     1      -1.180  11.422  23.487  0.00  0.00    +0.000 OA
ATOM     14  N   UNL     1      -1.558  13.368  22.272  0.00  0.00    +0.000 N 
ATOM     15  H   UNL     1      -1.555  13.749  21.326  0.00  0.00    +0.000 HD
BRANCH  14  16
ATOM     16  C   UNL     1      -2.094  14.222  23.281  0.00  0.00    +0.000 A 
ATOM     17  C   UNL     1      -3.464  14.451  23.453  0.00  0.00    +0.000 A 
ATOM     18  C   UNL     1      -3.937  15.304  24.466  0.00  0.00    +0.000 A 
ATOM     19  C   UNL     1      -3.051  15.950  25.318  0.00  0.00    +0.000 A 
ATOM     20  C   UNL     1      -1.685  15.728  25.171  0.00  0.00    +0.000 A 
ATOM     21  C   UNL     1      -1.213  14.858  24.172  0.00  0.00    +0.000 A 
ENDBRANCH  14  16
ENDBRANCH   8  12
BRANCH   1  23
ATOM     22  N   UNL     1       2.536   5.646  19.612  0.00  0.00    +0.000 NA
ATOM     23  N   UNL     1       2.642   6.548  18.755  0.00  0.00    +0.000 NA
BRANCH  22  29
ATOM     24  C   UNL     1       2.715   3.146  19.687  0.00  0.00    +0.000 A 
ATOM     25  C   UNL     1       3.123   1.936  19.067  0.00  0.00    +0.000 A 
ATOM     26  C   UNL     1       3.817   1.932  17.859  0.00  0.00    +0.000 A 
ATOM     27  C   UNL     1       4.117   3.141  17.251  0.00  0.00    +0.000 A 
ATOM     28  C   UNL     1       3.706   4.343  17.844  0.00  0.00    +0.000 A 
ATOM     29  C   UNL     1       2.997   4.388  19.071  0.00  0.00    +0.000 A 
BRANCH  24  31
ATOM     30  O   UNL     1       2.606   2.718  22.030  0.00  0.00    +0.000 OA
ATOM     31  C   UNL     1       2.006   2.981  20.999  0.00  0.00    +0.000 C 
BRANCH  31  32
ATOM     32  O   UNL     1       0.676   3.137  20.970  0.00  0.00    +0.000 OA
ATOM     33  H   UNL     1       0.330   3.820  21.576  0.00  0.00    +0.000 HD
ENDBRANCH  31  32
ENDBRANCH  24  31
ENDBRANCH  22  29
ENDBRANCH   1  23
TORSDOF 6
ENDMDL
MODEL 2
REMARK VINA RESULT:      -8.4      2.745      3.783
REMARK  Name = 
REMARK  6 active torsions:
REMARK  status: ('A' for Active; 'I' for Inactive)
REMARK    1  A    between atoms: C_2  and  O_3
REMARK    2  A    between atoms: C_2  and  C_4
REMARK    3  A    between atoms: C_9  and  N_10
REMARK    4  A    between atoms: N_11  and  C_12
REMARK    5  A    between atoms: C_19  and  C_20
REMARK    6  A    between atoms: N_22  and  C_23
REMARK                            x       y       z     vdW  Elec       q    Type
REMARK                         _______ _______ _______ _____ _____    ______ ____
ROOT
ATOM      1  C   UNL     1       2.621   7.446  18.593  0.00  0.00    +0.000 A 
ATOM      2  C   UNL     1       2.397   6.799  19.823  0.00  0.00    +0.000 A 
ATOM      3  C   UNL     1       1.559   7.330  20.802  0.00  0.00    +0.000 A 
ATOM      4  C   UNL     1       0.944   8.550  20.566  0.00  0.00    +0.000 A 
ATOM      5  O   UNL     1       0.251   9.120  21.647  0.00  0.00    +0.000 OA
ATOM      6  C   UNL     1       0.018  10.489  21.614  0.00  0.00    +0.000 A 
ATOM      7  O   UNL     1      -0.009  11.170  22.634  0.00  0.00    +0.000 OA
ATOM      8  C   UNL     1      -0.279  11.051  20.284  0.00  0.00    +0.000 A 
ATOM      9  C   UNL     1       0.258  10.437  19.203  0.00  0.00    +0.000 A 
ATOM     10  C   UNL     1       1.077   9.219  19.349  0.00  0.00    +0.000 A 
ATOM     11  C   UNL     1       1.929   8.660  18.357  0.00  0.00    +0.000 A 
ENDROOT
BRANCH   8  12
ATOM     12  C   UNL     1      -1.196  12.242  20.114  0.00  0.00    +0.000 C 
ATOM     13  O   UNL     1      -0.964  13.028  19.194  0.00  0.00    +0.000 OA
ATOM     14  N   UNL     1      -2.232  12.379  21.032  0.00  0.00    +0.000 N 
ATOM     15  H   UNL     1      -2.247  11.734  21.822  0.00  0.00    +0.000 HD
BRANCH  14  16
ATOM     16  C   UNL     1      -3.255  13.374  21.025  0.00  0.00    +0.000 A 
ATOM     17  C   UNL     1      -3.119  14.625  21.636  0.00  0.00    +0.000 A 
ATOM     18  C   UNL     1      -4.162  15.568  21.598  0.00  0.00    +0.000 A 
ATOM     19  C   UNL     1      -5.358  15.276  20.959  0.00  0.00    +0.000 A 
ATOM     20  C   UNL     1      -5.510  14.040  20.336  0.00  0.00    +0.000 A 
ATOM     21  C   UNL     1      -4.460  13.105  20.355  0.00  0.00    +0.000 A 
ENDBRANCH  14  16
ENDBRANCH   8  12
BRANCH   1  23
ATOM     22  N   UNL     1       4.642   7.199  17.497  0.00  0.00    +0.000 NA
ATOM     23  N   UNL     1       3.504   6.740  17.734  0.00  0.00    +0.000 NA
BRANCH  22  29
ATOM     24  C   UNL     1       6.339   5.355  17.434  0.00  0.00    +0.000 A 
ATOM     25  C   UNL     1       7.030   4.362  16.692  0.00  0.00    +0.000 A 
ATOM     26  C   UNL     1       6.854   4.222  15.317  0.00  0.00    +0.000 A 
ATOM     27  C   UNL     1       5.983   5.078  14.660  0.00  0.00    +0.000 A 
ATOM     28  C   UNL     1       5.282   6.054  15.383  0.00  0.00    +0.000 A 
ATOM     29  C   UNL     1       5.433   6.224  16.783  0.00  0.00    +0.000 A 
BRANCH  24  31
ATOM     30  O   UNL     1       7.814   5.395  19.307  0.00  0.00    +0.000 OA
ATOM     31  C   UNL     1       6.662   5.394  18.899  0.00  0.00    +0.000 C 
BRANCH  31  32
ATOM     32  O   UNL     1       5.613   5.426  19.730  0.00  0.00    +0.000 OA
ATOM     33  H   UNL     1       4.741   5.399  19.290  0.00  0.00    +0.000 HD
ENDBRANCH  31  32
ENDBRANCH  24  31
ENDBRANCH  22  29
ENDBRANCH   1  23
TORSDOF 6
ENDMDL
MODEL 3
REMARK VINA RESULT:      -8.3      2.530      3.505
REMARK  Name = 
REMARK  6 active torsions:
REMARK  status: ('A' for Active; 'I' for Inactive)
REMARK    1  A    between atoms: C_2  and  O_3
REMARK    2  A    between atoms: C_2  and  C_4
REMARK    3  A    between atoms: C_9  and  N_10
REMARK    4  A    between atoms: N_11  and  C_12
REMARK    5  A    between atoms: C_19  and  C_20
REMARK    6  A    between atoms: N_22  and  C_23
REMARK                            x       y       z     vdW  Elec       q    Type
REMARK                         _______ _______ _______ _____ _____    ______ ____
ROOT
ATOM      1  C   UNL     1       2.691   7.023  18.853  0.00  0.00    +0.000 A 
ATOM      2  C   UNL     1       2.311   6.136  19.877  0.00  0.00    +0.000 A 
ATOM      3  C   UNL     1       1.464   6.517  20.916  0.00  0.00    +0.000 A 
ATOM      4  C   UNL     1       0.998   7.822  20.955  0.00  0.00    +0.000 A 
ATOM      5  O   UNL     1       0.291   8.200  22.109  0.00  0.00    +0.000 OA
ATOM      6  C   UNL     1       0.205   9.555  22.398  0.00  0.00    +0.000 A 
ATOM      7  O   UNL     1       0.174   9.975  23.550  0.00  0.00    +0.000 OA
ATOM      8  C   UNL     1       0.065  10.446  21.232  0.00  0.00    +0.000 A 
ATOM      9  C   UNL     1       0.614  10.045  20.059  0.00  0.00    +0.000 A 
ATOM     10  C   UNL     1       1.288   8.739  19.944  0.00  0.00    +0.000 A 
ATOM     11  C   UNL     1       2.149   8.332  18.886  0.00  0.00    +0.000 A 
ENDROOT
BRANCH   8  12
ATOM     12  C   UNL     1      -0.707  11.744  21.313  0.00  0.00    +0.000 C 
ATOM     13  O   UNL     1      -1.311  12.125  20.309  0.00  0.00    +0.000 OA
ATOM     14  N   UNL     1      -0.661  12.432  22.521  0.00  0.00    +0.000 N 
ATOM     15  H   UNL     1      -0.028  12.079  23.237  0.00  0.00    +0.000 HD
BRANCH  14  16
ATOM     16  C   UNL     1      -1.365  13.629  22.850  0.00  0.00    +0.000 A 
ATOM     17  C   UNL     1      -2.646  13.643  23.412  0.00  0.00    +0.000 A 
ATOM     18  C   UNL     1      -3.293  14.854  23.716  0.00  0.00    +0.000 A 
ATOM     19  C   UNL     1      -2.676  16.070  23.456  0.00  0.00    +0.000 A 
ATOM     20  C   UNL     1      -1.397  16.079  22.907  0.00  0.00    +0.000 A 
ATOM     21  C   UNL     1      -0.741  14.868  22.623  0.00  0.00    +0.000 A 
ENDBRANCH  14  16
ENDBRANCH   8  12
BRANCH   1  23
ATOM     22  N   UNL     1       4.628   7.009  17.590  0.00  0.00    +0.000 NA
ATOM     23  N   UNL     1       3.557   6.440  17.889  0.00  0.00    +0.000 NA
BRANCH  22  29
ATOM     24  C   UNL     1       6.447   5.310  17.297  0.00  0.00    +0.000 A 
ATOM     25  C   UNL     1       7.157   4.420  16.448  0.00  0.00    +0.000 A 
ATOM     26  C   UNL     1       6.896   4.350  15.082  0.00  0.00    +0.000 A 
ATOM     27  C   UNL     1       5.921   5.173  14.539  0.00  0.00    +0.000 A 
ATOM     28  C   UNL     1       5.202   6.046  15.368  0.00  0.00    +0.000 A 
ATOM     29  C   UNL     1       5.437   6.144  16.763  0.00  0.00    +0.000 A 
BRANCH  24  31
ATOM     30  O   UNL     1       8.034   5.122  19.067  0.00  0.00    +0.000 OA
ATOM     31  C   UNL     1       6.869   5.287  18.737  0.00  0.00    +0.000 C 
BRANCH  31  32
ATOM     32  O   UNL     1       5.891   5.455  19.636  0.00  0.00    +0.000 OA
ATOM     33  H   UNL     1       4.994   5.256  19.307  0.00  0.00    +0.000 HD
ENDBRANCH  31  32
ENDBRANCH  24  31
ENDBRANCH  22  29
ENDBRANCH   1  23
TORSDOF 6
ENDMDL
MODEL 4
REMARK VINA RESULT:      -8.3      2.843      3.855
REMARK  Name = 
REMARK  6 active torsions:
REMARK  status: ('A' for Active; 'I' for Inactive)
REMARK    1  A    between atoms: C_2  and  O_3
REMARK    2  A    between atoms: C_2  and  C_4
REMARK    3  A    between atoms: C_9  and  N_10
REMARK    4  A    between atoms: N_11  and  C_12
REMARK    5  A    between atoms: C_19  and  C_20
REMARK    6  A    between atoms: N_22  and  C_23
REMARK                            x       y       z     vdW  Elec       q    Type
REMARK                         _______ _______ _______ _____ _____    ______ ____
ROOT
ATOM      1  C   UNL     1       2.842   7.018  18.679  0.00  0.00    +0.000 A 
ATOM      2  C   UNL     1       2.519   6.098  19.694  0.00  0.00    +0.000 A 
ATOM      3  C   UNL     1       1.702   6.436  20.771  0.00  0.00    +0.000 A 
ATOM      4  C   UNL     1       1.208   7.729  20.859  0.00  0.00    +0.000 A 
ATOM      5  O   UNL     1       0.536   8.063  22.046  0.00  0.00    +0.000 OA
ATOM      6  C   UNL     1       0.430   9.409  22.370  0.00  0.00    +0.000 A 
ATOM      7  O   UNL     1       0.433   9.802  23.533  0.00  0.00    +0.000 OA
ATOM      8  C   UNL     1       0.230  10.324  21.232  0.00  0.00    +0.000 A 
ATOM      9  C   UNL     1       0.744   9.963  20.031  0.00  0.00    +0.000 A 
ATOM     10  C   UNL     1       1.442   8.675  19.861  0.00  0.00    +0.000 A 
ATOM     11  C   UNL     1       2.272   8.313  18.763  0.00  0.00    +0.000 A 
ENDROOT
BRANCH   8  12
ATOM     12  C   UNL     1      -0.568  11.601  21.372  0.00  0.00    +0.000 C 
ATOM     13  O   UNL     1      -0.349  12.514  20.575  0.00  0.00    +0.000 OA
ATOM     14  N   UNL     1      -1.485  11.662  22.416  0.00  0.00    +0.000 N 
ATOM     15  H   UNL     1      -1.487  10.892  23.084  0.00  0.00    +0.000 HD
BRANCH  14  16
ATOM     16  C   UNL     1      -2.391  12.728  22.697  0.00  0.00    +0.000 A 
ATOM     17  C   UNL     1      -3.711  12.763  22.233  0.00  0.00    +0.000 A 
ATOM     18  C   UNL     1      -4.561  13.840  22.540  0.00  0.00    +0.000 A 
ATOM     19  C   UNL     1      -4.106  14.904  23.307  0.00  0.00    +0.000 A 
ATOM     20  C   UNL     1      -2.800  14.884  23.787  0.00  0.00    +0.000 A 
ATOM     21  C   UNL     1      -1.956  13.797  23.498  0.00  0.00    +0.000 A 
ENDBRANCH  14  16
ENDBRANCH   8  12
BRANCH   1  23
ATOM     22  N   UNL     1       4.836   6.935  17.511  0.00  0.00    +0.000 NA
ATOM     23  N   UNL     1       3.684   6.477  17.671  0.00  0.00    +0.000 NA
BRANCH  22  29
ATOM     24  C   UNL     1       6.819   5.517  16.929  0.00  0.00    +0.000 A 
ATOM     25  C   UNL     1       7.466   4.644  16.015  0.00  0.00    +0.000 A 
ATOM     26  C   UNL     1       6.914   4.354  14.769  0.00  0.00    +0.000 A 
ATOM     27  C   UNL     1       5.707   4.935  14.414  0.00  0.00    +0.000 A 
ATOM     28  C   UNL     1       5.050   5.788  15.314  0.00  0.00    +0.000 A 
ATOM     29  C   UNL     1       5.578   6.104  16.591  0.00  0.00    +0.000 A 
BRANCH  24  31
ATOM     30  O   UNL     1       7.780   4.847  19.006  0.00  0.00    +0.000 OA
ATOM     31  C   UNL     1       7.558   5.751  18.215  0.00  0.00    +0.000 C 
BRANCH  31  32
ATOM     32  O   UNL     1       7.955   7.009  18.441  0.00  0.00    +0.000 OA
ATOM     33  H   UNL     1       8.461   7.416  17.711  0.00  0.00    +0.000 HD
ENDBRANCH  31  32
ENDBRANCH  24  31
ENDBRANCH  22  29
ENDBRANCH   1  23
TORSDOF 6
ENDMDL
MODEL 5
REMARK VINA RESULT:      -8.3      2.135      3.302
REMARK  Name = 
REMARK  6 active torsions:
REMARK  status: ('A' for Active; 'I' for Inactive)
REMARK    1  A    between atoms: C_2  and  O_3
REMARK    2  A    between atoms: C_2  and  C_4
REMARK    3  A    between atoms: C_9  and  N_10
REMARK    4  A    between atoms: N_11  and  C_12
REMARK    5  A    between atoms: C_19  and  C_20
REMARK    6  A    between atoms: N_22  and  C_23
REMARK                            x       y       z     vdW  Elec       q    Type
REMARK                         _______ _______ _______ _____ _____    ______ ____
ROOT
ATOM      1  C   UNL     1       2.316   7.844  18.923  0.00  0.00    +0.000 A 
ATOM      2  C   UNL     1       2.125   7.141  20.128  0.00  0.00    +0.000 A 
ATOM      3  C   UNL     1       1.262   7.593  21.124  0.00  0.00    +0.000 A 
ATOM      4  C   UNL     1       0.585   8.788  20.932  0.00  0.00    +0.000 A 
ATOM      5  O   UNL     1      -0.136   9.281  22.033  0.00  0.00    +0.000 OA
ATOM      6  C   UNL     1      -0.439  10.637  22.049  0.00  0.00    +0.000 A 
ATOM      7  O   UNL     1      -0.500  11.278  23.093  0.00  0.00    +0.000 OA
ATOM      8  C   UNL     1      -0.765  11.231  20.740  0.00  0.00    +0.000 A 
ATOM      9  C   UNL     1      -0.197  10.685  19.638  0.00  0.00    +0.000 A 
ATOM     10  C   UNL     1       0.683   9.506  19.741  0.00  0.00    +0.000 A 
ATOM     11  C   UNL     1       1.563   9.029  18.730  0.00  0.00    +0.000 A 
ENDROOT
BRANCH   8  12
ATOM     12  C   UNL     1      -1.742  12.379  20.612  0.00  0.00    +0.000 C 
ATOM     13  O   UNL     1      -1.603  13.158  19.668  0.00  0.00    +0.000 OA
ATOM     14  N   UNL     1      -2.722  12.487  21.593  0.00  0.00    +0.000 N 
ATOM     15  H   UNL     1      -2.658  11.856  22.391  0.00  0.00    +0.000 HD
BRANCH  14  16
ATOM     16  C   UNL     1      -3.786  13.437  21.638  0.00  0.00    +0.000 A 
ATOM     17  C   UNL     1      -3.643  14.733  22.145  0.00  0.00    +0.000 A 
ATOM     18  C   UNL     1      -4.727  15.629  22.165  0.00  0.00    +0.000 A 
ATOM     19  C   UNL     1      -5.972  15.244  21.687  0.00  0.00    +0.000 A 
ATOM     20  C   UNL     1      -6.132  13.963  21.168  0.00  0.00    +0.000 A 
ATOM     21  C   UNL     1      -5.044  13.074  21.129  0.00  0.00    +0.000 A 
ENDBRANCH  14  16
ENDBRANCH   8  12
BRANCH   1  23
ATOM     22  N   UNL     1       3.783   6.144  18.372  0.00  0.00    +0.000 NA
ATOM     23  N   UNL     1       3.234   7.216  18.040  0.00  0.00    +0.000 NA
BRANCH  22  29
ATOM     24  C   UNL     1       4.746   4.198  17.120  0.00  0.00    +0.000 A 
ATOM     25  C   UNL     1       5.385   3.694  15.957  0.00  0.00    +0.000 A 
ATOM     26  C   UNL     1       5.798   4.537  14.928  0.00  0.00    +0.000 A 
ATOM     27  C   UNL     1       5.581   5.901  15.047  0.00  0.00    +0.000 A 
ATOM     28  C   UNL     1       4.938   6.411  16.183  0.00  0.00    +0.000 A 
ATOM     29  C   UNL     1       4.501   5.584  17.250  0.00  0.00    +0.000 A 
BRANCH  24  31
ATOM     30  O   UNL     1       3.507   2.343  17.962  0.00  0.00    +0.000 OA
ATOM     31  C   UNL     1       4.392   3.163  18.149  0.00  0.00    +0.000 C 
BRANCH  31  32
ATOM     32  O   UNL     1       5.104   3.197  19.282  0.00  0.00    +0.000 OA
ATOM     33  H   UNL     1       6.068   3.295  19.158  0.00  0.00    +0.000 HD
ENDBRANCH  31  32
ENDBRANCH  24  31
ENDBRANCH  22  29
ENDBRANCH   1  23
TORSDOF 6
ENDMDL
MODEL 6
REMARK VINA RESULT:      -8.3      2.965      3.944
REMARK  Name = 
REMARK  6 active torsions:
REMARK  status: ('A' for Active; 'I' for Inactive)
REMARK    1  A    between atoms: C_2  and  O_3
REMARK    2  A    between atoms: C_2  and  C_4
REMARK    3  A    between atoms: C_9  and  N_10
REMARK    4  A    between atoms: N_11  and  C_12
REMARK    5  A    between atoms: C_19  and  C_20
REMARK    6  A    between atoms: N_22  and  C_23
REMARK                            x       y       z     vdW  Elec       q    Type
REMARK                         _______ _______ _______ _____ _____    ______ ____
ROOT
ATOM      1  C   UNL     1       1.809   7.461  19.574  0.00  0.00    +0.000 A 
ATOM      2  C   UNL     1       1.543   7.517  20.956  0.00  0.00    +0.000 A 
ATOM      3  C   UNL     1       1.119   8.686  21.585  0.00  0.00    +0.000 A 
ATOM      4  C   UNL     1       0.976   9.840  20.829  0.00  0.00    +0.000 A 
ATOM      5  O   UNL     1       0.714  11.023  21.539  0.00  0.00    +0.000 OA
ATOM      6  C   UNL     1       1.006  12.228  20.913  0.00  0.00    +0.000 A 
ATOM      7  O   UNL     1       1.386  13.212  21.539  0.00  0.00    +0.000 OA
ATOM      8  C   UNL     1       0.747  12.270  19.462  0.00  0.00    +0.000 A 
ATOM      9  C   UNL     1       0.850  11.112  18.767  0.00  0.00    +0.000 A 
ATOM     10  C   UNL     1       1.167   9.843  19.448  0.00  0.00    +0.000 A 
ATOM     11  C   UNL     1       1.593   8.640  18.818  0.00  0.00    +0.000 A 
ENDROOT
BRANCH   8  12
ATOM     12  C   UNL     1       0.326  13.547  18.769  0.00  0.00    +0.000 C 
ATOM     13  O   UNL     1      -0.636  13.502  18.001  0.00  0.00    +0.000 OA
ATOM     14  N   UNL     1       1.079  14.687  19.032  0.00  0.00    +0.000 N 
ATOM     15  H   UNL     1       1.926  14.571  19.588  0.00  0.00    +0.000 HD
BRANCH  14  16
ATOM     16  C   UNL     1       0.827  16.007  18.553  0.00  0.00    +0.000 A 
ATOM     17  C   UNL     1      -0.388  16.677  18.736  0.00  0.00    +0.000 A 
ATOM     18  C   UNL     1      -0.580  17.980  18.241  0.00  0.00    +0.000 A 
ATOM     19  C   UNL     1       0.432  18.630  17.548  0.00  0.00    +0.000 A 
ATOM     20  C   UNL     1       1.651  17.985  17.364  0.00  0.00    +0.000 A 
ATOM     21  C   UNL     1       1.852  16.691  17.877  0.00  0.00    +0.000 A 
ENDBRANCH  14  16
ENDBRANCH   8  12
BRANCH   1  23
ATOM     22  N   UNL     1       3.296   5.691  19.554  0.00  0.00    +0.000 NA
ATOM     23  N   UNL     1       2.228   6.179  19.129  0.00  0.00    +0.000 NA
BRANCH  22  29
ATOM     24  C   UNL     1       2.676   3.270  19.750  0.00  0.00    +0.000 A 
ATOM     25  C   UNL     1       2.769   1.945  19.249  0.00  0.00    +0.000 A 
ATOM     26  C   UNL     1       3.587   1.629  18.166  0.00  0.00    +0.000 A 
ATOM     27  C   UNL     1       4.329   2.636  17.568  0.00  0.00    +0.000 A 
ATOM     28  C   UNL     1       4.236   3.952  18.043  0.00  0.00    +0.000 A 
ATOM     29  C   UNL     1       3.412   4.312  19.140  0.00  0.00    +0.000 A 
BRANCH  24  31
ATOM     30  O   UNL     1       2.106   3.071  22.057  0.00  0.00    +0.000 OA
ATOM     31  C   UNL     1       1.776   3.438  20.940  0.00  0.00    +0.000 C 
BRANCH  31  32
ATOM     32  O   UNL     1       0.590   4.011  20.700  0.00  0.00    +0.000 OA
ATOM     33  H   UNL     1       0.523   4.945  20.977  0.00  0.00    +0.000 HD
ENDBRANCH  31  32
ENDBRANCH  24  31
ENDBRANCH  22  29
ENDBRANCH   1  23
TORSDOF 6
ENDMDL
MODEL 7
REMARK VINA RESULT:      -8.3      3.258     11.361
REMARK  Name = 
REMARK  6 active torsions:
REMARK  status: ('A' for Active; 'I' for Inactive)
REMARK    1  A    between atoms: C_2  and  O_3
REMARK    2  A    between atoms: C_2  and  C_4
REMARK    3  A    between atoms: C_9  and  N_10
REMARK    4  A    between atoms: N_11  and  C_12
REMARK    5  A    between atoms: C_19  and  C_20
REMARK    6  A    between atoms: N_22  and  C_23
REMARK                            x       y       z     vdW  Elec       q    Type
REMARK                         _______ _______ _______ _____ _____    ______ ____
ROOT
ATOM      1  C   UNL     1       1.455   8.503  19.767  0.00  0.00    +0.000 A 
ATOM      2  C   UNL     1       1.287   7.567  20.805  0.00  0.00    +0.000 A 
ATOM      3  C   UNL     1       1.887   6.310  20.778  0.00  0.00    +0.000 A 
ATOM      4  C   UNL     1       2.657   5.959  19.679  0.00  0.00    +0.000 A 
ATOM      5  O   UNL     1       3.094   4.625  19.623  0.00  0.00    +0.000 OA
ATOM      6  C   UNL     1       3.458   4.118  18.382  0.00  0.00    +0.000 A 
ATOM      7  O   UNL     1       3.283   2.941  18.083  0.00  0.00    +0.000 OA
ATOM      8  C   UNL     1       4.145   5.064  17.485  0.00  0.00    +0.000 A 
ATOM      9  C   UNL     1       3.852   6.381  17.610  0.00  0.00    +0.000 A 
ATOM     10  C   UNL     1       2.911   6.856  18.642  0.00  0.00    +0.000 A 
ATOM     11  C   UNL     1       2.297   8.139  18.687  0.00  0.00    +0.000 A 
ENDROOT
BRANCH   8  12
ATOM     12  C   UNL     1       5.184   4.600  16.488  0.00  0.00    +0.000 C 
ATOM     13  O   UNL     1       6.143   3.952  16.907  0.00  0.00    +0.000 OA
ATOM     14  N   UNL     1       4.991   4.964  15.159  0.00  0.00    +0.000 N 
ATOM     15  H   UNL     1       4.226   5.606  14.955  0.00  0.00    +0.000 HD
BRANCH  14  16
ATOM     16  C   UNL     1       5.794   4.582  14.044  0.00  0.00    +0.000 A 
ATOM     17  C   UNL     1       7.050   5.135  13.770  0.00  0.00    +0.000 A 
ATOM     18  C   UNL     1       7.799   4.720  12.654  0.00  0.00    +0.000 A 
ATOM     19  C   UNL     1       7.304   3.755  11.789  0.00  0.00    +0.000 A 
ATOM     20  C   UNL     1       6.061   3.184  12.049  0.00  0.00    +0.000 A 
ATOM     21  C   UNL     1       5.321   3.582  13.176  0.00  0.00    +0.000 A 
ENDBRANCH  14  16
ENDBRANCH   8  12
BRANCH   1  23
ATOM     22  N   UNL     1      -0.391   9.708  20.463  0.00  0.00    +0.000 NA
ATOM     23  N   UNL     1       0.763   9.724  19.987  0.00  0.00    +0.000 NA
BRANCH  22  29
ATOM     24  C   UNL     1      -1.564  11.854  19.910  0.00  0.00    +0.000 A 
ATOM     25  C   UNL     1      -2.018  13.134  20.322  0.00  0.00    +0.000 A 
ATOM     26  C   UNL     1      -1.728  13.639  21.587  0.00  0.00    +0.000 A 
ATOM     27  C   UNL     1      -0.975  12.872  22.463  0.00  0.00    +0.000 A 
ATOM     28  C   UNL     1      -0.533  11.599  22.075  0.00  0.00    +0.000 A 
ATOM     29  C   UNL     1      -0.810  11.050  20.797  0.00  0.00    +0.000 A 
BRANCH  24  31
ATOM     30  O   UNL     1      -3.048  11.677  18.052  0.00  0.00    +0.000 OA
ATOM     31  C   UNL     1      -1.933  11.469  18.507  0.00  0.00    +0.000 C 
BRANCH  31  32
ATOM     32  O   UNL     1      -0.968  10.885  17.787  0.00  0.00    +0.000 OA
ATOM     33  H   UNL     1      -0.499  10.160  18.243  0.00  0.00    +0.000 HD
ENDBRANCH  31  32
ENDBRANCH  24  31
ENDBRANCH  22  29
ENDBRANCH   1  23
TORSDOF 6
ENDMDL
MODEL 8
REMARK VINA RESULT:      -8.2      3.261     11.349
REMARK  Name = 
REMARK  6 active torsions:
REMARK  status: ('A' for Active; 'I' for Inactive)
REMARK    1  A    between atoms: C_2  and  O_3
REMARK    2  A    between atoms: C_2  and  C_4
REMARK    3  A    between atoms: C_9  and  N_10
REMARK    4  A    between atoms: N_11  and  C_12
REMARK    5  A    between atoms: C_19  and  C_20
REMARK    6  A    between atoms: N_22  and  C_23
REMARK                            x       y       z     vdW  Elec       q    Type
REMARK                         _______ _______ _______ _____ _____    ______ ____
ROOT
ATOM      1  C   UNL     1       1.567   7.509  20.468  0.00  0.00    +0.000 A 
ATOM      2  C   UNL     1       1.330   6.348  21.230  0.00  0.00    +0.000 A 
ATOM      3  C   UNL     1       1.899   5.118  20.907  0.00  0.00    +0.000 A 
ATOM      4  C   UNL     1       2.707   5.027  19.784  0.00  0.00    +0.000 A 
ATOM      5  O   UNL     1       3.113   3.736  19.409  0.00  0.00    +0.000 OA
ATOM      6  C   UNL     1       3.518   3.544  18.094  0.00  0.00    +0.000 A 
ATOM      7  O   UNL     1       3.327   2.488  17.501  0.00  0.00    +0.000 OA
ATOM      8  C   UNL     1       4.268   4.661  17.490  0.00  0.00    +0.000 A 
ATOM      9  C   UNL     1       4.003   5.914  17.933  0.00  0.00    +0.000 A 
ATOM     10  C   UNL     1       3.029   6.147  19.017  0.00  0.00    +0.000 A 
ATOM     11  C   UNL     1       2.446   7.398  19.363  0.00  0.00    +0.000 A 
ENDROOT
BRANCH   8  12
ATOM     12  C   UNL     1       5.337   4.427  16.447  0.00  0.00    +0.000 C 
ATOM     13  O   UNL     1       6.466   4.114  16.831  0.00  0.00    +0.000 OA
ATOM     14  N   UNL     1       4.973   4.605  15.117  0.00  0.00    +0.000 N 
ATOM     15  H   UNL     1       4.045   4.984  14.932  0.00  0.00    +0.000 HD
BRANCH  14  16
ATOM     16  C   UNL     1       5.787   4.371  13.968  0.00  0.00    +0.000 A 
ATOM     17  C   UNL     1       5.461   3.455  12.963  0.00  0.00    +0.000 A 
ATOM     18  C   UNL     1       6.302   3.265  11.852  0.00  0.00    +0.000 A 
ATOM     19  C   UNL     1       7.486   3.980  11.731  0.00  0.00    +0.000 A 
ATOM     20  C   UNL     1       7.824   4.904  12.715  0.00  0.00    +0.000 A 
ATOM     21  C   UNL     1       6.973   5.110  13.815  0.00  0.00    +0.000 A 
ENDBRANCH  14  16
ENDBRANCH   8  12
BRANCH   1  23
ATOM     22  N   UNL     1       0.589   9.584  20.184  0.00  0.00    +0.000 NA
ATOM     23  N   UNL     1       0.897   8.659  20.964  0.00  0.00    +0.000 NA
BRANCH  22  29
ATOM     24  C   UNL     1      -0.980  11.539  20.160  0.00  0.00    +0.000 A 
ATOM     25  C   UNL     1      -1.864  12.399  20.862  0.00  0.00    +0.000 A 
ATOM     26  C   UNL     1      -2.039  12.299  22.240  0.00  0.00    +0.000 A 
ATOM     27  C   UNL     1      -1.329  11.336  22.941  0.00  0.00    +0.000 A 
ATOM     28  C   UNL     1      -0.464  10.469  22.258  0.00  0.00    +0.000 A 
ATOM     29  C   UNL     1      -0.262  10.539  20.856  0.00  0.00    +0.000 A 
BRANCH  24  31
ATOM     30  O   UNL     1      -1.872  11.891  17.976  0.00  0.00    +0.000 OA
ATOM     31  C   UNL     1      -0.881  11.797  18.684  0.00  0.00    +0.000 C 
BRANCH  31  32
ATOM     32  O   UNL     1       0.358  11.916  18.193  0.00  0.00    +0.000 OA
ATOM     33  H   UNL     1       0.431  11.790  17.227  0.00  0.00    +0.000 HD
ENDBRANCH  31  32
ENDBRANCH  24  31
ENDBRANCH  22  29
ENDBRANCH   1  23
TORSDOF 6
ENDMDL
MODEL 9
REMARK VINA RESULT:      -8.2      1.169      1.530
REMARK  Name = 
REMARK  6 active torsions:
REMARK  status: ('A' for Active; 'I' for Inactive)
REMARK    1  A    between atoms: C_2  and  O_3
REMARK    2  A    between atoms: C_2  and  C_4
REMARK    3  A    between atoms: C_9  and  N_10
REMARK    4  A    between atoms: N_11  and  C_12
REMARK    5  A    between atoms: C_19  and  C_20
REMARK    6  A    between atoms: N_22  and  C_23
REMARK                            x       y       z     vdW  Elec       q    Type
REMARK                         _______ _______ _______ _____ _____    ______ ____
ROOT
ATOM      1  C   UNL     1       1.652   8.278  19.877  0.00  0.00    +0.000 A 
ATOM      2  C   UNL     1       1.656   8.974  18.653  0.00  0.00    +0.000 A 
ATOM      3  C   UNL     1       0.917  10.138  18.457  0.00  0.00    +0.000 A 
ATOM      4  C   UNL     1       0.133  10.617  19.496  0.00  0.00    +0.000 A 
ATOM      5  O   UNL     1      -0.720  11.691  19.191  0.00  0.00    +0.000 OA
ATOM      6  C   UNL     1      -1.813  11.902  20.022  0.00  0.00    +0.000 A 
ATOM      7  O   UNL     1      -2.877  12.344  19.600  0.00  0.00    +0.000 OA
ATOM      8  C   UNL     1      -1.582  11.643  21.455  0.00  0.00    +0.000 A 
ATOM      9  C   UNL     1      -0.657  10.711  21.788  0.00  0.00    +0.000 A 
ATOM     10  C   UNL     1       0.124  10.010  20.751  0.00  0.00    +0.000 A 
ATOM     11  C   UNL     1       0.889   8.825  20.939  0.00  0.00    +0.000 A 
ENDROOT
BRANCH   8  12
ATOM     12  C   UNL     1      -2.307  12.423  22.529  0.00  0.00    +0.000 C 
ATOM     13  O   UNL     1      -2.683  11.818  23.534  0.00  0.00    +0.000 OA
ATOM     14  N   UNL     1      -2.520  13.777  22.292  0.00  0.00    +0.000 N 
ATOM     15  H   UNL     1      -2.273  14.136  21.370  0.00  0.00    +0.000 HD
BRANCH  14  16
ATOM     16  C   UNL     1      -3.112  14.719  23.185  0.00  0.00    +0.000 A 
ATOM     17  C   UNL     1      -2.451  15.247  24.300  0.00  0.00    +0.000 A 
ATOM     18  C   UNL     1      -3.084  16.174  25.148  0.00  0.00    +0.000 A 
ATOM     19  C   UNL     1      -4.389  16.580  24.903  0.00  0.00    +0.000 A 
ATOM     20  C   UNL     1      -5.060  16.074  23.794  0.00  0.00    +0.000 A 
ATOM     21  C   UNL     1      -4.420  15.165  22.933  0.00  0.00    +0.000 A 
ENDBRANCH  14  16
ENDBRANCH   8  12
BRANCH   1  23
ATOM     22  N   UNL     1       2.036   6.047  20.349  0.00  0.00    +0.000 NA
ATOM     23  N   UNL     1       2.470   7.117  19.872  0.00  0.00    +0.000 NA
BRANCH  22  29
ATOM     24  C   UNL     1       2.626   3.611  20.312  0.00  0.00    +0.000 A 
ATOM     25  C   UNL     1       3.521   2.581  19.921  0.00  0.00    +0.000 A 
ATOM     26  C   UNL     1       4.729   2.865  19.288  0.00  0.00    +0.000 A 
ATOM     27  C   UNL     1       5.064   4.187  19.038  0.00  0.00    +0.000 A 
ATOM     28  C   UNL     1       4.182   5.214  19.405  0.00  0.00    +0.000 A 
ATOM     29  C   UNL     1       2.943   4.964  20.048  0.00  0.00    +0.000 A 
BRANCH  24  31
ATOM     30  O   UNL     1       1.421   2.609  22.110  0.00  0.00    +0.000 OA
ATOM     31  C   UNL     1       1.383   3.142  21.011  0.00  0.00    +0.000 C 
BRANCH  31  32
ATOM     32  O   UNL     1       0.233   3.341  20.355  0.00  0.00    +0.000 OA
ATOM     33  H   UNL     1       0.329   3.757  19.477  0.00  0.00    +0.000 HD
ENDBRANCH  31  32
ENDBRANCH  24  31
ENDBRANCH  22  29
ENDBRANCH   1  23
TORSDOF 6
ENDMDL
