MODEL 1
REMARK VINA RESULT:      -6.2      0.000      0.000
REMARK  Name = 
REMARK  8 active torsions:
REMARK  status: ('A' for Active; 'I' for Inactive)
REMARK    1  A    between atoms: C_2  and  C_3
REMARK    2  A    between atoms: N_5  and  C_6
REMARK    3  A    between atoms: C_7  and  S_8
REMARK    4  A    between atoms: S_8  and  C_9
REMARK    5  A    between atoms: C_16  and  C_17
REMARK    6  A    between atoms: C_17  and  O_18
REMARK    7  A    between atoms: C_19  and  O_20
REMARK    8  A    between atoms: C_21  and  O_22
REMARK                            x       y       z     vdW  Elec       q    Type
REMARK                         _______ _______ _______ _____ _____    ______ ____
ROOT
ATOM      1  C   UNL     1       4.255   4.858  18.956  0.00  0.00    +0.000 C 
ATOM      2  C   UNL     1       3.133   5.654  19.701  0.00  0.00    +0.000 C 
ATOM      3  O   UNL     1       2.401   4.787  20.576  0.00  0.00    +0.000 OA
ATOM      4  C   UNL     1       1.797   3.645  19.943  0.00  0.00    +0.000 C 
ATOM      5  C   UNL     1       2.826   2.782  19.202  0.00  0.00    +0.000 C 
ATOM      6  C   UNL     1       3.662   3.633  18.238  0.00  0.00    +0.000 C 
ENDROOT
BRANCH   1   9
ATOM      7  O   UNL     1       7.047   4.698  18.642  0.00  0.00    +0.000 OA
ATOM      8  C   UNL     1       6.427   5.461  17.900  0.00  0.00    +0.000 C 
ATOM      9  N   UNL     1       5.066   5.648  18.010  0.00  0.00    +0.000 N 
ATOM     10  H   UNL     1       4.585   5.979  17.174  0.00  0.00    +0.000 HD
BRANCH   8  11
ATOM     11  C   UNL     1       7.121   6.324  16.869  0.00  0.00    +0.000 C 
ATOM     12 CL   UNL     1       7.764   7.788  17.636  0.00  0.00    +0.000 Cl
ENDBRANCH   8  11
ENDBRANCH   1   9
BRANCH   5  13
ATOM     13  O   UNL     1       2.199   1.707  18.494  0.00  0.00    +0.000 OA
ATOM     14  H   UNL     1       2.234   0.899  19.040  0.00  0.00    +0.000 HD
ENDBRANCH   5  13
BRANCH   6  15
ATOM     15  O   UNL     1       4.727   2.850  17.662  0.00  0.00    +0.000 OA
ATOM     16  H   UNL     1       4.926   3.199  16.774  0.00  0.00    +0.000 HD
ENDBRANCH   6  15
BRANCH   2  17
ATOM     17  S   UNL     1       2.047   6.592  18.553  0.00  0.00    +0.000 S 
BRANCH  17  18
ATOM     18  C   UNL     1       2.473   8.356  18.925  0.00  0.00    +0.000 C 
ATOM     19  C   UNL     1       1.942   9.402  17.934  0.00  0.00    +0.000 C 
ATOM     20  C   UNL     1       0.417   9.506  17.918  0.00  0.00    +0.000 C 
ATOM     21  C   UNL     1      -0.159   9.743  19.313  0.00  0.00    +0.000 C 
ATOM     22  C   UNL     1       0.378   8.753  20.346  0.00  0.00    +0.000 C 
ATOM     23  C   UNL     1       1.908   8.681  20.324  0.00  0.00    +0.000 C 
ENDBRANCH  17  18
ENDBRANCH   2  17
BRANCH   4  24
ATOM     24  C   UNL     1       1.112   2.846  21.059  0.00  0.00    +0.000 C 
BRANCH  24  25
ATOM     25  O   UNL     1       1.943   2.844  22.223  0.00  0.00    +0.000 OA
ATOM     26  H   UNL     1       1.939   1.920  22.541  0.00  0.00    +0.000 HD
ENDBRANCH  24  25
ENDBRANCH   4  24
TORSDOF 8
ENDMDL
MODEL 2
REMARK VINA RESULT:      -6.0      3.020      5.946
REMARK  Name = 
REMARK  8 active torsions:
REMARK  status: ('A' for Active; 'I' for Inactive)
REMARK    1  A    between atoms: C_2  and  C_3
REMARK    2  A    between atoms: N_5  and  C_6
REMARK    3  A    between atoms: C_7  and  S_8
REMARK    4  A    between atoms: S_8  and  C_9
REMARK    5  A    between atoms: C_16  and  C_17
REMARK    6  A    between atoms: C_17  and  O_18
REMARK    7  A    between atoms: C_19  and  O_20
REMARK    8  A    between atoms: C_21  and  O_22
REMARK                            x       y       z     vdW  Elec       q    Type
REMARK                         _______ _______ _______ _____ _____    ______ ____
ROOT
ATOM      1  C   UNL     1       4.680   5.437  18.430  0.00  0.00    +0.000 C 
ATOM      2  C   UNL     1       4.471   3.988  17.879  0.00  0.00    +0.000 C 
ATOM      3  O   UNL     1       5.359   3.737  16.783  0.00  0.00    +0.000 OA
ATOM      4  C   UNL     1       5.249   4.656  15.682  0.00  0.00    +0.000 C 
ATOM      5  C   UNL     1       5.464   6.110  16.117  0.00  0.00    +0.000 C 
ATOM      6  C   UNL     1       4.550   6.470  17.295  0.00  0.00    +0.000 C 
ENDROOT
BRANCH   1   9
ATOM      7  O   UNL     1       2.234   6.813  18.223  0.00  0.00    +0.000 OA
ATOM      8  C   UNL     1       2.597   6.450  19.343  0.00  0.00    +0.000 C 
ATOM      9  N   UNL     1       3.803   5.817  19.554  0.00  0.00    +0.000 N 
ATOM     10  H   UNL     1       3.870   5.237  20.391  0.00  0.00    +0.000 HD
BRANCH   8  11
ATOM     11  C   UNL     1       1.794   6.753  20.589  0.00  0.00    +0.000 C 
ATOM     12 CL   UNL     1       1.334   8.465  20.613  0.00  0.00    +0.000 Cl
ENDBRANCH   8  11
ENDBRANCH   1   9
BRANCH   5  13
ATOM     13  O   UNL     1       5.253   7.020  15.034  0.00  0.00    +0.000 OA
ATOM     14  H   UNL     1       4.812   7.824  15.370  0.00  0.00    +0.000 HD
ENDBRANCH   5  13
BRANCH   6  15
ATOM     15  O   UNL     1       4.864   7.783  17.800  0.00  0.00    +0.000 OA
ATOM     16  H   UNL     1       5.371   8.266  17.122  0.00  0.00    +0.000 HD
ENDBRANCH   6  15
BRANCH   2  17
ATOM     17  S   UNL     1       2.715   3.629  17.472  0.00  0.00    +0.000 S 
BRANCH  17  18
ATOM     18  C   UNL     1       2.372   2.084  18.435  0.00  0.00    +0.000 C 
ATOM     19  C   UNL     1       3.237   1.861  19.683  0.00  0.00    +0.000 C 
ATOM     20  C   UNL     1       3.002   2.901  20.780  0.00  0.00    +0.000 C 
ATOM     21  C   UNL     1       1.527   3.016  21.158  0.00  0.00    +0.000 C 
ATOM     22  C   UNL     1       0.621   3.192  19.941  0.00  0.00    +0.000 C 
ATOM     23  C   UNL     1       0.893   2.131  18.869  0.00  0.00    +0.000 C 
ENDBRANCH  17  18
ENDBRANCH   2  17
BRANCH   4  24
ATOM     24  C   UNL     1       6.307   4.227  14.657  0.00  0.00    +0.000 C 
BRANCH  24  25
ATOM     25  O   UNL     1       7.425   5.117  14.724  0.00  0.00    +0.000 OA
ATOM     26  H   UNL     1       7.473   5.399  15.659  0.00  0.00    +0.000 HD
ENDBRANCH  24  25
ENDBRANCH   4  24
TORSDOF 8
ENDMDL
MODEL 3
REMARK VINA RESULT:      -5.8      2.882      5.649
REMARK  Name = 
REMARK  8 active torsions:
REMARK  status: ('A' for Active; 'I' for Inactive)
REMARK    1  A    between atoms: C_2  and  C_3
REMARK    2  A    between atoms: N_5  and  C_6
REMARK    3  A    between atoms: C_7  and  S_8
REMARK    4  A    between atoms: S_8  and  C_9
REMARK    5  A    between atoms: C_16  and  C_17
REMARK    6  A    between atoms: C_17  and  O_18
REMARK    7  A    between atoms: C_19  and  O_20
REMARK    8  A    between atoms: C_21  and  O_22
REMARK                            x       y       z     vdW  Elec       q    Type
REMARK                         _______ _______ _______ _____ _____    ______ ____
ROOT
ATOM      1  C   UNL     1       2.045   7.302  18.712  0.00  0.00    +0.000 C 
ATOM      2  C   UNL     1       2.631   6.286  17.677  0.00  0.00    +0.000 C 
ATOM      3  O   UNL     1       2.166   4.960  17.958  0.00  0.00    +0.000 OA
ATOM      4  C   UNL     1       2.462   4.475  19.280  0.00  0.00    +0.000 C 
ATOM      5  C   UNL     1       1.904   5.394  20.373  0.00  0.00    +0.000 C 
ATOM      6  C   UNL     1       2.352   6.844  20.149  0.00  0.00    +0.000 C 
ENDROOT
BRANCH   1   9
ATOM      7  O   UNL     1       0.435   9.406  17.766  0.00  0.00    +0.000 OA
ATOM      8  C   UNL     1       1.589   9.672  18.105  0.00  0.00    +0.000 C 
ATOM      9  N   UNL     1       2.471   8.703  18.531  0.00  0.00    +0.000 N 
ATOM     10  H   UNL     1       3.240   9.017  19.122  0.00  0.00    +0.000 HD
BRANCH   8  11
ATOM     11  C   UNL     1       2.162  11.068  17.991  0.00  0.00    +0.000 C 
ATOM     12 CL   UNL     1       1.553  12.085  19.309  0.00  0.00    +0.000 Cl
ENDBRANCH   8  11
ENDBRANCH   1   9
BRANCH   5  13
ATOM     13  O   UNL     1       2.291   4.955  21.679  0.00  0.00    +0.000 OA
ATOM     14  H   UNL     1       2.082   4.007  21.775  0.00  0.00    +0.000 HD
ENDBRANCH   5  13
BRANCH   6  15
ATOM     15  O   UNL     1       1.701   7.727  21.085  0.00  0.00    +0.000 OA
ATOM     16  H   UNL     1       2.363   8.347  21.443  0.00  0.00    +0.000 HD
ENDBRANCH   6  15
BRANCH   2  17
ATOM     17  S   UNL     1       4.461   6.388  17.540  0.00  0.00    +0.000 S 
BRANCH  17  18
ATOM     18  C   UNL     1       4.954   4.628  17.237  0.00  0.00    +0.000 C 
ATOM     19  C   UNL     1       4.753   4.108  15.807  0.00  0.00    +0.000 C 
ATOM     20  C   UNL     1       5.644   4.803  14.776  0.00  0.00    +0.000 C 
ATOM     21  C   UNL     1       7.120   4.757  15.166  0.00  0.00    +0.000 C 
ATOM     22  C   UNL     1       7.364   5.222  16.600  0.00  0.00    +0.000 C 
ATOM     23  C   UNL     1       6.449   4.501  17.596  0.00  0.00    +0.000 C 
ENDBRANCH  17  18
ENDBRANCH   2  17
BRANCH   4  24
ATOM     24  C   UNL     1       1.843   3.074  19.373  0.00  0.00    +0.000 C 
BRANCH  24  25
ATOM     25  O   UNL     1       0.607   3.145  20.088  0.00  0.00    +0.000 OA
ATOM     26  H   UNL     1       0.846   3.021  21.028  0.00  0.00    +0.000 HD
ENDBRANCH  24  25
ENDBRANCH   4  24
TORSDOF 8
ENDMDL
MODEL 4
REMARK VINA RESULT:      -5.8      3.731      5.345
REMARK  Name = 
REMARK  8 active torsions:
REMARK  status: ('A' for Active; 'I' for Inactive)
REMARK    1  A    between atoms: C_2  and  C_3
REMARK    2  A    between atoms: N_5  and  C_6
REMARK    3  A    between atoms: C_7  and  S_8
REMARK    4  A    between atoms: S_8  and  C_9
REMARK    5  A    between atoms: C_16  and  C_17
REMARK    6  A    between atoms: C_17  and  O_18
REMARK    7  A    between atoms: C_19  and  O_20
REMARK    8  A    between atoms: C_21  and  O_22
REMARK                            x       y       z     vdW  Elec       q    Type
REMARK                         _______ _______ _______ _____ _____    ______ ____
ROOT
ATOM      1  C   UNL     1       5.573   4.871  15.793  0.00  0.00    +0.000 C 
ATOM      2  C   UNL     1       4.603   5.121  16.994  0.00  0.00    +0.000 C 
ATOM      3  O   UNL     1       5.292   5.775  18.067  0.00  0.00    +0.000 OA
ATOM      4  C   UNL     1       6.451   5.081  18.564  0.00  0.00    +0.000 C 
ATOM      5  C   UNL     1       7.480   4.809  17.460  0.00  0.00    +0.000 C 
ATOM      6  C   UNL     1       6.826   4.109  16.262  0.00  0.00    +0.000 C 
ENDROOT
BRANCH   1   9
ATOM      7  O   UNL     1       6.574   4.900  13.164  0.00  0.00    +0.000 OA
ATOM      8  C   UNL     1       5.572   4.222  13.390  0.00  0.00    +0.000 C 
ATOM      9  N   UNL     1       4.976   4.185  14.632  0.00  0.00    +0.000 N 
ATOM     10  H   UNL     1       4.412   3.360  14.840  0.00  0.00    +0.000 HD
BRANCH   8  11
ATOM     11  C   UNL     1       4.857   3.450  12.302  0.00  0.00    +0.000 C 
ATOM     12 CL   UNL     1       5.928   2.201  11.641  0.00  0.00    +0.000 Cl
ENDBRANCH   8  11
ENDBRANCH   1   9
BRANCH   5  13
ATOM     13  O   UNL     1       8.579   4.032  17.945  0.00  0.00    +0.000 OA
ATOM     14  H   UNL     1       8.508   3.123  17.599  0.00  0.00    +0.000 HD
ENDBRANCH   5  13
BRANCH   6  15
ATOM     15  O   UNL     1       7.759   3.995  15.168  0.00  0.00    +0.000 OA
ATOM     16  H   UNL     1       7.434   4.534  14.423  0.00  0.00    +0.000 HD
ENDBRANCH   6  15
BRANCH   2  17
ATOM     17  S   UNL     1       3.729   3.596  17.531  0.00  0.00    +0.000 S 
BRANCH  17  18
ATOM     18  C   UNL     1       2.012   4.200  17.878  0.00  0.00    +0.000 C 
ATOM     19  C   UNL     1       1.036   3.164  18.452  0.00  0.00    +0.000 C 
ATOM     20  C   UNL     1       1.420   2.673  19.849  0.00  0.00    +0.000 C 
ATOM     21  C   UNL     1       1.622   3.827  20.829  0.00  0.00    +0.000 C 
ATOM     22  C   UNL     1       2.552   4.908  20.281  0.00  0.00    +0.000 C 
ATOM     23  C   UNL     1       2.129   5.366  18.881  0.00  0.00    +0.000 C 
ENDBRANCH  17  18
ENDBRANCH   2  17
BRANCH   4  24
ATOM     24  C   UNL     1       7.046   5.971  19.663  0.00  0.00    +0.000 C 
BRANCH  24  25
ATOM     25  O   UNL     1       7.995   5.218  20.424  0.00  0.00    +0.000 OA
ATOM     26  H   UNL     1       7.536   4.994  21.258  0.00  0.00    +0.000 HD
ENDBRANCH  24  25
ENDBRANCH   4  24
TORSDOF 8
ENDMDL
MODEL 5
REMARK VINA RESULT:      -5.7      1.023      1.064
REMARK  Name = 
REMARK  8 active torsions:
REMARK  status: ('A' for Active; 'I' for Inactive)
REMARK    1  A    between atoms: C_2  and  C_3
REMARK    2  A    between atoms: N_5  and  C_6
REMARK    3  A    between atoms: C_7  and  S_8
REMARK    4  A    between atoms: S_8  and  C_9
REMARK    5  A    between atoms: C_16  and  C_17
REMARK    6  A    between atoms: C_17  and  O_18
REMARK    7  A    between atoms: C_19  and  O_20
REMARK    8  A    between atoms: C_21  and  O_22
REMARK                            x       y       z     vdW  Elec       q    Type
REMARK                         _______ _______ _______ _____ _____    ______ ____
ROOT
ATOM      1  C   UNL     1       4.235   5.344  18.561  0.00  0.00    +0.000 C 
ATOM      2  C   UNL     1       3.054   6.090  19.265  0.00  0.00    +0.000 C 
ATOM      3  O   UNL     1       2.218   5.158  19.961  0.00  0.00    +0.000 OA
ATOM      4  C   UNL     1       1.664   4.107  19.149  0.00  0.00    +0.000 C 
ATOM      5  C   UNL     1       2.749   3.296  18.432  0.00  0.00    +0.000 C 
ATOM      6  C   UNL     1       3.699   4.218  17.657  0.00  0.00    +0.000 C 
ENDROOT
BRANCH   1   9
ATOM      7  O   UNL     1       6.985   5.669  19.057  0.00  0.00    +0.000 OA
ATOM      8  C   UNL     1       6.501   6.258  18.089  0.00  0.00    +0.000 C 
ATOM      9  N   UNL     1       5.156   6.205  17.794  0.00  0.00    +0.000 N 
ATOM     10  H   UNL     1       4.897   6.389  16.825  0.00  0.00    +0.000 HD
BRANCH   8  11
ATOM     11  C   UNL     1       7.326   7.165  17.201  0.00  0.00    +0.000 C 
ATOM     12 CL   UNL     1       8.245   8.313  18.192  0.00  0.00    +0.000 Cl
ENDBRANCH   8  11
ENDBRANCH   1   9
BRANCH   5  13
ATOM     13  O   UNL     1       2.183   2.321  17.551  0.00  0.00    +0.000 OA
ATOM     14  H   UNL     1       2.881   1.973  16.965  0.00  0.00    +0.000 HD
ENDBRANCH   5  13
BRANCH   6  15
ATOM     15  O   UNL     1       4.805   3.469  17.114  0.00  0.00    +0.000 OA
ATOM     16  H   UNL     1       5.321   3.093  17.850  0.00  0.00    +0.000 HD
ENDBRANCH   6  15
BRANCH   2  17
ATOM     17  S   UNL     1       2.114   7.175  18.117  0.00  0.00    +0.000 S 
BRANCH  17  18
ATOM     18  C   UNL     1       2.351   8.860  18.850  0.00  0.00    +0.000 C 
ATOM     19  C   UNL     1       1.653  10.017  18.121  0.00  0.00    +0.000 C 
ATOM     20  C   UNL     1       0.126   9.932  18.166  0.00  0.00    +0.000 C 
ATOM     21  C   UNL     1      -0.401   9.795  19.594  0.00  0.00    +0.000 C 
ATOM     22  C   UNL     1       0.299   8.685  20.375  0.00  0.00    +0.000 C 
ATOM     23  C   UNL     1       1.825   8.810  20.299  0.00  0.00    +0.000 C 
ENDBRANCH  17  18
ENDBRANCH   2  17
BRANCH   4  24
ATOM     24  C   UNL     1       0.849   3.216  20.096  0.00  0.00    +0.000 C 
BRANCH  24  25
ATOM     25  O   UNL     1      -0.020   2.376  19.331  0.00  0.00    +0.000 OA
ATOM     26  H   UNL     1      -0.925   2.634  19.596  0.00  0.00    +0.000 HD
ENDBRANCH  24  25
ENDBRANCH   4  24
TORSDOF 8
ENDMDL
MODEL 6
REMARK VINA RESULT:      -5.7      2.602      5.345
REMARK  Name = 
REMARK  8 active torsions:
REMARK  status: ('A' for Active; 'I' for Inactive)
REMARK    1  A    between atoms: C_2  and  C_3
REMARK    2  A    between atoms: N_5  and  C_6
REMARK    3  A    between atoms: C_7  and  S_8
REMARK    4  A    between atoms: S_8  and  C_9
REMARK    5  A    between atoms: C_16  and  C_17
REMARK    6  A    between atoms: C_17  and  O_18
REMARK    7  A    between atoms: C_19  and  O_20
REMARK    8  A    between atoms: C_21  and  O_22
REMARK                            x       y       z     vdW  Elec       q    Type
REMARK                         _______ _______ _______ _____ _____    ______ ____
ROOT
ATOM      1  C   UNL     1       2.245   6.251  18.778  0.00  0.00    +0.000 C 
ATOM      2  C   UNL     1       3.277   5.392  17.975  0.00  0.00    +0.000 C 
ATOM      3  O   UNL     1       2.864   4.021  17.937  0.00  0.00    +0.000 OA
ATOM      4  C   UNL     1       2.670   3.403  19.222  0.00  0.00    +0.000 C 
ATOM      5  C   UNL     1       1.651   4.161  20.081  0.00  0.00    +0.000 C 
ATOM      6  C   UNL     1       2.015   5.648  20.176  0.00  0.00    +0.000 C 
ENDROOT
BRANCH   1   9
ATOM      7  O   UNL     1       1.022   8.353  17.365  0.00  0.00    +0.000 OA
ATOM      8  C   UNL     1       1.884   8.643  18.195  0.00  0.00    +0.000 C 
ATOM      9  N   UNL     1       2.577   7.683  18.900  0.00  0.00    +0.000 N 
ATOM     10  H   UNL     1       2.980   7.977  19.790  0.00  0.00    +0.000 HD
BRANCH   8  11
ATOM     11  C   UNL     1       2.318  10.072  18.441  0.00  0.00    +0.000 C 
ATOM     12 CL   UNL     1       1.086  10.928  19.386  0.00  0.00    +0.000 Cl
ENDBRANCH   8  11
ENDBRANCH   1   9
BRANCH   5  13
ATOM     13  O   UNL     1       1.543   3.596  21.391  0.00  0.00    +0.000 OA
ATOM     14  H   UNL     1       1.817   4.260  22.052  0.00  0.00    +0.000 HD
ENDBRANCH   5  13
BRANCH   6  15
ATOM     15  O   UNL     1       0.975   6.384  20.852  0.00  0.00    +0.000 OA
ATOM     16  H   UNL     1       0.110   6.027  20.578  0.00  0.00    +0.000 HD
ENDBRANCH   6  15
BRANCH   2  17
ATOM     17  S   UNL     1       5.000   5.603  18.579  0.00  0.00    +0.000 S 
BRANCH  17  18
ATOM     18  C   UNL     1       5.813   6.534  17.199  0.00  0.00    +0.000 C 
ATOM     19  C   UNL     1       7.310   6.261  16.992  0.00  0.00    +0.000 C 
ATOM     20  C   UNL     1       7.612   4.829  16.546  0.00  0.00    +0.000 C 
ATOM     21  C   UNL     1       6.813   4.432  15.306  0.00  0.00    +0.000 C 
ATOM     22  C   UNL     1       5.322   4.728  15.448  0.00  0.00    +0.000 C 
ATOM     23  C   UNL     1       5.068   6.171  15.897  0.00  0.00    +0.000 C 
ENDBRANCH  17  18
ENDBRANCH   2  17
BRANCH   4  24
ATOM     24  C   UNL     1       2.196   1.970  18.944  0.00  0.00    +0.000 C 
BRANCH  24  25
ATOM     25  O   UNL     1       0.781   1.969  18.734  0.00  0.00    +0.000 OA
ATOM     26  H   UNL     1       0.621   1.275  18.064  0.00  0.00    +0.000 HD
ENDBRANCH  24  25
ENDBRANCH   4  24
TORSDOF 8
ENDMDL
MODEL 7
REMARK VINA RESULT:      -5.7      2.618      4.887
REMARK  Name = 
REMARK  8 active torsions:
REMARK  status: ('A' for Active; 'I' for Inactive)
REMARK    1  A    between atoms: C_2  and  C_3
REMARK    2  A    between atoms: N_5  and  C_6
REMARK    3  A    between atoms: C_7  and  S_8
REMARK    4  A    between atoms: S_8  and  C_9
REMARK    5  A    between atoms: C_16  and  C_17
REMARK    6  A    between atoms: C_17  and  O_18
REMARK    7  A    between atoms: C_19  and  O_20
REMARK    8  A    between atoms: C_21  and  O_22
REMARK                            x       y       z     vdW  Elec       q    Type
REMARK                         _______ _______ _______ _____ _____    ______ ____
ROOT
ATOM      1  C   UNL     1       3.824   4.284  18.260  0.00  0.00    +0.000 C 
ATOM      2  C   UNL     1       3.686   5.613  17.447  0.00  0.00    +0.000 C 
ATOM      3  O   UNL     1       4.741   5.723  16.484  0.00  0.00    +0.000 OA
ATOM      4  C   UNL     1       6.073   5.665  17.025  0.00  0.00    +0.000 C 
ATOM      5  C   UNL     1       6.318   4.379  17.823  0.00  0.00    +0.000 C 
ATOM      6  C   UNL     1       5.228   4.177  18.884  0.00  0.00    +0.000 C 
ENDROOT
BRANCH   1   9
ATOM      7  O   UNL     1       1.242   3.249  17.838  0.00  0.00    +0.000 OA
ATOM      8  C   UNL     1       1.575   3.511  18.995  0.00  0.00    +0.000 C 
ATOM      9  N   UNL     1       2.798   4.070  19.298  0.00  0.00    +0.000 N 
ATOM     10  H   UNL     1       3.143   3.919  20.246  0.00  0.00    +0.000 HD
BRANCH   8  11
ATOM     11  C   UNL     1       0.635   3.329  20.166  0.00  0.00    +0.000 C 
ATOM     12 CL   UNL     1       1.536   2.772  21.588  0.00  0.00    +0.000 Cl
ENDBRANCH   8  11
ENDBRANCH   1   9
BRANCH   5  13
ATOM     13  O   UNL     1       7.609   4.379  18.439  0.00  0.00    +0.000 OA
ATOM     14  H   UNL     1       7.972   3.473  18.427  0.00  0.00    +0.000 HD
ENDBRANCH   5  13
BRANCH   6  15
ATOM     15  O   UNL     1       5.373   2.894  19.525  0.00  0.00    +0.000 OA
ATOM     16  H   UNL     1       6.046   2.969  20.226  0.00  0.00    +0.000 HD
ENDBRANCH   6  15
BRANCH   2  17
ATOM     17  S   UNL     1       3.546   7.094  18.526  0.00  0.00    +0.000 S 
BRANCH  17  18
ATOM     18  C   UNL     1       1.716   7.283  18.739  0.00  0.00    +0.000 C 
ATOM     19  C   UNL     1       1.230   7.588  20.164  0.00  0.00    +0.000 C 
ATOM     20  C   UNL     1       1.689   8.951  20.685  0.00  0.00    +0.000 C 
ATOM     21  C   UNL     1       1.318  10.086  19.733  0.00  0.00    +0.000 C 
ATOM     22  C   UNL     1       1.740   9.807  18.292  0.00  0.00    +0.000 C 
ATOM     23  C   UNL     1       1.261   8.431  17.814  0.00  0.00    +0.000 C 
ENDBRANCH  17  18
ENDBRANCH   2  17
BRANCH   4  24
ATOM     24  C   UNL     1       7.028   5.758  15.828  0.00  0.00    +0.000 C 
BRANCH  24  25
ATOM     25  O   UNL     1       7.772   4.542  15.715  0.00  0.00    +0.000 OA
ATOM     26  H   UNL     1       8.592   4.785  15.242  0.00  0.00    +0.000 HD
ENDBRANCH  24  25
ENDBRANCH   4  24
TORSDOF 8
ENDMDL
MODEL 8
REMARK VINA RESULT:      -5.7      2.530      5.185
REMARK  Name = 
REMARK  8 active torsions:
REMARK  status: ('A' for Active; 'I' for Inactive)
REMARK    1  A    between atoms: C_2  and  C_3
REMARK    2  A    between atoms: N_5  and  C_6
REMARK    3  A    between atoms: C_7  and  S_8
REMARK    4  A    between atoms: S_8  and  C_9
REMARK    5  A    between atoms: C_16  and  C_17
REMARK    6  A    between atoms: C_17  and  O_18
REMARK    7  A    between atoms: C_19  and  O_20
REMARK    8  A    between atoms: C_21  and  O_22
REMARK                            x       y       z     vdW  Elec       q    Type
REMARK                         _______ _______ _______ _____ _____    ______ ____
ROOT
ATOM      1  C   UNL     1       2.338   5.492  18.990  0.00  0.00    +0.000 C 
ATOM      2  C   UNL     1       3.680   5.097  18.289  0.00  0.00    +0.000 C 
ATOM      3  O   UNL     1       3.619   3.746  17.817  0.00  0.00    +0.000 OA
ATOM      4  C   UNL     1       3.330   2.758  18.823  0.00  0.00    +0.000 C 
ATOM      5  C   UNL     1       2.014   3.044  19.554  0.00  0.00    +0.000 C 
ATOM      6  C   UNL     1       1.989   4.479  20.095  0.00  0.00    +0.000 C 
ENDROOT
BRANCH   1   9
ATOM      7  O   UNL     1       1.871   7.839  17.511  0.00  0.00    +0.000 OA
ATOM      8  C   UNL     1       2.007   7.945  18.730  0.00  0.00    +0.000 C 
ATOM      9  N   UNL     1       2.291   6.862  19.534  0.00  0.00    +0.000 N 
ATOM     10  H   UNL     1       2.030   6.946  20.517  0.00  0.00    +0.000 HD
BRANCH   8  11
ATOM     11  C   UNL     1       1.967   9.285  19.433  0.00  0.00    +0.000 C 
ATOM     12 CL   UNL     1       0.295   9.702  19.850  0.00  0.00    +0.000 Cl
ENDBRANCH   8  11
ENDBRANCH   1   9
BRANCH   5  13
ATOM     13  O   UNL     1       1.789   2.113  20.618  0.00  0.00    +0.000 OA
ATOM     14  H   UNL     1       0.872   2.205  20.937  0.00  0.00    +0.000 HD
ENDBRANCH   5  13
BRANCH   6  15
ATOM     15  O   UNL     1       0.693   4.793  20.644  0.00  0.00    +0.000 OA
ATOM     16  H   UNL     1       0.762   5.620  21.156  0.00  0.00    +0.000 HD
ENDBRANCH   6  15
BRANCH   2  17
ATOM     17  S   UNL     1       5.152   5.422  19.340  0.00  0.00    +0.000 S 
BRANCH  17  18
ATOM     18  C   UNL     1       6.562   4.923  18.247  0.00  0.00    +0.000 C 
ATOM     19  C   UNL     1       6.461   5.355  16.777  0.00  0.00    +0.000 C 
ATOM     20  C   UNL     1       6.512   6.871  16.583  0.00  0.00    +0.000 C 
ATOM     21  C   UNL     1       7.738   7.495  17.247  0.00  0.00    +0.000 C 
ATOM     22  C   UNL     1       7.907   7.057  18.700  0.00  0.00    +0.000 C 
ATOM     23  C   UNL     1       7.847   5.532  18.846  0.00  0.00    +0.000 C 
ENDBRANCH  17  18
ENDBRANCH   2  17
BRANCH   4  24
ATOM     24  C   UNL     1       3.272   1.408  18.095  0.00  0.00    +0.000 C 
BRANCH  24  25
ATOM     25  O   UNL     1       4.393   0.609  18.484  0.00  0.00    +0.000 OA
ATOM     26  H   UNL     1       5.128   1.240  18.611  0.00  0.00    +0.000 HD
ENDBRANCH  24  25
ENDBRANCH   4  24
TORSDOF 8
ENDMDL
MODEL 9
REMARK VINA RESULT:      -5.6      3.367      5.701
REMARK  Name = 
REMARK  8 active torsions:
REMARK  status: ('A' for Active; 'I' for Inactive)
REMARK    1  A    between atoms: C_2  and  C_3
REMARK    2  A    between atoms: N_5  and  C_6
REMARK    3  A    between atoms: C_7  and  S_8
REMARK    4  A    between atoms: S_8  and  C_9
REMARK    5  A    between atoms: C_16  and  C_17
REMARK    6  A    between atoms: C_17  and  O_18
REMARK    7  A    between atoms: C_19  and  O_20
REMARK    8  A    between atoms: C_21  and  O_22
REMARK                            x       y       z     vdW  Elec       q    Type
REMARK                         _______ _______ _______ _____ _____    ______ ____
ROOT
ATOM      1  C   UNL     1       4.305   2.948  20.099  0.00  0.00    +0.000 C 
ATOM      2  C   UNL     1       4.793   4.008  19.058  0.00  0.00    +0.000 C 
ATOM      3  O   UNL     1       4.238   5.295  19.356  0.00  0.00    +0.000 OA
ATOM      4  C   UNL     1       2.801   5.346  19.409  0.00  0.00    +0.000 C 
ATOM      5  C   UNL     1       2.223   4.355  20.425  0.00  0.00    +0.000 C 
ATOM      6  C   UNL     1       2.767   2.941  20.182  0.00  0.00    +0.000 C 
ENDROOT
BRANCH   1   9
ATOM      7  O   UNL     1       5.695   1.378  21.974  0.00  0.00    +0.000 OA
ATOM      8  C   UNL     1       5.430   0.871  20.883  0.00  0.00    +0.000 C 
ATOM      9  N   UNL     1       4.800   1.576  19.881  0.00  0.00    +0.000 N 
ATOM     10  H   UNL     1       4.298   1.023  19.185  0.00  0.00    +0.000 HD
BRANCH   8  11
ATOM     11  C   UNL     1       5.860  -0.534  20.521  0.00  0.00    +0.000 C 
ATOM     12 CL   UNL     1       6.718  -1.277  21.883  0.00  0.00    +0.000 Cl
ENDBRANCH   8  11
ENDBRANCH   1   9
BRANCH   5  13
ATOM     13  O   UNL     1       0.793   4.344  20.395  0.00  0.00    +0.000 OA
ATOM     14  H   UNL     1       0.459   5.236  20.608  0.00  0.00    +0.000 HD
ENDBRANCH   5  13
BRANCH   6  15
ATOM     15  O   UNL     1       2.345   2.046  21.230  0.00  0.00    +0.000 OA
ATOM     16  H   UNL     1       3.053   1.988  21.897  0.00  0.00    +0.000 HD
ENDBRANCH   6  15
BRANCH   2  17
ATOM     17  S   UNL     1       4.495   3.487  17.321  0.00  0.00    +0.000 S 
BRANCH  17  18
ATOM     18  C   UNL     1       4.721   5.061  16.369  0.00  0.00    +0.000 C 
ATOM     19  C   UNL     1       5.915   5.933  16.784  0.00  0.00    +0.000 C 
ATOM     20  C   UNL     1       7.270   5.277  16.517  0.00  0.00    +0.000 C 
ATOM     21  C   UNL     1       7.413   4.819  15.067  0.00  0.00    +0.000 C 
ATOM     22  C   UNL     1       6.224   3.985  14.594  0.00  0.00    +0.000 C 
ATOM     23  C   UNL     1       4.889   4.680  14.884  0.00  0.00    +0.000 C 
ENDBRANCH  17  18
ENDBRANCH   2  17
BRANCH   4  24
ATOM     24  C   UNL     1       2.435   6.789  19.780  0.00  0.00    +0.000 C 
BRANCH  24  25
ATOM     25  O   UNL     1       1.957   6.829  21.127  0.00  0.00    +0.000 OA
ATOM     26  H   UNL     1       1.604   7.732  21.248  0.00  0.00    +0.000 HD
ENDBRANCH  24  25
ENDBRANCH   4  24
TORSDOF 8
ENDMDL
