MODEL 1
REMARK VINA RESULT:      -6.8      0.000      0.000
REMARK  Name = 
REMARK  4 active torsions:
REMARK  status: ('A' for Active; 'I' for Inactive)
REMARK    1  A    between atoms: C_7  and  C_8
REMARK    2  A    between atoms: C_8  and  N_9
REMARK    3  A    between atoms: N_9  and  C_10
REMARK    4  A    between atoms: C_10  and  C_11
REMARK                            x       y       z     vdW  Elec       q    Type
REMARK                         _______ _______ _______ _____ _____    ______ ____
ROOT
ATOM      1  N   UNL     1       5.657   3.685  19.184  0.00  0.00    +0.000 NA
ATOM      2  H   UNL     1       6.415   3.063  18.812  0.00  0.00    +0.000 HD
ENDROOT
BRANCH   1   3
ATOM      3  C   UNL     1       4.398   3.325  18.517  0.00  0.00    +0.000 C 
BRANCH   3  10
ATOM      4 CL   UNL     1       1.636   4.414  17.583  0.00  0.00    +0.000 Cl
ATOM      5  C   UNL     1       1.958   3.691  19.155  0.00  0.00    +0.000 A 
ATOM      6  C   UNL     1       0.896   3.581  20.063  0.00  0.00    +0.000 A 
ATOM      7  C   UNL     1       1.096   3.009  21.321  0.00  0.00    +0.000 A 
ATOM      8  C   UNL     1       2.358   2.547  21.682  0.00  0.00    +0.000 A 
ATOM      9  C   UNL     1       3.424   2.649  20.788  0.00  0.00    +0.000 A 
ATOM     10  C   UNL     1       3.245   3.219  19.507  0.00  0.00    +0.000 A 
ENDBRANCH   3  10
ENDBRANCH   1   3
BRANCH   1  11
ATOM     11  C   UNL     1       6.055   5.071  18.923  0.00  0.00    +0.000 C 
BRANCH  11  12
ATOM     12  C   UNL     1       6.115   5.296  17.432  0.00  0.00    +0.000 A 
ATOM     13  C   UNL     1       5.230   6.182  16.800  0.00  0.00    +0.000 A 
ATOM     14  C   UNL     1       5.302   6.358  15.415  0.00  0.00    +0.000 A 
ATOM     15  N   UNL     1       6.225   5.677  14.686  0.00  0.00    +0.000 NA
ATOM     16  C   UNL     1       7.098   4.814  15.269  0.00  0.00    +0.000 A 
ATOM     17  C   UNL     1       7.059   4.606  16.653  0.00  0.00    +0.000 A 
ENDBRANCH  11  12
ENDBRANCH   1  11
TORSDOF 4
ENDMDL
MODEL 2
REMARK VINA RESULT:      -6.7      1.930      2.675
REMARK  Name = 
REMARK  4 active torsions:
REMARK  status: ('A' for Active; 'I' for Inactive)
REMARK    1  A    between atoms: C_7  and  C_8
REMARK    2  A    between atoms: C_8  and  N_9
REMARK    3  A    between atoms: N_9  and  C_10
REMARK    4  A    between atoms: C_10  and  C_11
REMARK                            x       y       z     vdW  Elec       q    Type
REMARK                         _______ _______ _______ _____ _____    ______ ____
ROOT
ATOM      1  N   UNL     1       3.730   6.563  18.354  0.00  0.00    +0.000 NA
ATOM      2  H   UNL     1       4.255   5.782  18.817  0.00  0.00    +0.000 HD
ENDROOT
BRANCH   1   3
ATOM      3  C   UNL     1       2.401   6.062  17.977  0.00  0.00    +0.000 C 
BRANCH   3  10
ATOM      4 CL   UNL     1       1.396   5.460  20.861  0.00  0.00    +0.000 Cl
ATOM      5  C   UNL     1       1.768   4.242  19.646  0.00  0.00    +0.000 A 
ATOM      6  C   UNL     1       1.592   2.893  19.985  0.00  0.00    +0.000 A 
ATOM      7  C   UNL     1       1.867   1.888  19.056  0.00  0.00    +0.000 A 
ATOM      8  C   UNL     1       2.320   2.222  17.783  0.00  0.00    +0.000 A 
ATOM      9  C   UNL     1       2.499   3.561  17.432  0.00  0.00    +0.000 A 
ATOM     10  C   UNL     1       2.222   4.596  18.353  0.00  0.00    +0.000 A 
ENDBRANCH   3  10
ENDBRANCH   1   3
BRANCH   1  11
ATOM     11  C   UNL     1       4.516   6.998  17.196  0.00  0.00    +0.000 C 
BRANCH  11  12
ATOM     12  C   UNL     1       5.672   6.047  16.997  0.00  0.00    +0.000 A 
ATOM     13  C   UNL     1       5.897   5.436  15.755  0.00  0.00    +0.000 A 
ATOM     14  C   UNL     1       6.967   4.550  15.607  0.00  0.00    +0.000 A 
ATOM     15  N   UNL     1       7.786   4.284  16.658  0.00  0.00    +0.000 NA
ATOM     16  C   UNL     1       7.596   4.863  17.873  0.00  0.00    +0.000 A 
ATOM     17  C   UNL     1       6.535   5.754  18.066  0.00  0.00    +0.000 A 
ENDBRANCH  11  12
ENDBRANCH   1  11
TORSDOF 4
ENDMDL
MODEL 3
REMARK VINA RESULT:      -6.7      1.910      2.688
REMARK  Name = 
REMARK  4 active torsions:
REMARK  status: ('A' for Active; 'I' for Inactive)
REMARK    1  A    between atoms: C_7  and  C_8
REMARK    2  A    between atoms: C_8  and  N_9
REMARK    3  A    between atoms: N_9  and  C_10
REMARK    4  A    between atoms: C_10  and  C_11
REMARK                            x       y       z     vdW  Elec       q    Type
REMARK                         _______ _______ _______ _____ _____    ______ ____
ROOT
ATOM      1  N   UNL     1       3.706   6.623  18.296  0.00  0.00    +0.000 NA
ATOM      2  H   UNL     1       4.237   5.850  18.766  0.00  0.00    +0.000 HD
ENDROOT
BRANCH   1   3
ATOM      3  C   UNL     1       2.372   6.117  17.946  0.00  0.00    +0.000 C 
BRANCH   3  10
ATOM      4 CL   UNL     1       1.394   5.554  20.847  0.00  0.00    +0.000 Cl
ATOM      5  C   UNL     1       1.757   4.320  19.646  0.00  0.00    +0.000 A 
ATOM      6  C   UNL     1       1.588   2.976  20.006  0.00  0.00    +0.000 A 
ATOM      7  C   UNL     1       1.856   1.958  19.089  0.00  0.00    +0.000 A 
ATOM      8  C   UNL     1       2.298   2.274  17.808  0.00  0.00    +0.000 A 
ATOM      9  C   UNL     1       2.470   3.608  17.436  0.00  0.00    +0.000 A 
ATOM     10  C   UNL     1       2.200   4.656  18.344  0.00  0.00    +0.000 A 
ENDBRANCH   3  10
ENDBRANCH   1   3
BRANCH   1  11
ATOM     11  C   UNL     1       4.476   7.037  17.120  0.00  0.00    +0.000 C 
BRANCH  11  12
ATOM     12  C   UNL     1       5.616   6.070  16.910  0.00  0.00    +0.000 A 
ATOM     13  C   UNL     1       6.493   5.751  17.957  0.00  0.00    +0.000 A 
ATOM     14  C   UNL     1       7.548   4.863  17.727  0.00  0.00    +0.000 A 
ATOM     15  N   UNL     1       7.720   4.309  16.498  0.00  0.00    +0.000 NA
ATOM     16  C   UNL     1       6.886   4.596  15.465  0.00  0.00    +0.000 A 
ATOM     17  C   UNL     1       5.819   5.483  15.650  0.00  0.00    +0.000 A 
ENDBRANCH  11  12
ENDBRANCH   1  11
TORSDOF 4
ENDMDL
MODEL 4
REMARK VINA RESULT:      -6.5      1.815      2.310
REMARK  Name = 
REMARK  4 active torsions:
REMARK  status: ('A' for Active; 'I' for Inactive)
REMARK    1  A    between atoms: C_7  and  C_8
REMARK    2  A    between atoms: C_8  and  N_9
REMARK    3  A    between atoms: N_9  and  C_10
REMARK    4  A    between atoms: C_10  and  C_11
REMARK                            x       y       z     vdW  Elec       q    Type
REMARK                         _______ _______ _______ _____ _____    ______ ____
ROOT
ATOM      1  N   UNL     1       4.447   2.476  17.541  0.00  0.00    +0.000 NA
ATOM      2  H   UNL     1       4.936   1.972  16.762  0.00  0.00    +0.000 HD
ENDROOT
BRANCH   1   3
ATOM      3  C   UNL     1       3.301   1.661  17.967  0.00  0.00    +0.000 C 
BRANCH   3  10
ATOM      4 CL   UNL     1       4.886   1.758  20.644  0.00  0.00    +0.000 Cl
ATOM      5  C   UNL     1       3.245   2.353  20.420  0.00  0.00    +0.000 A 
ATOM      6  C   UNL     1       2.593   2.928  21.520  0.00  0.00    +0.000 A 
ATOM      7  C   UNL     1       1.293   3.421  21.394  0.00  0.00    +0.000 A 
ATOM      8  C   UNL     1       0.634   3.342  20.170  0.00  0.00    +0.000 A 
ATOM      9  C   UNL     1       1.272   2.774  19.067  0.00  0.00    +0.000 A 
ATOM     10  C   UNL     1       2.589   2.272  19.168  0.00  0.00    +0.000 A 
ENDBRANCH   3  10
ENDBRANCH   1   3
BRANCH   1  11
ATOM     11  C   UNL     1       4.045   3.790  17.033  0.00  0.00    +0.000 C 
BRANCH  11  12
ATOM     12  C   UNL     1       5.268   4.526  16.542  0.00  0.00    +0.000 A 
ATOM     13  C   UNL     1       5.810   5.593  17.275  0.00  0.00    +0.000 A 
ATOM     14  C   UNL     1       6.934   6.264  16.787  0.00  0.00    +0.000 A 
ATOM     15  N   UNL     1       7.501   5.883  15.612  0.00  0.00    +0.000 NA
ATOM     16  C   UNL     1       7.001   4.853  14.881  0.00  0.00    +0.000 A 
ATOM     17  C   UNL     1       5.874   4.155  15.331  0.00  0.00    +0.000 A 
ENDBRANCH  11  12
ENDBRANCH   1  11
TORSDOF 4
ENDMDL
MODEL 5
REMARK VINA RESULT:      -6.5      2.130      5.855
REMARK  Name = 
REMARK  4 active torsions:
REMARK  status: ('A' for Active; 'I' for Inactive)
REMARK    1  A    between atoms: C_7  and  C_8
REMARK    2  A    between atoms: C_8  and  N_9
REMARK    3  A    between atoms: N_9  and  C_10
REMARK    4  A    between atoms: C_10  and  C_11
REMARK                            x       y       z     vdW  Elec       q    Type
REMARK                         _______ _______ _______ _____ _____    ______ ____
ROOT
ATOM      1  N   UNL     1       4.381   2.486  17.558  0.00  0.00    +0.000 NA
ATOM      2  H   UNL     1       4.925   2.503  18.455  0.00  0.00    +0.000 HD
ENDROOT
BRANCH   1   3
ATOM      3  C   UNL     1       4.282   3.864  17.056  0.00  0.00    +0.000 C 
BRANCH   3  10
ATOM      4 CL   UNL     1       5.789   5.515  14.890  0.00  0.00    +0.000 Cl
ATOM      5  C   UNL     1       6.181   5.504  16.607  0.00  0.00    +0.000 A 
ATOM      6  C   UNL     1       7.243   6.304  17.049  0.00  0.00    +0.000 A 
ATOM      7  C   UNL     1       7.591   6.337  18.400  0.00  0.00    +0.000 A 
ATOM      8  C   UNL     1       6.882   5.569  19.320  0.00  0.00    +0.000 A 
ATOM      9  C   UNL     1       5.821   4.769  18.894  0.00  0.00    +0.000 A 
ATOM     10  C   UNL     1       5.446   4.724  17.531  0.00  0.00    +0.000 A 
ENDBRANCH   3  10
ENDBRANCH   1   3
BRANCH   1  11
ATOM     11  C   UNL     1       3.071   1.897  17.846  0.00  0.00    +0.000 C 
BRANCH  11  12
ATOM     12  C   UNL     1       2.516   2.517  19.105  0.00  0.00    +0.000 A 
ATOM     13  C   UNL     1       3.194   2.395  20.328  0.00  0.00    +0.000 A 
ATOM     14  C   UNL     1       2.646   2.968  21.479  0.00  0.00    +0.000 A 
ATOM     15  N   UNL     1       1.468   3.641  21.415  0.00  0.00    +0.000 NA
ATOM     16  C   UNL     1       0.789   3.779  20.246  0.00  0.00    +0.000 A 
ATOM     17  C   UNL     1       1.299   3.218  19.069  0.00  0.00    +0.000 A 
ENDBRANCH  11  12
ENDBRANCH   1  11
TORSDOF 4
ENDMDL
MODEL 6
REMARK VINA RESULT:      -6.5      2.115      5.738
REMARK  Name = 
REMARK  4 active torsions:
REMARK  status: ('A' for Active; 'I' for Inactive)
REMARK    1  A    between atoms: C_7  and  C_8
REMARK    2  A    between atoms: C_8  and  N_9
REMARK    3  A    between atoms: N_9  and  C_10
REMARK    4  A    between atoms: C_10  and  C_11
REMARK                            x       y       z     vdW  Elec       q    Type
REMARK                         _______ _______ _______ _____ _____    ______ ____
ROOT
ATOM      1  N   UNL     1       4.342   2.530  17.519  0.00  0.00    +0.000 NA
ATOM      2  H   UNL     1       4.931   2.490  18.386  0.00  0.00    +0.000 HD
ENDROOT
BRANCH   1   3
ATOM      3  C   UNL     1       4.216   3.937  17.114  0.00  0.00    +0.000 C 
BRANCH   3  10
ATOM      4 CL   UNL     1       5.732   5.556  14.931  0.00  0.00    +0.000 Cl
ATOM      5  C   UNL     1       6.148   5.531  16.641  0.00  0.00    +0.000 A 
ATOM      6  C   UNL     1       7.237   6.303  17.070  0.00  0.00    +0.000 A 
ATOM      7  C   UNL     1       7.605   6.322  18.416  0.00  0.00    +0.000 A 
ATOM      8  C   UNL     1       6.890   5.570  19.344  0.00  0.00    +0.000 A 
ATOM      9  C   UNL     1       5.803   4.798  18.932  0.00  0.00    +0.000 A 
ATOM     10  C   UNL     1       5.408   4.766  17.575  0.00  0.00    +0.000 A 
ENDBRANCH   3  10
ENDBRANCH   1   3
BRANCH   1  11
ATOM     11  C   UNL     1       3.049   1.917  17.835  0.00  0.00    +0.000 C 
BRANCH  11  12
ATOM     12  C   UNL     1       2.502   2.538  19.097  0.00  0.00    +0.000 A 
ATOM     13  C   UNL     1       1.324   3.299  19.075  0.00  0.00    +0.000 A 
ATOM     14  C   UNL     1       0.851   3.873  20.258  0.00  0.00    +0.000 A 
ATOM     15  N   UNL     1       1.527   3.693  21.423  0.00  0.00    +0.000 NA
ATOM     16  C   UNL     1       2.669   2.960  21.478  0.00  0.00    +0.000 A 
ATOM     17  C   UNL     1       3.180   2.370  20.316  0.00  0.00    +0.000 A 
ENDBRANCH  11  12
ENDBRANCH   1  11
TORSDOF 4
ENDMDL
MODEL 7
REMARK VINA RESULT:      -6.5      2.208      3.019
REMARK  Name = 
REMARK  4 active torsions:
REMARK  status: ('A' for Active; 'I' for Inactive)
REMARK    1  A    between atoms: C_7  and  C_8
REMARK    2  A    between atoms: C_8  and  N_9
REMARK    3  A    between atoms: N_9  and  C_10
REMARK    4  A    between atoms: C_10  and  C_11
REMARK                            x       y       z     vdW  Elec       q    Type
REMARK                         _______ _______ _______ _____ _____    ______ ____
ROOT
ATOM      1  N   UNL     1       3.254   3.311  17.078  0.00  0.00    +0.000 NA
ATOM      2  H   UNL     1       3.325   4.042  16.330  0.00  0.00    +0.000 HD
ENDROOT
BRANCH   1   3
ATOM      3  C   UNL     1       2.014   3.543  17.832  0.00  0.00    +0.000 C 
BRANCH   3  10
ATOM      4 CL   UNL     1       1.287   3.442  20.856  0.00  0.00    +0.000 Cl
ATOM      5  C   UNL     1       1.740   4.897  19.974  0.00  0.00    +0.000 A 
ATOM      6  C   UNL     1       1.792   6.108  20.677  0.00  0.00    +0.000 A 
ATOM      7  C   UNL     1       2.151   7.290  20.026  0.00  0.00    +0.000 A 
ATOM      8  C   UNL     1       2.458   7.270  18.669  0.00  0.00    +0.000 A 
ATOM      9  C   UNL     1       2.412   6.072  17.957  0.00  0.00    +0.000 A 
ATOM     10  C   UNL     1       2.056   4.861  18.595  0.00  0.00    +0.000 A 
ENDBRANCH   3  10
ENDBRANCH   1   3
BRANCH   1  11
ATOM     11  C   UNL     1       4.451   3.421  17.918  0.00  0.00    +0.000 C 
BRANCH  11  12
ATOM     12  C   UNL     1       5.484   4.253  17.199  0.00  0.00    +0.000 A 
ATOM     13  C   UNL     1       5.811   3.997  15.859  0.00  0.00    +0.000 A 
ATOM     14  C   UNL     1       6.783   4.776  15.225  0.00  0.00    +0.000 A 
ATOM     15  N   UNL     1       7.405   5.778  15.901  0.00  0.00    +0.000 NA
ATOM     16  C   UNL     1       7.108   6.052  17.198  0.00  0.00    +0.000 A 
ATOM     17  C   UNL     1       6.144   5.294  17.872  0.00  0.00    +0.000 A 
ENDBRANCH  11  12
ENDBRANCH   1  11
TORSDOF 4
ENDMDL
MODEL 8
REMARK VINA RESULT:      -6.4      1.689      2.050
REMARK  Name = 
REMARK  4 active torsions:
REMARK  status: ('A' for Active; 'I' for Inactive)
REMARK    1  A    between atoms: C_7  and  C_8
REMARK    2  A    between atoms: C_8  and  N_9
REMARK    3  A    between atoms: N_9  and  C_10
REMARK    4  A    between atoms: C_10  and  C_11
REMARK                            x       y       z     vdW  Elec       q    Type
REMARK                         _______ _______ _______ _____ _____    ______ ____
ROOT
ATOM      1  N   UNL     1       3.128   3.481  16.812  0.00  0.00    +0.000 NA
ATOM      2  H   UNL     1       3.356   3.958  15.906  0.00  0.00    +0.000 HD
ENDROOT
BRANCH   1   3
ATOM      3  C   UNL     1       2.039   4.225  17.460  0.00  0.00    +0.000 C 
BRANCH   3  10
ATOM      4 CL   UNL     1       2.950   6.450  19.436  0.00  0.00    +0.000 Cl
ATOM      5  C   UNL     1       2.341   4.868  19.909  0.00  0.00    +0.000 A 
ATOM      6  C   UNL     1       2.242   4.577  21.276  0.00  0.00    +0.000 A 
ATOM      7  C   UNL     1       1.758   3.339  21.704  0.00  0.00    +0.000 A 
ATOM      8  C   UNL     1       1.373   2.383  20.770  0.00  0.00    +0.000 A 
ATOM      9  C   UNL     1       1.465   2.659  19.405  0.00  0.00    +0.000 A 
ATOM     10  C   UNL     1       1.946   3.907  18.948  0.00  0.00    +0.000 A 
ENDBRANCH   3  10
ENDBRANCH   1   3
BRANCH   1  11
ATOM     11  C   UNL     1       4.351   3.458  17.619  0.00  0.00    +0.000 C 
BRANCH  11  12
ATOM     12  C   UNL     1       5.419   4.265  16.923  0.00  0.00    +0.000 A 
ATOM     13  C   UNL     1       6.007   5.375  17.549  0.00  0.00    +0.000 A 
ATOM     14  C   UNL     1       6.983   6.111  16.873  0.00  0.00    +0.000 A 
ATOM     15  N   UNL     1       7.363   5.753  15.618  0.00  0.00    +0.000 NA
ATOM     16  C   UNL     1       6.814   4.682  14.986  0.00  0.00    +0.000 A 
ATOM     17  C   UNL     1       5.831   3.919  15.626  0.00  0.00    +0.000 A 
ENDBRANCH  11  12
ENDBRANCH   1  11
TORSDOF 4
ENDMDL
MODEL 9
REMARK VINA RESULT:      -6.3      2.041      2.820
REMARK  Name = 
REMARK  4 active torsions:
REMARK  status: ('A' for Active; 'I' for Inactive)
REMARK    1  A    between atoms: C_7  and  C_8
REMARK    2  A    between atoms: C_8  and  N_9
REMARK    3  A    between atoms: N_9  and  C_10
REMARK    4  A    between atoms: C_10  and  C_11
REMARK                            x       y       z     vdW  Elec       q    Type
REMARK                         _______ _______ _______ _____ _____    ______ ____
ROOT
ATOM      1  N   UNL     1       4.125   4.156  17.082  0.00  0.00    +0.000 NA
ATOM      2  H   UNL     1       4.144   4.870  17.850  0.00  0.00    +0.000 HD
ENDROOT
BRANCH   1   3
ATOM      3  C   UNL     1       3.732   2.865  17.665  0.00  0.00    +0.000 C 
BRANCH   3  10
ATOM      4 CL   UNL     1       4.915   1.776  20.330  0.00  0.00    +0.000 Cl
ATOM      5  C   UNL     1       3.356   2.578  20.170  0.00  0.00    +0.000 A 
ATOM      6  C   UNL     1       2.582   2.758  21.324  0.00  0.00    +0.000 A 
ATOM      7  C   UNL     1       1.341   3.393  21.253  0.00  0.00    +0.000 A 
ATOM      8  C   UNL     1       0.864   3.852  20.028  0.00  0.00    +0.000 A 
ATOM      9  C   UNL     1       1.624   3.682  18.872  0.00  0.00    +0.000 A 
ATOM     10  C   UNL     1       2.886   3.046  18.919  0.00  0.00    +0.000 A 
ENDBRANCH   3  10
ENDBRANCH   1   3
BRANCH   1  11
ATOM     11  C   UNL     1       5.462   4.118  16.482  0.00  0.00    +0.000 C 
BRANCH  11  12
ATOM     12  C   UNL     1       6.354   5.101  17.199  0.00  0.00    +0.000 A 
ATOM     13  C   UNL     1       7.059   4.726  18.353  0.00  0.00    +0.000 A 
ATOM     14  C   UNL     1       7.866   5.663  19.003  0.00  0.00    +0.000 A 
ATOM     15  N   UNL     1       7.971   6.929  18.519  0.00  0.00    +0.000 NA
ATOM     16  C   UNL     1       7.304   7.321  17.402  0.00  0.00    +0.000 A 
ATOM     17  C   UNL     1       6.482   6.416  16.722  0.00  0.00    +0.000 A 
ENDBRANCH  11  12
ENDBRANCH   1  11
TORSDOF 4
ENDMDL
