MODEL 1
REMARK VINA RESULT:      -8.1      0.000      0.000
REMARK  Name = 
REMARK  4 active torsions:
REMARK  status: ('A' for Active; 'I' for Inactive)
REMARK    1  A    between atoms: C_1  and  N_2
REMARK    2  A    between atoms: N_2  and  C_3
REMARK    3  A    between atoms: C_3  and  C_4
REMARK    4  A    between atoms: C_13  and  C_15
REMARK                            x       y       z     vdW  Elec       q    Type
REMARK                         _______ _______ _______ _____ _____    ______ ____
ROOT
ATOM      1  C   UNL     1       1.212   2.976  19.744  0.00  0.00    +0.000 C 
ATOM      2  N   UNL     1       2.455   3.694  19.509  0.00  0.00    +0.000 N 
ATOM      3  C   UNL     1       3.282   3.244  18.472  0.00  0.00    +0.000 C 
ATOM      4  O   UNL     1       2.920   2.305  17.757  0.00  0.00    +0.000 OA
ENDROOT
BRANCH   3   5
ATOM      5  C   UNL     1       4.609   3.817  18.288  0.00  0.00    +0.000 A 
ATOM      6  C   UNL     1       5.645   4.137  19.202  0.00  0.00    +0.000 A 
ATOM      7  N   UNL     1       6.770   4.542  18.610  0.00  0.00    +0.000 NA
ATOM      8  N   UNL     1       6.472   4.508  17.306  0.00  0.00    +0.000 N 
ATOM      9  N   UNL     1       7.445   4.687  16.386  0.00  0.00    +0.000 NA
ATOM     10  C   UNL     1       6.988   4.689  15.176  0.00  0.00    +0.000 A 
ATOM     11  C   UNL     1       5.563   4.609  14.775  0.00  0.00    +0.000 A 
ATOM     12  C   UNL     1       4.674   4.366  15.746  0.00  0.00    +0.000 A 
ATOM     13  C   UNL     1       5.141   4.231  17.076  0.00  0.00    +0.000 A 
ENDBRANCH   3   5
BRANCH   2  14
ATOM     14  C   UNL     1       2.782   4.728  20.488  0.00  0.00    +0.000 C 
BRANCH  14  15
ATOM     15  C   UNL     1       2.369   6.080  19.986  0.00  0.00    +0.000 A 
ATOM     16  C   UNL     1       2.615   6.692  18.772  0.00  0.00    +0.000 A 
ATOM     17  N   UNL     1       2.092   7.947  18.887  0.00  0.00    +0.000 N 
ATOM     18  C   UNL     1       1.530   8.064  20.120  0.00  0.00    +0.000 A 
ATOM     19  N   UNL     1       1.689   6.950  20.809  0.00  0.00    +0.000 NA
ATOM     20  C   UNL     1       0.861   9.296  20.593  0.00  0.00    +0.000 C 
ATOM     21  C   UNL     1       0.755  10.424  19.571  0.00  0.00    +0.000 C 
ATOM     22  C   UNL     1       1.474  10.293  18.229  0.00  0.00    +0.000 C 
ATOM     23  C   UNL     1       2.150   8.972  17.881  0.00  0.00    +0.000 C 
ENDBRANCH  14  15
ENDBRANCH   2  14
TORSDOF 3
ENDMDL
MODEL 2
REMARK VINA RESULT:      -8.0      1.379      2.018
REMARK  Name = 
REMARK  4 active torsions:
REMARK  status: ('A' for Active; 'I' for Inactive)
REMARK    1  A    between atoms: C_1  and  N_2
REMARK    2  A    between atoms: N_2  and  C_3
REMARK    3  A    between atoms: C_3  and  C_4
REMARK    4  A    between atoms: C_13  and  C_15
REMARK                            x       y       z     vdW  Elec       q    Type
REMARK                         _______ _______ _______ _____ _____    ______ ____
ROOT
ATOM      1  C   UNL     1       2.774   3.624  19.714  0.00  0.00    +0.000 C 
ATOM      2  N   UNL     1       3.587   4.316  18.727  0.00  0.00    +0.000 N 
ATOM      3  C   UNL     1       4.975   4.139  18.786  0.00  0.00    +0.000 C 
ATOM      4  O   UNL     1       5.466   3.371  19.618  0.00  0.00    +0.000 OA
ENDROOT
BRANCH   3   5
ATOM      5  C   UNL     1       5.854   4.926  17.929  0.00  0.00    +0.000 A 
ATOM      6  C   UNL     1       6.758   5.983  18.205  0.00  0.00    +0.000 A 
ATOM      7  N   UNL     1       7.473   6.362  17.144  0.00  0.00    +0.000 NA
ATOM      8  N   UNL     1       7.029   5.568  16.163  0.00  0.00    +0.000 N 
ATOM      9  N   UNL     1       7.663   5.548  14.970  0.00  0.00    +0.000 NA
ATOM     10  C   UNL     1       7.077   4.781  14.110  0.00  0.00    +0.000 A 
ATOM     11  C   UNL     1       5.801   4.053  14.308  0.00  0.00    +0.000 A 
ATOM     12  C   UNL     1       5.277   4.075  15.540  0.00  0.00    +0.000 A 
ATOM     13  C   UNL     1       5.950   4.802  16.551  0.00  0.00    +0.000 A 
ENDBRANCH   3   5
BRANCH   2  14
ATOM     14  C   UNL     1       2.871   5.250  17.862  0.00  0.00    +0.000 C 
BRANCH  14  15
ATOM     15  C   UNL     1       2.442   6.462  18.635  0.00  0.00    +0.000 A 
ATOM     16  C   UNL     1       2.198   6.617  19.986  0.00  0.00    +0.000 A 
ATOM     17  N   UNL     1       1.747   7.897  20.129  0.00  0.00    +0.000 N 
ATOM     18  C   UNL     1       1.749   8.488  18.904  0.00  0.00    +0.000 A 
ATOM     19  N   UNL     1       2.159   7.641  17.981  0.00  0.00    +0.000 NA
ATOM     20  C   UNL     1       1.322   9.887  18.679  0.00  0.00    +0.000 C 
ATOM     21  C   UNL     1       0.953  10.675  19.932  0.00  0.00    +0.000 C 
ATOM     22  C   UNL     1       0.875   9.955  21.278  0.00  0.00    +0.000 C 
ATOM     23  C   UNL     1       1.321   8.500  21.362  0.00  0.00    +0.000 C 
ENDBRANCH  14  15
ENDBRANCH   2  14
TORSDOF 3
ENDMDL
MODEL 3
REMARK VINA RESULT:      -7.8      0.718      1.354
REMARK  Name = 
REMARK  4 active torsions:
REMARK  status: ('A' for Active; 'I' for Inactive)
REMARK    1  A    between atoms: C_1  and  N_2
REMARK    2  A    between atoms: N_2  and  C_3
REMARK    3  A    between atoms: C_3  and  C_4
REMARK    4  A    between atoms: C_13  and  C_15
REMARK                            x       y       z     vdW  Elec       q    Type
REMARK                         _______ _______ _______ _____ _____    ______ ____
ROOT
ATOM      1  C   UNL     1       0.893   3.539  18.932  0.00  0.00    +0.000 C 
ATOM      2  N   UNL     1       2.249   4.065  18.920  0.00  0.00    +0.000 N 
ATOM      3  C   UNL     1       3.089   3.680  17.868  0.00  0.00    +0.000 C 
ATOM      4  O   UNL     1       2.654   2.966  16.960  0.00  0.00    +0.000 OA
ENDROOT
BRANCH   3   5
ATOM      5  C   UNL     1       4.501   4.043  17.882  0.00  0.00    +0.000 A 
ATOM      6  C   UNL     1       5.457   4.111  18.927  0.00  0.00    +0.000 A 
ATOM      7  N   UNL     1       6.693   4.376  18.499  0.00  0.00    +0.000 NA
ATOM      8  N   UNL     1       6.551   4.501  17.176  0.00  0.00    +0.000 N 
ATOM      9  N   UNL     1       7.642   4.596  16.384  0.00  0.00    +0.000 NA
ATOM     10  C   UNL     1       7.338   4.775  15.140  0.00  0.00    +0.000 A 
ATOM     11  C   UNL     1       5.975   4.962  14.587  0.00  0.00    +0.000 A 
ATOM     12  C   UNL     1       4.950   4.786  15.430  0.00  0.00    +0.000 A 
ATOM     13  C   UNL     1       5.230   4.465  16.780  0.00  0.00    +0.000 A 
ENDBRANCH   3   5
BRANCH   2  14
ATOM     14  C   UNL     1       2.640   4.829  20.103  0.00  0.00    +0.000 C 
BRANCH  14  15
ATOM     15  C   UNL     1       2.277   6.276  19.941  0.00  0.00    +0.000 A 
ATOM     16  C   UNL     1       1.594   7.123  20.791  0.00  0.00    +0.000 A 
ATOM     17  N   UNL     1       1.464   8.296  20.107  0.00  0.00    +0.000 N 
ATOM     18  C   UNL     1       2.075   8.155  18.899  0.00  0.00    +0.000 A 
ATOM     19  N   UNL     1       2.570   6.940  18.770  0.00  0.00    +0.000 NA
ATOM     20  C   UNL     1       2.134   9.235  17.890  0.00  0.00    +0.000 C 
ATOM     21  C   UNL     1       1.537  10.573  18.318  0.00  0.00    +0.000 C 
ATOM     22  C   UNL     1       0.781  10.670  19.642  0.00  0.00    +0.000 C 
ATOM     23  C   UNL     1       0.776   9.468  20.578  0.00  0.00    +0.000 C 
ENDBRANCH  14  15
ENDBRANCH   2  14
TORSDOF 3
ENDMDL
MODEL 4
REMARK VINA RESULT:      -7.8      1.831      4.328
REMARK  Name = 
REMARK  4 active torsions:
REMARK  status: ('A' for Active; 'I' for Inactive)
REMARK    1  A    between atoms: C_1  and  N_2
REMARK    2  A    between atoms: N_2  and  C_3
REMARK    3  A    between atoms: C_3  and  C_4
REMARK    4  A    between atoms: C_13  and  C_15
REMARK                            x       y       z     vdW  Elec       q    Type
REMARK                         _______ _______ _______ _____ _____    ______ ____
ROOT
ATOM      1  C   UNL     1       6.548   6.709  17.790  0.00  0.00    +0.000 C 
ATOM      2  N   UNL     1       5.262   6.029  17.769  0.00  0.00    +0.000 N 
ATOM      3  C   UNL     1       5.180   4.770  18.375  0.00  0.00    +0.000 C 
ATOM      4  O   UNL     1       6.163   4.297  18.953  0.00  0.00    +0.000 OA
ENDROOT
BRANCH   3   5
ATOM      5  C   UNL     1       3.967   3.970  18.250  0.00  0.00    +0.000 A 
ATOM      6  C   UNL     1       3.390   3.278  17.155  0.00  0.00    +0.000 A 
ATOM      7  N   UNL     1       2.318   2.556  17.488  0.00  0.00    +0.000 NA
ATOM      8  N   UNL     1       2.176   2.786  18.798  0.00  0.00    +0.000 N 
ATOM      9  N   UNL     1       1.286   2.067  19.517  0.00  0.00    +0.000 NA
ATOM     10  C   UNL     1       1.222   2.449  20.750  0.00  0.00    +0.000 A 
ATOM     11  C   UNL     1       1.939   3.599  21.353  0.00  0.00    +0.000 A 
ATOM     12  C   UNL     1       2.850   4.212  20.586  0.00  0.00    +0.000 A 
ATOM     13  C   UNL     1       3.046   3.749  19.263  0.00  0.00    +0.000 A 
ENDBRANCH   3   5
BRANCH   2  14
ATOM     14  C   UNL     1       4.219   6.677  16.978  0.00  0.00    +0.000 C 
BRANCH  14  15
ATOM     15  C   UNL     1       3.274   7.432  17.866  0.00  0.00    +0.000 A 
ATOM     16  C   UNL     1       2.948   7.231  19.194  0.00  0.00    +0.000 A 
ATOM     17  N   UNL     1       1.972   8.144  19.469  0.00  0.00    +0.000 N 
ATOM     18  C   UNL     1       1.746   8.878  18.346  0.00  0.00    +0.000 A 
ATOM     19  N   UNL     1       2.517   8.465  17.359  0.00  0.00    +0.000 NA
ATOM     20  C   UNL     1       0.749   9.969  18.278  0.00  0.00    +0.000 C 
ATOM     21  C   UNL     1       0.032  10.292  19.586  0.00  0.00    +0.000 C 
ATOM     22  C   UNL     1       0.243   9.390  20.802  0.00  0.00    +0.000 C 
ATOM     23  C   UNL     1       1.286   8.281  20.725  0.00  0.00    +0.000 C 
ENDBRANCH  14  15
ENDBRANCH   2  14
TORSDOF 3
ENDMDL
MODEL 5
REMARK VINA RESULT:      -7.6      2.748      6.828
REMARK  Name = 
REMARK  4 active torsions:
REMARK  status: ('A' for Active; 'I' for Inactive)
REMARK    1  A    between atoms: C_1  and  N_2
REMARK    2  A    between atoms: N_2  and  C_3
REMARK    3  A    between atoms: C_3  and  C_4
REMARK    4  A    between atoms: C_13  and  C_15
REMARK                            x       y       z     vdW  Elec       q    Type
REMARK                         _______ _______ _______ _____ _____    ______ ____
ROOT
ATOM      1  C   UNL     1       5.051   7.500  17.674  0.00  0.00    +0.000 C 
ATOM      2  N   UNL     1       4.356   6.226  17.762  0.00  0.00    +0.000 N 
ATOM      3  C   UNL     1       2.978   6.250  18.010  0.00  0.00    +0.000 C 
ATOM      4  O   UNL     1       2.383   7.328  18.090  0.00  0.00    +0.000 OA
ENDROOT
BRANCH   3   5
ATOM      5  C   UNL     1       2.255   5.010  18.267  0.00  0.00    +0.000 A 
ATOM      6  C   UNL     1       1.546   4.126  17.415  0.00  0.00    +0.000 A 
ATOM      7  N   UNL     1       1.120   3.021  18.031  0.00  0.00    +0.000 NA
ATOM      8  N   UNL     1       1.531   3.184  19.294  0.00  0.00    +0.000 N 
ATOM      9  N   UNL     1       1.429   2.165  20.174  0.00  0.00    +0.000 NA
ATOM     10  C   UNL     1       1.808   2.498  21.365  0.00  0.00    +0.000 A 
ATOM     11  C   UNL     1       2.226   3.850  21.807  0.00  0.00    +0.000 A 
ATOM     12  C   UNL     1       2.362   4.783  20.856  0.00  0.00    +0.000 A 
ATOM     13  C   UNL     1       2.077   4.431  19.515  0.00  0.00    +0.000 A 
ENDBRANCH   3   5
BRANCH   2  14
ATOM     14  C   UNL     1       5.208   5.040  17.728  0.00  0.00    +0.000 C 
BRANCH  14  15
ATOM     15  C   UNL     1       5.732   4.804  16.342  0.00  0.00    +0.000 A 
ATOM     16  C   UNL     1       6.868   5.292  15.725  0.00  0.00    +0.000 A 
ATOM     17  N   UNL     1       6.806   4.835  14.441  0.00  0.00    +0.000 N 
ATOM     18  C   UNL     1       5.683   4.079  14.310  0.00  0.00    +0.000 A 
ATOM     19  N   UNL     1       5.011   4.048  15.445  0.00  0.00    +0.000 NA
ATOM     20  C   UNL     1       5.294   3.416  13.046  0.00  0.00    +0.000 C 
ATOM     21  C   UNL     1       6.285   3.557  11.894  0.00  0.00    +0.000 C 
ATOM     22  C   UNL     1       7.488   4.486  12.047  0.00  0.00    +0.000 C 
ATOM     23  C   UNL     1       7.756   5.129  13.402  0.00  0.00    +0.000 C 
ENDBRANCH  14  15
ENDBRANCH   2  14
TORSDOF 3
ENDMDL
MODEL 6
REMARK VINA RESULT:      -7.6      2.911      6.986
REMARK  Name = 
REMARK  4 active torsions:
REMARK  status: ('A' for Active; 'I' for Inactive)
REMARK    1  A    between atoms: C_1  and  N_2
REMARK    2  A    between atoms: N_2  and  C_3
REMARK    3  A    between atoms: C_3  and  C_4
REMARK    4  A    between atoms: C_13  and  C_15
REMARK                            x       y       z     vdW  Elec       q    Type
REMARK                         _______ _______ _______ _____ _____    ______ ____
ROOT
ATOM      1  C   UNL     1       6.106   7.198  17.891  0.00  0.00    +0.000 C 
ATOM      2  N   UNL     1       5.314   5.984  17.775  0.00  0.00    +0.000 N 
ATOM      3  C   UNL     1       3.948   6.065  18.075  0.00  0.00    +0.000 C 
ATOM      4  O   UNL     1       3.443   7.152  18.367  0.00  0.00    +0.000 OA
ENDROOT
BRANCH   3   5
ATOM      5  C   UNL     1       3.135   4.856  18.132  0.00  0.00    +0.000 A 
ATOM      6  C   UNL     1       2.664   3.974  17.127  0.00  0.00    +0.000 A 
ATOM      7  N   UNL     1       2.038   2.900  17.612  0.00  0.00    +0.000 NA
ATOM      8  N   UNL     1       2.078   3.082  18.936  0.00  0.00    +0.000 N 
ATOM      9  N   UNL     1       1.690   2.089  19.766  0.00  0.00    +0.000 NA
ATOM     10  C   UNL     1       1.726   2.440  21.010  0.00  0.00    +0.000 A 
ATOM     11  C   UNL     1       2.051   3.789  21.533  0.00  0.00    +0.000 A 
ATOM     12  C   UNL     1       2.489   4.692  20.647  0.00  0.00    +0.000 A 
ATOM     13  C   UNL     1       2.586   4.316  19.286  0.00  0.00    +0.000 A 
ENDBRANCH   3   5
BRANCH   2  14
ATOM     14  C   UNL     1       6.068   4.763  17.499  0.00  0.00    +0.000 C 
BRANCH  14  15
ATOM     15  C   UNL     1       6.266   4.587  16.023  0.00  0.00    +0.000 A 
ATOM     16  C   UNL     1       5.715   3.664  15.154  0.00  0.00    +0.000 A 
ATOM     17  N   UNL     1       6.310   3.900  13.950  0.00  0.00    +0.000 N 
ATOM     18  C   UNL     1       7.168   4.946  14.095  0.00  0.00    +0.000 A 
ATOM     19  N   UNL     1       7.165   5.377  15.342  0.00  0.00    +0.000 NA
ATOM     20  C   UNL     1       7.988   5.483  12.987  0.00  0.00    +0.000 C 
ATOM     21  C   UNL     1       7.753   4.843  11.621  0.00  0.00    +0.000 C 
ATOM     22  C   UNL     1       6.852   3.613  11.512  0.00  0.00    +0.000 C 
ATOM     23  C   UNL     1       6.085   3.150  12.744  0.00  0.00    +0.000 C 
ENDBRANCH  14  15
ENDBRANCH   2  14
TORSDOF 3
ENDMDL
MODEL 7
REMARK VINA RESULT:      -7.6      1.538      1.942
REMARK  Name = 
REMARK  4 active torsions:
REMARK  status: ('A' for Active; 'I' for Inactive)
REMARK    1  A    between atoms: C_1  and  N_2
REMARK    2  A    between atoms: N_2  and  C_3
REMARK    3  A    between atoms: C_3  and  C_4
REMARK    4  A    between atoms: C_13  and  C_15
REMARK                            x       y       z     vdW  Elec       q    Type
REMARK                         _______ _______ _______ _____ _____    ______ ____
ROOT
ATOM      1  C   UNL     1       3.147   3.898  19.891  0.00  0.00    +0.000 C 
ATOM      2  N   UNL     1       3.858   4.507  18.778  0.00  0.00    +0.000 N 
ATOM      3  C   UNL     1       5.258   4.480  18.806  0.00  0.00    +0.000 C 
ATOM      4  O   UNL     1       5.847   3.902  19.723  0.00  0.00    +0.000 OA
ENDROOT
BRANCH   3   5
ATOM      5  C   UNL     1       6.028   5.209  17.805  0.00  0.00    +0.000 A 
ATOM      6  C   UNL     1       6.823   6.381  17.881  0.00  0.00    +0.000 A 
ATOM      7  N   UNL     1       7.468   6.660  16.746  0.00  0.00    +0.000 NA
ATOM      8  N   UNL     1       7.084   5.685  15.916  0.00  0.00    +0.000 N 
ATOM      9  N   UNL     1       7.686   5.545  14.714  0.00  0.00    +0.000 NA
ATOM     10  C   UNL     1       7.162   4.600  14.004  0.00  0.00    +0.000 A 
ATOM     11  C   UNL     1       5.974   3.788  14.362  0.00  0.00    +0.000 A 
ATOM     12  C   UNL     1       5.482   3.947  15.597  0.00  0.00    +0.000 A 
ATOM     13  C   UNL     1       6.101   4.884  16.458  0.00  0.00    +0.000 A 
ENDBRANCH   3   5
BRANCH   2  14
ATOM     14  C   UNL     1       3.026   5.222  17.813  0.00  0.00    +0.000 C 
BRANCH  14  15
ATOM     15  C   UNL     1       2.464   6.472  18.424  0.00  0.00    +0.000 A 
ATOM     16  C   UNL     1       2.213   7.706  17.855  0.00  0.00    +0.000 A 
ATOM     17  N   UNL     1       1.794   8.500  18.882  0.00  0.00    +0.000 N 
ATOM     18  C   UNL     1       1.772   7.751  20.018  0.00  0.00    +0.000 A 
ATOM     19  N   UNL     1       2.179   6.521  19.770  0.00  0.00    +0.000 NA
ATOM     20  C   UNL     1       1.362   8.287  21.334  0.00  0.00    +0.000 C 
ATOM     21  C   UNL     1       0.870   9.732  21.335  0.00  0.00    +0.000 C 
ATOM     22  C   UNL     1       0.993  10.569  20.063  0.00  0.00    +0.000 C 
ATOM     23  C   UNL     1       1.458   9.894  18.778  0.00  0.00    +0.000 C 
ENDBRANCH  14  15
ENDBRANCH   2  14
TORSDOF 3
ENDMDL
MODEL 8
REMARK VINA RESULT:      -7.6      1.963      4.216
REMARK  Name = 
REMARK  4 active torsions:
REMARK  status: ('A' for Active; 'I' for Inactive)
REMARK    1  A    between atoms: C_1  and  N_2
REMARK    2  A    between atoms: N_2  and  C_3
REMARK    3  A    between atoms: C_3  and  C_4
REMARK    4  A    between atoms: C_13  and  C_15
REMARK                            x       y       z     vdW  Elec       q    Type
REMARK                         _______ _______ _______ _____ _____    ______ ____
ROOT
ATOM      1  C   UNL     1       6.386   6.932  17.861  0.00  0.00    +0.000 C 
ATOM      2  N   UNL     1       5.198   6.094  17.880  0.00  0.00    +0.000 N 
ATOM      3  C   UNL     1       5.275   4.869  18.554  0.00  0.00    +0.000 C 
ATOM      4  O   UNL     1       6.307   4.557  19.154  0.00  0.00    +0.000 OA
ENDROOT
BRANCH   3   5
ATOM      5  C   UNL     1       4.175   3.915  18.475  0.00  0.00    +0.000 A 
ATOM      6  C   UNL     1       3.765   3.013  17.460  0.00  0.00    +0.000 A 
ATOM      7  N   UNL     1       2.761   2.216  17.831  0.00  0.00    +0.000 NA
ATOM      8  N   UNL     1       2.494   2.604  19.083  0.00  0.00    +0.000 N 
ATOM      9  N   UNL     1       1.641   1.887  19.845  0.00  0.00    +0.000 NA
ATOM     10  C   UNL     1       1.439   2.424  21.004  0.00  0.00    +0.000 A 
ATOM     11  C   UNL     1       1.972   3.726  21.473  0.00  0.00    +0.000 A 
ATOM     12  C   UNL     1       2.862   4.336  20.681  0.00  0.00    +0.000 A 
ATOM     13  C   UNL     1       3.210   3.723  19.453  0.00  0.00    +0.000 A 
ENDBRANCH   3   5
BRANCH   2  14
ATOM     14  C   UNL     1       4.084   6.560  17.057  0.00  0.00    +0.000 C 
BRANCH  14  15
ATOM     15  C   UNL     1       3.129   7.378  17.875  0.00  0.00    +0.000 A 
ATOM     16  C   UNL     1       2.525   8.588  17.593  0.00  0.00    +0.000 A 
ATOM     17  N   UNL     1       1.832   8.919  18.720  0.00  0.00    +0.000 N 
ATOM     18  C   UNL     1       1.999   7.922  19.631  0.00  0.00    +0.000 A 
ATOM     19  N   UNL     1       2.785   6.980  19.148  0.00  0.00    +0.000 NA
ATOM     20  C   UNL     1       1.383   7.942  20.976  0.00  0.00    +0.000 C 
ATOM     21  C   UNL     1       0.460   9.123  21.263  0.00  0.00    +0.000 C 
ATOM     22  C   UNL     1       0.366  10.267  20.254  0.00  0.00    +0.000 C 
ATOM     23  C   UNL     1       1.077  10.127  18.914  0.00  0.00    +0.000 C 
ENDBRANCH  14  15
ENDBRANCH   2  14
TORSDOF 3
ENDMDL
MODEL 9
REMARK VINA RESULT:      -7.4      1.670      2.306
REMARK  Name = 
REMARK  4 active torsions:
REMARK  status: ('A' for Active; 'I' for Inactive)
REMARK    1  A    between atoms: C_1  and  N_2
REMARK    2  A    between atoms: N_2  and  C_3
REMARK    3  A    between atoms: C_3  and  C_4
REMARK    4  A    between atoms: C_13  and  C_15
REMARK                            x       y       z     vdW  Elec       q    Type
REMARK                         _______ _______ _______ _____ _____    ______ ____
ROOT
ATOM      1  C   UNL     1       2.237   3.646  19.528  0.00  0.00    +0.000 C 
ATOM      2  N   UNL     1       3.134   4.633  18.950  0.00  0.00    +0.000 N 
ATOM      3  C   UNL     1       3.671   4.366  17.684  0.00  0.00    +0.000 C 
ATOM      4  O   UNL     1       3.334   3.348  17.073  0.00  0.00    +0.000 OA
ENDROOT
BRANCH   3   5
ATOM      5  C   UNL     1       4.696   5.235  17.120  0.00  0.00    +0.000 A 
ATOM      6  C   UNL     1       4.781   5.938  15.892  0.00  0.00    +0.000 A 
ATOM      7  N   UNL     1       5.850   6.731  15.805  0.00  0.00    +0.000 NA
ATOM      8  N   UNL     1       6.482   6.539  16.968  0.00  0.00    +0.000 N 
ATOM      9  N   UNL     1       7.526   7.326  17.308  0.00  0.00    +0.000 NA
ATOM     10  C   UNL     1       8.067   6.975  18.429  0.00  0.00    +0.000 A 
ATOM     11  C   UNL     1       7.700   5.797  19.251  0.00  0.00    +0.000 A 
ATOM     12  C   UNL     1       6.612   5.112  18.875  0.00  0.00    +0.000 A 
ATOM     13  C   UNL     1       5.910   5.534  17.720  0.00  0.00    +0.000 A 
ENDBRANCH   3   5
BRANCH   2  14
ATOM     14  C   UNL     1       3.500   5.743  19.826  0.00  0.00    +0.000 C 
BRANCH  14  15
ATOM     15  C   UNL     1       2.594   6.917  19.600  0.00  0.00    +0.000 A 
ATOM     16  C   UNL     1       2.468   7.747  18.502  0.00  0.00    +0.000 A 
ATOM     17  N   UNL     1       1.565   8.701  18.870  0.00  0.00    +0.000 N 
ATOM     18  C   UNL     1       1.150   8.428  20.137  0.00  0.00    +0.000 A 
ATOM     19  N   UNL     1       1.761   7.357  20.605  0.00  0.00    +0.000 NA
ATOM     20  C   UNL     1       0.161   9.257  20.861  0.00  0.00    +0.000 C 
ATOM     21  C   UNL     1      -0.445  10.409  20.065  0.00  0.00    +0.000 C 
ATOM     22  C   UNL     1       0.109  10.741  18.681  0.00  0.00    +0.000 C 
ATOM     23  C   UNL     1       1.149   9.814  18.062  0.00  0.00    +0.000 C 
ENDBRANCH  14  15
ENDBRANCH   2  14
TORSDOF 3
ENDMDL
