MODEL 1
REMARK VINA RESULT:      -9.1      0.000      0.000
REMARK  Name = 
REMARK  8 active torsions:
REMARK  status: ('A' for Active; 'I' for Inactive)
REMARK    1  A    between atoms: C_1  and  C_2
REMARK    2  A    between atoms: C_2  and  C_3
REMARK    3  A    between atoms: C_3  and  C_4
REMARK    4  A    between atoms: C_4  and  C_5
REMARK    5  A    between atoms: C_5  and  C_6
REMARK    6  A    between atoms: C_10  and  C_11
REMARK    7  A    between atoms: N_14  and  C_15
REMARK    8  A    between atoms: C_23  and  C_24
REMARK                            x       y       z     vdW  Elec       q    Type
REMARK                         _______ _______ _______ _____ _____    ______ ____
ROOT
ATOM      1  C   UNL     1       3.702   4.586  19.261  0.00  0.00    +0.000 A 
ATOM      2  N   UNL     1       3.230   5.785  19.689  0.00  0.00    +0.000 NA
ATOM      3  C   UNL     1       2.073   5.821  20.354  0.00  0.00    +0.000 A 
ATOM      4  N   UNL     1       1.504   7.002  20.768  0.00  0.00    +0.000 N 
ATOM      5  N   UNL     1       1.367   4.728  20.638  0.00  0.00    +0.000 NA
ATOM      6  C   UNL     1       1.828   3.560  20.156  0.00  0.00    +0.000 A 
ATOM      7  C   UNL     1       3.016   3.407  19.473  0.00  0.00    +0.000 A 
ATOM      8  H   UNL     1       1.408   6.974  21.776  0.00  0.00    +0.000 HD
ENDROOT
BRANCH   1  13
ATOM      9  C   UNL     1       6.449   4.377  14.600  0.00  0.00    +0.000 A 
ATOM     10  C   UNL     1       5.064   4.248  14.751  0.00  0.00    +0.000 A 
ATOM     11  C   UNL     1       4.455   4.364  16.006  0.00  0.00    +0.000 A 
ATOM     12  C   UNL     1       5.249   4.576  17.152  0.00  0.00    +0.000 A 
ATOM     13  C   UNL     1       4.984   4.690  18.561  0.00  0.00    +0.000 A 
ATOM     14  C   UNL     1       6.208   4.802  19.182  0.00  0.00    +0.000 A 
ATOM     15  N   UNL     1       7.177   4.892  18.219  0.00  0.00    +0.000 N 
ATOM     16  C   UNL     1       6.628   4.703  16.975  0.00  0.00    +0.000 A 
ATOM     17  C   UNL     1       7.252   4.621  15.724  0.00  0.00    +0.000 A 
ATOM     18  H   UNL     1       8.164   5.027  18.394  0.00  0.00    +0.000 HD
BRANCH   9  19
ATOM     19  C   UNL     1       7.086   4.227  13.239  0.00  0.00    +0.000 C 
BRANCH  19  20
ATOM     20  C   UNL     1       6.171   3.517  12.244  0.00  0.00    +0.000 C 
BRANCH  20  21
ATOM     21  C   UNL     1       6.883   2.330  11.598  0.00  0.00    +0.000 C 
BRANCH  21  23
ATOM     22  C   UNL     1       6.294  -0.103  11.388  0.00  0.00    +0.000 C 
ATOM     23  C   UNL     1       5.878   1.319  11.051  0.00  0.00    +0.000 C 
ENDBRANCH  21  23
ENDBRANCH  20  21
ENDBRANCH  19  20
ENDBRANCH   9  19
ENDBRANCH   1  13
BRANCH   4  24
ATOM     24  C   UNL     1       1.892   8.277  20.176  0.00  0.00    +0.000 C 
ATOM     25  C   UNL     1       1.831   8.170  18.640  0.00  0.00    +0.000 C 
ATOM     26  C   UNL     1       1.864   9.534  17.961  0.00  0.00    +0.000 C 
ATOM     27  C   UNL     1       0.795  10.463  18.519  0.00  0.00    +0.000 C 
ATOM     28  N   UNL     1       0.967  10.640  19.962  0.00  0.00    +0.000 NA
ATOM     29  C   UNL     1       0.873   9.350  20.655  0.00  0.00    +0.000 C 
ATOM     30  H   UNL     1       0.233  11.259  20.308  0.00  0.00    +0.000 HD
ENDBRANCH   4  24
BRANCH   7  31
ATOM     31  C   UNL     1       3.375   2.031  19.048  0.00  0.00    +0.000 C 
ATOM     32  F   UNL     1       3.638   1.833  17.731  0.00  0.00    +0.000 F 
ATOM     33  F   UNL     1       4.493   1.581  19.691  0.00  0.00    +0.000 F 
ATOM     34  F   UNL     1       2.400   1.133  19.374  0.00  0.00    +0.000 F 
ENDBRANCH   7  31
TORSDOF 7
ENDMDL
MODEL 2
REMARK VINA RESULT:      -9.1      0.797      1.257
REMARK  Name = 
REMARK  8 active torsions:
REMARK  status: ('A' for Active; 'I' for Inactive)
REMARK    1  A    between atoms: C_1  and  C_2
REMARK    2  A    between atoms: C_2  and  C_3
REMARK    3  A    between atoms: C_3  and  C_4
REMARK    4  A    between atoms: C_4  and  C_5
REMARK    5  A    between atoms: C_5  and  C_6
REMARK    6  A    between atoms: C_10  and  C_11
REMARK    7  A    between atoms: N_14  and  C_15
REMARK    8  A    between atoms: C_23  and  C_24
REMARK                            x       y       z     vdW  Elec       q    Type
REMARK                         _______ _______ _______ _____ _____    ______ ____
ROOT
ATOM      1  C   UNL     1       3.635   4.641  19.327  0.00  0.00    +0.000 A 
ATOM      2  N   UNL     1       3.175   5.849  19.745  0.00  0.00    +0.000 NA
ATOM      3  C   UNL     1       2.024   5.901  20.418  0.00  0.00    +0.000 A 
ATOM      4  N   UNL     1       1.468   7.091  20.823  0.00  0.00    +0.000 N 
ATOM      5  N   UNL     1       1.312   4.817  20.720  0.00  0.00    +0.000 NA
ATOM      6  C   UNL     1       1.761   3.640  20.248  0.00  0.00    +0.000 A 
ATOM      7  C   UNL     1       2.942   3.471  19.558  0.00  0.00    +0.000 A 
ATOM      8  H   UNL     1       1.379   7.076  21.831  0.00  0.00    +0.000 HD
ENDROOT
BRANCH   1  13
ATOM      9  C   UNL     1       6.329   4.464  14.634  0.00  0.00    +0.000 A 
ATOM     10  C   UNL     1       4.943   4.367  14.796  0.00  0.00    +0.000 A 
ATOM     11  C   UNL     1       4.349   4.471  16.060  0.00  0.00    +0.000 A 
ATOM     12  C   UNL     1       5.161   4.637  17.201  0.00  0.00    +0.000 A 
ATOM     13  C   UNL     1       4.912   4.727  18.615  0.00  0.00    +0.000 A 
ATOM     14  C   UNL     1       6.145   4.794  19.227  0.00  0.00    +0.000 A 
ATOM     15  N   UNL     1       7.106   4.880  18.256  0.00  0.00    +0.000 N 
ATOM     16  C   UNL     1       6.540   4.732  17.013  0.00  0.00    +0.000 A 
ATOM     17  C   UNL     1       7.150   4.662  15.754  0.00  0.00    +0.000 A 
ATOM     18  H   UNL     1       8.098   4.986  18.422  0.00  0.00    +0.000 HD
BRANCH   9  19
ATOM     19  C   UNL     1       6.949   4.327  13.263  0.00  0.00    +0.000 C 
BRANCH  19  20
ATOM     20  C   UNL     1       6.373   3.149  12.480  0.00  0.00    +0.000 C 
BRANCH  20  21
ATOM     21  C   UNL     1       5.588   3.634  11.263  0.00  0.00    +0.000 C 
BRANCH  21  23
ATOM     22  C   UNL     1       3.292   3.789  10.257  0.00  0.00    +0.000 C 
ATOM     23  C   UNL     1       4.171   3.065  11.262  0.00  0.00    +0.000 C 
ENDBRANCH  21  23
ENDBRANCH  20  21
ENDBRANCH  19  20
ENDBRANCH   9  19
ENDBRANCH   1  13
BRANCH   4  24
ATOM     24  C   UNL     1       1.860   8.357  20.213  0.00  0.00    +0.000 C 
ATOM     25  C   UNL     1       1.776   8.236  18.679  0.00  0.00    +0.000 C 
ATOM     26  C   UNL     1       1.813   9.593  17.987  0.00  0.00    +0.000 C 
ATOM     27  C   UNL     1       0.764  10.539  18.553  0.00  0.00    +0.000 C 
ATOM     28  N   UNL     1       0.959  10.728  19.991  0.00  0.00    +0.000 NA
ATOM     29  C   UNL     1       0.861   9.445  20.698  0.00  0.00    +0.000 C 
ATOM     30  H   UNL     1       0.237  11.358  20.342  0.00  0.00    +0.000 HD
ENDBRANCH   4  24
BRANCH   7  31
ATOM     31  C   UNL     1       3.287   2.086  19.146  0.00  0.00    +0.000 C 
ATOM     32  F   UNL     1       4.432   1.554  19.644  0.00  0.00    +0.000 F 
ATOM     33  F   UNL     1       2.312   1.198  19.505  0.00  0.00    +0.000 F 
ATOM     34  F   UNL     1       3.380   1.972  17.789  0.00  0.00    +0.000 F 
ENDBRANCH   7  31
TORSDOF 7
ENDMDL
MODEL 3
REMARK VINA RESULT:      -8.1      4.810      7.776
REMARK  Name = 
REMARK  8 active torsions:
REMARK  status: ('A' for Active; 'I' for Inactive)
REMARK    1  A    between atoms: C_1  and  C_2
REMARK    2  A    between atoms: C_2  and  C_3
REMARK    3  A    between atoms: C_3  and  C_4
REMARK    4  A    between atoms: C_4  and  C_5
REMARK    5  A    between atoms: C_5  and  C_6
REMARK    6  A    between atoms: C_10  and  C_11
REMARK    7  A    between atoms: N_14  and  C_15
REMARK    8  A    between atoms: C_23  and  C_24
REMARK                            x       y       z     vdW  Elec       q    Type
REMARK                         _______ _______ _______ _____ _____    ______ ____
ROOT
ATOM      1  C   UNL     1       0.531  11.174  19.350  0.00  0.00    +0.000 A 
ATOM      2  N   UNL     1       1.318  12.196  19.775  0.00  0.00    +0.000 NA
ATOM      3  C   UNL     1       1.013  13.440  19.399  0.00  0.00    +0.000 A 
ATOM      4  N   UNL     1       1.794  14.519  19.742  0.00  0.00    +0.000 N 
ATOM      5  N   UNL     1      -0.044  13.730  18.642  0.00  0.00    +0.000 NA
ATOM      6  C   UNL     1      -0.774  12.695  18.191  0.00  0.00    +0.000 A 
ATOM      7  C   UNL     1      -0.559  11.376  18.529  0.00  0.00    +0.000 A 
ATOM      8  H   UNL     1       1.227  15.167  20.274  0.00  0.00    +0.000 HD
ENDROOT
BRANCH   1  13
ATOM      9  C   UNL     1       2.959   6.436  18.364  0.00  0.00    +0.000 A 
ATOM     10  C   UNL     1       2.824   7.499  17.465  0.00  0.00    +0.000 A 
ATOM     11  C   UNL     1       2.213   8.700  17.845  0.00  0.00    +0.000 A 
ATOM     12  C   UNL     1       1.686   8.835  19.146  0.00  0.00    +0.000 A 
ATOM     13  C   UNL     1       0.970   9.867  19.846  0.00  0.00    +0.000 A 
ATOM     14  C   UNL     1       0.648   9.352  21.082  0.00  0.00    +0.000 A 
ATOM     15  N   UNL     1       1.241   8.125  21.208  0.00  0.00    +0.000 N 
ATOM     16  C   UNL     1       1.834   7.760  20.025  0.00  0.00    +0.000 A 
ATOM     17  C   UNL     1       2.470   6.563  19.673  0.00  0.00    +0.000 A 
ATOM     18  H   UNL     1       1.209   7.541  22.034  0.00  0.00    +0.000 HD
BRANCH   9  19
ATOM     19  C   UNL     1       3.602   5.141  17.925  0.00  0.00    +0.000 C 
BRANCH  19  20
ATOM     20  C   UNL     1       3.044   3.932  18.672  0.00  0.00    +0.000 C 
BRANCH  20  21
ATOM     21  C   UNL     1       1.817   3.368  17.959  0.00  0.00    +0.000 C 
BRANCH  21  23
ATOM     22  C   UNL     1       1.057   3.235  20.350  0.00  0.00    +0.000 C 
ATOM     23  C   UNL     1       0.875   2.683  18.947  0.00  0.00    +0.000 C 
ENDBRANCH  21  23
ENDBRANCH  20  21
ENDBRANCH  19  20
ENDBRANCH   9  19
ENDBRANCH   1  13
BRANCH   4  24
ATOM     24  C   UNL     1       3.178  14.346  20.169  0.00  0.00    +0.000 C 
ATOM     25  C   UNL     1       4.108  15.133  19.226  0.00  0.00    +0.000 C 
ATOM     26  C   UNL     1       5.508  15.305  19.802  0.00  0.00    +0.000 C 
ATOM     27  C   UNL     1       5.468  15.897  21.204  0.00  0.00    +0.000 C 
ATOM     28  N   UNL     1       4.680  15.051  22.100  0.00  0.00    +0.000 NA
ATOM     29  C   UNL     1       3.303  14.919  21.609  0.00  0.00    +0.000 C 
ATOM     30  H   UNL     1       4.663  15.477  23.028  0.00  0.00    +0.000 HD
ENDBRANCH   4  24
BRANCH   7  31
ATOM     31  C   UNL     1      -1.494  10.374  17.956  0.00  0.00    +0.000 C 
ATOM     32  F   UNL     1      -0.980   9.467  17.086  0.00  0.00    +0.000 F 
ATOM     33  F   UNL     1      -2.080   9.619  18.932  0.00  0.00    +0.000 F 
ATOM     34  F   UNL     1      -2.534  10.971  17.304  0.00  0.00    +0.000 F 
ENDBRANCH   7  31
TORSDOF 7
ENDMDL
MODEL 4
REMARK VINA RESULT:      -8.1      4.924      7.835
REMARK  Name = 
REMARK  8 active torsions:
REMARK  status: ('A' for Active; 'I' for Inactive)
REMARK    1  A    between atoms: C_1  and  C_2
REMARK    2  A    between atoms: C_2  and  C_3
REMARK    3  A    between atoms: C_3  and  C_4
REMARK    4  A    between atoms: C_4  and  C_5
REMARK    5  A    between atoms: C_5  and  C_6
REMARK    6  A    between atoms: C_10  and  C_11
REMARK    7  A    between atoms: N_14  and  C_15
REMARK    8  A    between atoms: C_23  and  C_24
REMARK                            x       y       z     vdW  Elec       q    Type
REMARK                         _______ _______ _______ _____ _____    ______ ____
ROOT
ATOM      1  C   UNL     1       0.590  11.326  19.314  0.00  0.00    +0.000 A 
ATOM      2  N   UNL     1       1.458  12.344  19.541  0.00  0.00    +0.000 NA
ATOM      3  C   UNL     1       1.145  13.566  19.103  0.00  0.00    +0.000 A 
ATOM      4  N   UNL     1       1.999  14.634  19.246  0.00  0.00    +0.000 N 
ATOM      5  N   UNL     1       0.006  13.838  18.470  0.00  0.00    +0.000 NA
ATOM      6  C   UNL     1      -0.811  12.802  18.209  0.00  0.00    +0.000 A 
ATOM      7  C   UNL     1      -0.594  11.507  18.629  0.00  0.00    +0.000 A 
ATOM      8  H   UNL     1       1.529  15.347  19.790  0.00  0.00    +0.000 HD
ENDROOT
BRANCH   1  13
ATOM      9  C   UNL     1       2.639   6.394  18.423  0.00  0.00    +0.000 A 
ATOM     10  C   UNL     1       2.406   7.380  17.458  0.00  0.00    +0.000 A 
ATOM     11  C   UNL     1       1.911   8.641  17.811  0.00  0.00    +0.000 A 
ATOM     12  C   UNL     1       1.603   8.918  19.159  0.00  0.00    +0.000 A 
ATOM     13  C   UNL     1       1.049  10.046  19.859  0.00  0.00    +0.000 A 
ATOM     14  C   UNL     1       0.908   9.660  21.174  0.00  0.00    +0.000 A 
ATOM     15  N   UNL     1       1.465   8.419  21.324  0.00  0.00    +0.000 N 
ATOM     16  C   UNL     1       1.847   7.920  20.103  0.00  0.00    +0.000 A 
ATOM     17  C   UNL     1       2.370   6.663  19.773  0.00  0.00    +0.000 A 
ATOM     18  H   UNL     1       1.540   7.913  22.197  0.00  0.00    +0.000 HD
BRANCH   9  19
ATOM     19  C   UNL     1       3.153   5.033  18.016  0.00  0.00    +0.000 C 
BRANCH  19  20
ATOM     20  C   UNL     1       2.024   4.075  17.639  0.00  0.00    +0.000 C 
BRANCH  20  21
ATOM     21  C   UNL     1       2.439   2.624  17.873  0.00  0.00    +0.000 C 
BRANCH  21  23
ATOM     22  C   UNL     1       0.816   2.991  19.756  0.00  0.00    +0.000 C 
ATOM     23  C   UNL     1       1.950   2.126  19.231  0.00  0.00    +0.000 C 
ENDBRANCH  21  23
ENDBRANCH  20  21
ENDBRANCH  19  20
ENDBRANCH   9  19
ENDBRANCH   1  13
BRANCH   4  24
ATOM     24  C   UNL     1       3.421  14.437  19.501  0.00  0.00    +0.000 C 
ATOM     25  C   UNL     1       4.209  14.629  18.190  0.00  0.00    +0.000 C 
ATOM     26  C   UNL     1       5.704  14.801  18.431  0.00  0.00    +0.000 C 
ATOM     27  C   UNL     1       5.985  15.903  19.442  0.00  0.00    +0.000 C 
ATOM     28  N   UNL     1       5.322  15.618  20.716  0.00  0.00    +0.000 NA
ATOM     29  C   UNL     1       3.870  15.513  20.530  0.00  0.00    +0.000 C 
ATOM     30  H   UNL     1       5.521  16.377  21.369  0.00  0.00    +0.000 HD
ENDBRANCH   4  24
BRANCH   7  31
ATOM     31  C   UNL     1      -1.629  10.503  18.272  0.00  0.00    +0.000 C 
ATOM     32  F   UNL     1      -1.974   9.597  19.223  0.00  0.00    +0.000 F 
ATOM     33  F   UNL     1      -2.808  11.099  17.924  0.00  0.00    +0.000 F 
ATOM     34  F   UNL     1      -1.268   9.775  17.176  0.00  0.00    +0.000 F 
ENDBRANCH   7  31
TORSDOF 7
ENDMDL
MODEL 5
REMARK VINA RESULT:      -7.9      2.759      7.259
REMARK  Name = 
REMARK  8 active torsions:
REMARK  status: ('A' for Active; 'I' for Inactive)
REMARK    1  A    between atoms: C_1  and  C_2
REMARK    2  A    between atoms: C_2  and  C_3
REMARK    3  A    between atoms: C_3  and  C_4
REMARK    4  A    between atoms: C_4  and  C_5
REMARK    5  A    between atoms: C_5  and  C_6
REMARK    6  A    between atoms: C_10  and  C_11
REMARK    7  A    between atoms: N_14  and  C_15
REMARK    8  A    between atoms: C_23  and  C_24
REMARK                            x       y       z     vdW  Elec       q    Type
REMARK                         _______ _______ _______ _____ _____    ______ ____
ROOT
ATOM      1  C   UNL     1       2.864   4.346  18.564  0.00  0.00    +0.000 A 
ATOM      2  N   UNL     1       3.934   4.589  17.764  0.00  0.00    +0.000 NA
ATOM      3  C   UNL     1       4.400   3.601  16.997  0.00  0.00    +0.000 A 
ATOM      4  N   UNL     1       5.513   3.755  16.205  0.00  0.00    +0.000 N 
ATOM      5  N   UNL     1       3.850   2.390  16.962  0.00  0.00    +0.000 NA
ATOM      6  C   UNL     1       2.825   2.160  17.803  0.00  0.00    +0.000 A 
ATOM      7  C   UNL     1       2.255   3.109  18.624  0.00  0.00    +0.000 A 
ATOM      8  H   UNL     1       5.247   3.587  15.243  0.00  0.00    +0.000 HD
ENDROOT
BRANCH   1  13
ATOM      9  C   UNL     1       1.688   9.631  18.678  0.00  0.00    +0.000 A 
ATOM     10  C   UNL     1       2.018   8.881  17.544  0.00  0.00    +0.000 A 
ATOM     11  C   UNL     1       2.261   7.505  17.627  0.00  0.00    +0.000 A 
ATOM     12  C   UNL     1       2.213   6.861  18.881  0.00  0.00    +0.000 A 
ATOM     13  C   UNL     1       2.448   5.518  19.339  0.00  0.00    +0.000 A 
ATOM     14  C   UNL     1       2.327   5.544  20.710  0.00  0.00    +0.000 A 
ATOM     15  N   UNL     1       1.905   6.792  21.084  0.00  0.00    +0.000 N 
ATOM     16  C   UNL     1       1.879   7.630  19.997  0.00  0.00    +0.000 A 
ATOM     17  C   UNL     1       1.603   9.001  19.929  0.00  0.00    +0.000 A 
ATOM     18  H   UNL     1       1.690   7.078  22.031  0.00  0.00    +0.000 HD
BRANCH   9  19
ATOM     19  C   UNL     1       1.452  11.119  18.568  0.00  0.00    +0.000 C 
BRANCH  19  20
ATOM     20  C   UNL     1       0.249  11.578  19.388  0.00  0.00    +0.000 C 
BRANCH  20  21
ATOM     21  C   UNL     1      -0.961  11.828  18.491  0.00  0.00    +0.000 C 
BRANCH  21  23
ATOM     22  C   UNL     1      -1.771   9.881  17.125  0.00  0.00    +0.000 C 
ATOM     23  C   UNL     1      -1.879  10.608  18.455  0.00  0.00    +0.000 C 
ENDBRANCH  21  23
ENDBRANCH  20  21
ENDBRANCH  19  20
ENDBRANCH   9  19
ENDBRANCH   1  13
BRANCH   4  24
ATOM     24  C   UNL     1       6.473   4.827  16.447  0.00  0.00    +0.000 C 
ATOM     25  C   UNL     1       5.720   6.159  16.629  0.00  0.00    +0.000 C 
ATOM     26  C   UNL     1       6.599   7.244  17.238  0.00  0.00    +0.000 C 
ATOM     27  C   UNL     1       7.260   6.772  18.525  0.00  0.00    +0.000 C 
ATOM     28  N   UNL     1       8.070   5.577  18.283  0.00  0.00    +0.000 NA
ATOM     29  C   UNL     1       7.238   4.488  17.758  0.00  0.00    +0.000 C 
ATOM     30  H   UNL     1       8.491   5.280  19.163  0.00  0.00    +0.000 HD
ENDBRANCH   4  24
BRANCH   7  31
ATOM     31  C   UNL     1       1.108   2.674  19.460  0.00  0.00    +0.000 C 
ATOM     32  F   UNL     1       0.219   3.626  19.845  0.00  0.00    +0.000 F 
ATOM     33  F   UNL     1       0.348   1.736  18.820  0.00  0.00    +0.000 F 
ATOM     34  F   UNL     1       1.523   2.063  20.607  0.00  0.00    +0.000 F 
ENDBRANCH   7  31
TORSDOF 7
ENDMDL
MODEL 6
REMARK VINA RESULT:      -7.9      4.639      7.682
REMARK  Name = 
REMARK  8 active torsions:
REMARK  status: ('A' for Active; 'I' for Inactive)
REMARK    1  A    between atoms: C_1  and  C_2
REMARK    2  A    between atoms: C_2  and  C_3
REMARK    3  A    between atoms: C_3  and  C_4
REMARK    4  A    between atoms: C_4  and  C_5
REMARK    5  A    between atoms: C_5  and  C_6
REMARK    6  A    between atoms: C_10  and  C_11
REMARK    7  A    between atoms: N_14  and  C_15
REMARK    8  A    between atoms: C_23  and  C_24
REMARK                            x       y       z     vdW  Elec       q    Type
REMARK                         _______ _______ _______ _____ _____    ______ ____
ROOT
ATOM      1  C   UNL     1       0.460  11.186  19.401  0.00  0.00    +0.000 A 
ATOM      2  N   UNL     1       1.225  12.196  19.888  0.00  0.00    +0.000 NA
ATOM      3  C   UNL     1       0.935  13.450  19.535  0.00  0.00    +0.000 A 
ATOM      4  N   UNL     1       1.699  14.518  19.942  0.00  0.00    +0.000 N 
ATOM      5  N   UNL     1      -0.087  13.761  18.741  0.00  0.00    +0.000 NA
ATOM      6  C   UNL     1      -0.796  12.739  18.229  0.00  0.00    +0.000 A 
ATOM      7  C   UNL     1      -0.594  11.411  18.539  0.00  0.00    +0.000 A 
ATOM      8  H   UNL     1       1.109  15.152  20.467  0.00  0.00    +0.000 HD
ENDROOT
BRANCH   1  13
ATOM      9  C   UNL     1       3.096   6.552  18.454  0.00  0.00    +0.000 A 
ATOM     10  C   UNL     1       3.028   7.656  17.597  0.00  0.00    +0.000 A 
ATOM     11  C   UNL     1       2.350   8.824  17.966  0.00  0.00    +0.000 A 
ATOM     12  C   UNL     1       1.688   8.884  19.210  0.00  0.00    +0.000 A 
ATOM     13  C   UNL     1       0.878   9.866  19.879  0.00  0.00    +0.000 A 
ATOM     14  C   UNL     1       0.443   9.284  21.049  0.00  0.00    +0.000 A 
ATOM     15  N   UNL     1       1.051   8.065  21.180  0.00  0.00    +0.000 N 
ATOM     16  C   UNL     1       1.773   7.771  20.049  0.00  0.00    +0.000 A 
ATOM     17  C   UNL     1       2.471   6.605  19.709  0.00  0.00    +0.000 A 
ATOM     18  H   UNL     1       0.949   7.441  21.969  0.00  0.00    +0.000 HD
BRANCH   9  19
ATOM     19  C   UNL     1       3.814   5.295  18.025  0.00  0.00    +0.000 C 
BRANCH  19  20
ATOM     20  C   UNL     1       5.280   5.550  17.681  0.00  0.00    +0.000 C 
BRANCH  20  21
ATOM     21  C   UNL     1       6.176   5.296  18.891  0.00  0.00    +0.000 C 
BRANCH  21  23
ATOM     22  C   UNL     1       7.463   7.011  17.582  0.00  0.00    +0.000 C 
ATOM     23  C   UNL     1       7.488   6.069  18.773  0.00  0.00    +0.000 C 
ENDBRANCH  21  23
ENDBRANCH  20  21
ENDBRANCH  19  20
ENDBRANCH   9  19
ENDBRANCH   1  13
BRANCH   4  24
ATOM     24  C   UNL     1       3.063  14.334  20.424  0.00  0.00    +0.000 C 
ATOM     25  C   UNL     1       4.030  15.168  19.561  0.00  0.00    +0.000 C 
ATOM     26  C   UNL     1       5.401  15.321  20.209  0.00  0.00    +0.000 C 
ATOM     27  C   UNL     1       5.292  15.849  21.632  0.00  0.00    +0.000 C 
ATOM     28  N   UNL     1       4.470  14.959  22.453  0.00  0.00    +0.000 NA
ATOM     29  C   UNL     1       3.118  14.843  21.893  0.00  0.00    +0.000 C 
ATOM     30  H   UNL     1       4.408  15.343  23.396  0.00  0.00    +0.000 HD
ENDBRANCH   4  24
BRANCH   7  31
ATOM     31  C   UNL     1      -1.501  10.426  17.898  0.00  0.00    +0.000 C 
ATOM     32  F   UNL     1      -2.446  10.908  17.049  0.00  0.00    +0.000 F 
ATOM     33  F   UNL     1      -0.807   9.514  17.154  0.00  0.00    +0.000 F 
ATOM     34  F   UNL     1      -2.174   9.683  18.824  0.00  0.00    +0.000 F 
ENDBRANCH   7  31
TORSDOF 7
ENDMDL
MODEL 7
REMARK VINA RESULT:      -7.8      5.376      8.590
REMARK  Name = 
REMARK  8 active torsions:
REMARK  status: ('A' for Active; 'I' for Inactive)
REMARK    1  A    between atoms: C_1  and  C_2
REMARK    2  A    between atoms: C_2  and  C_3
REMARK    3  A    between atoms: C_3  and  C_4
REMARK    4  A    between atoms: C_4  and  C_5
REMARK    5  A    between atoms: C_5  and  C_6
REMARK    6  A    between atoms: C_10  and  C_11
REMARK    7  A    between atoms: N_14  and  C_15
REMARK    8  A    between atoms: C_23  and  C_24
REMARK                            x       y       z     vdW  Elec       q    Type
REMARK                         _______ _______ _______ _____ _____    ______ ____
ROOT
ATOM      1  C   UNL     1       0.108  11.757  19.820  0.00  0.00    +0.000 A 
ATOM      2  N   UNL     1      -1.194  11.885  20.184  0.00  0.00    +0.000 NA
ATOM      3  C   UNL     1      -1.864  12.974  19.802  0.00  0.00    +0.000 A 
ATOM      4  N   UNL     1      -3.167  13.200  20.179  0.00  0.00    +0.000 N 
ATOM      5  N   UNL     1      -1.321  13.935  19.058  0.00  0.00    +0.000 NA
ATOM      6  C   UNL     1      -0.016  13.811  18.757  0.00  0.00    +0.000 A 
ATOM      7  C   UNL     1       0.765  12.723  19.086  0.00  0.00    +0.000 A 
ATOM      8  H   UNL     1      -3.733  13.273  19.344  0.00  0.00    +0.000 HD
ENDROOT
BRANCH   1  13
ATOM      9  C   UNL     1       2.297   6.947  18.642  0.00  0.00    +0.000 A 
ATOM     10  C   UNL     1       1.868   7.909  17.721  0.00  0.00    +0.000 A 
ATOM     11  C   UNL     1       1.355   9.142  18.142  0.00  0.00    +0.000 A 
ATOM     12  C   UNL     1       1.230   9.412  19.520  0.00  0.00    +0.000 A 
ATOM     13  C   UNL     1       0.717  10.511  20.293  0.00  0.00    +0.000 A 
ATOM     14  C   UNL     1       0.791  10.130  21.614  0.00  0.00    +0.000 A 
ATOM     15  N   UNL     1       1.436   8.924  21.682  0.00  0.00    +0.000 N 
ATOM     16  C   UNL     1       1.667   8.438  20.419  0.00  0.00    +0.000 A 
ATOM     17  C   UNL     1       2.211   7.211  20.017  0.00  0.00    +0.000 A 
ATOM     18  H   UNL     1       1.668   8.431  22.535  0.00  0.00    +0.000 HD
BRANCH   9  19
ATOM     19  C   UNL     1       2.826   5.615  18.165  0.00  0.00    +0.000 C 
BRANCH  19  20
ATOM     20  C   UNL     1       1.707   4.643  17.796  0.00  0.00    +0.000 C 
BRANCH  20  21
ATOM     21  C   UNL     1       1.694   3.442  18.739  0.00  0.00    +0.000 C 
BRANCH  21  23
ATOM     22  C   UNL     1       1.696   3.432  21.251  0.00  0.00    +0.000 C 
ATOM     23  C   UNL     1       0.890   3.744  20.002  0.00  0.00    +0.000 C 
ENDBRANCH  21  23
ENDBRANCH  20  21
ENDBRANCH  19  20
ENDBRANCH   9  19
ENDBRANCH   1  13
BRANCH   4  24
ATOM     24  C   UNL     1      -3.756  12.505  21.319  0.00  0.00    +0.000 C 
ATOM     25  C   UNL     1      -3.251  13.144  22.627  0.00  0.00    +0.000 C 
ATOM     26  C   UNL     1      -4.083  12.729  23.835  0.00  0.00    +0.000 C 
ATOM     27  C   UNL     1      -5.567  12.976  23.604  0.00  0.00    +0.000 C 
ATOM     28  N   UNL     1      -6.035  12.247  22.424  0.00  0.00    +0.000 NA
ATOM     29  C   UNL     1      -5.299  12.674  21.228  0.00  0.00    +0.000 C 
ATOM     30  H   UNL     1      -7.029  12.439  22.291  0.00  0.00    +0.000 HD
ENDBRANCH   4  24
BRANCH   7  31
ATOM     31  C   UNL     1       2.180  12.751  18.637  0.00  0.00    +0.000 C 
ATOM     32  F   UNL     1       2.623  11.699  17.902  0.00  0.00    +0.000 F 
ATOM     33  F   UNL     1       2.438  13.844  17.859  0.00  0.00    +0.000 F 
ATOM     34  F   UNL     1       3.041  12.861  19.690  0.00  0.00    +0.000 F 
ENDBRANCH   7  31
TORSDOF 7
ENDMDL
MODEL 8
REMARK VINA RESULT:      -7.8      4.449      7.312
REMARK  Name = 
REMARK  8 active torsions:
REMARK  status: ('A' for Active; 'I' for Inactive)
REMARK    1  A    between atoms: C_1  and  C_2
REMARK    2  A    between atoms: C_2  and  C_3
REMARK    3  A    between atoms: C_3  and  C_4
REMARK    4  A    between atoms: C_4  and  C_5
REMARK    5  A    between atoms: C_5  and  C_6
REMARK    6  A    between atoms: C_10  and  C_11
REMARK    7  A    between atoms: N_14  and  C_15
REMARK    8  A    between atoms: C_23  and  C_24
REMARK                            x       y       z     vdW  Elec       q    Type
REMARK                         _______ _______ _______ _____ _____    ______ ____
ROOT
ATOM      1  C   UNL     1       0.605  11.185  19.477  0.00  0.00    +0.000 A 
ATOM      2  N   UNL     1       1.362  12.188  19.992  0.00  0.00    +0.000 NA
ATOM      3  C   UNL     1       1.074  13.448  19.655  0.00  0.00    +0.000 A 
ATOM      4  N   UNL     1       1.830  14.510  20.091  0.00  0.00    +0.000 N 
ATOM      5  N   UNL     1       0.063  13.770  18.852  0.00  0.00    +0.000 NA
ATOM      6  C   UNL     1      -0.636  12.755  18.313  0.00  0.00    +0.000 A 
ATOM      7  C   UNL     1      -0.436  11.423  18.603  0.00  0.00    +0.000 A 
ATOM      8  H   UNL     1       1.231  15.134  20.618  0.00  0.00    +0.000 HD
ENDROOT
BRANCH   1  13
ATOM      9  C   UNL     1       3.015   6.460  18.390  0.00  0.00    +0.000 A 
ATOM     10  C   UNL     1       2.913   7.555  17.525  0.00  0.00    +0.000 A 
ATOM     11  C   UNL     1       2.303   8.748  17.931  0.00  0.00    +0.000 A 
ATOM     12  C   UNL     1       1.743   8.843  19.222  0.00  0.00    +0.000 A 
ATOM     13  C   UNL     1       1.019   9.858  19.939  0.00  0.00    +0.000 A 
ATOM     14  C   UNL     1       0.660   9.304  21.147  0.00  0.00    +0.000 A 
ATOM     15  N   UNL     1       1.239   8.067  21.246  0.00  0.00    +0.000 N 
ATOM     16  C   UNL     1       1.859   7.738  20.067  0.00  0.00    +0.000 A 
ATOM     17  C   UNL     1       2.493   6.547  19.690  0.00  0.00    +0.000 A 
ATOM     18  H   UNL     1       1.179   7.456  22.050  0.00  0.00    +0.000 HD
BRANCH   9  19
ATOM     19  C   UNL     1       3.657   5.175  17.924  0.00  0.00    +0.000 C 
BRANCH  19  20
ATOM     20  C   UNL     1       4.657   5.403  16.792  0.00  0.00    +0.000 C 
BRANCH  20  21
ATOM     21  C   UNL     1       5.315   4.090  16.372  0.00  0.00    +0.000 C 
BRANCH  21  23
ATOM     22  C   UNL     1       5.988   4.036  13.952  0.00  0.00    +0.000 C 
ATOM     23  C   UNL     1       6.442   4.337  15.371  0.00  0.00    +0.000 C 
ENDBRANCH  21  23
ENDBRANCH  20  21
ENDBRANCH  19  20
ENDBRANCH   9  19
ENDBRANCH   1  13
BRANCH   4  24
ATOM     24  C   UNL     1       3.188  14.320  20.590  0.00  0.00    +0.000 C 
ATOM     25  C   UNL     1       4.185  15.012  19.641  0.00  0.00    +0.000 C 
ATOM     26  C   UNL     1       5.565  15.175  20.267  0.00  0.00    +0.000 C 
ATOM     27  C   UNL     1       5.486  15.859  21.624  0.00  0.00    +0.000 C 
ATOM     28  N   UNL     1       4.631  15.100  22.537  0.00  0.00    +0.000 NA
ATOM     29  C   UNL     1       3.272  14.982  21.994  0.00  0.00    +0.000 C 
ATOM     30  H   UNL     1       4.590  15.587  23.433  0.00  0.00    +0.000 HD
ENDBRANCH   4  24
BRANCH   7  31
ATOM     31  C   UNL     1      -1.332  10.447  17.933  0.00  0.00    +0.000 C 
ATOM     32  F   UNL     1      -0.755   9.525  17.120  0.00  0.00    +0.000 F 
ATOM     33  F   UNL     1      -2.039   9.709  18.839  0.00  0.00    +0.000 F 
ATOM     34  F   UNL     1      -2.281  11.071  17.175  0.00  0.00    +0.000 F 
ENDBRANCH   7  31
TORSDOF 7
ENDMDL
MODEL 9
REMARK VINA RESULT:      -7.7      4.488      7.640
REMARK  Name = 
REMARK  8 active torsions:
REMARK  status: ('A' for Active; 'I' for Inactive)
REMARK    1  A    between atoms: C_1  and  C_2
REMARK    2  A    between atoms: C_2  and  C_3
REMARK    3  A    between atoms: C_3  and  C_4
REMARK    4  A    between atoms: C_4  and  C_5
REMARK    5  A    between atoms: C_5  and  C_6
REMARK    6  A    between atoms: C_10  and  C_11
REMARK    7  A    between atoms: N_14  and  C_15
REMARK    8  A    between atoms: C_23  and  C_24
REMARK                            x       y       z     vdW  Elec       q    Type
REMARK                         _______ _______ _______ _____ _____    ______ ____
ROOT
ATOM      1  C   UNL     1       0.613  11.296  19.302  0.00  0.00    +0.000 A 
ATOM      2  N   UNL     1       1.509  12.304  19.462  0.00  0.00    +0.000 NA
ATOM      3  C   UNL     1       1.221  13.506  18.958  0.00  0.00    +0.000 A 
ATOM      4  N   UNL     1       2.102  14.559  19.031  0.00  0.00    +0.000 N 
ATOM      5  N   UNL     1       0.082  13.771  18.322  0.00  0.00    +0.000 NA
ATOM      6  C   UNL     1      -0.764  12.743  18.129  0.00  0.00    +0.000 A 
ATOM      7  C   UNL     1      -0.574  11.468  18.620  0.00  0.00    +0.000 A 
ATOM      8  H   UNL     1       1.657  15.314  19.539  0.00  0.00    +0.000 HD
ENDROOT
BRANCH   1  13
ATOM      9  C   UNL     1       2.497   6.259  18.670  0.00  0.00    +0.000 A 
ATOM     10  C   UNL     1       2.270   7.192  17.652  0.00  0.00    +0.000 A 
ATOM     11  C   UNL     1       1.821   8.487  17.938  0.00  0.00    +0.000 A 
ATOM     12  C   UNL     1       1.552   8.854  19.272  0.00  0.00    +0.000 A 
ATOM     13  C   UNL     1       1.048  10.038  19.914  0.00  0.00    +0.000 A 
ATOM     14  C   UNL     1       0.925   9.738  21.252  0.00  0.00    +0.000 A 
ATOM     15  N   UNL     1       1.449   8.491  21.466  0.00  0.00    +0.000 N 
ATOM     16  C   UNL     1       1.788   7.907  20.270  0.00  0.00    +0.000 A 
ATOM     17  C   UNL     1       2.266   6.617  20.007  0.00  0.00    +0.000 A 
ATOM     18  H   UNL     1       1.530   8.036  22.366  0.00  0.00    +0.000 HD
BRANCH   9  19
ATOM     19  C   UNL     1       2.960   4.861  18.336  0.00  0.00    +0.000 C 
BRANCH  19  20
ATOM     20  C   UNL     1       4.098   4.854  17.318  0.00  0.00    +0.000 C 
BRANCH  20  21
ATOM     21  C   UNL     1       5.352   5.506  17.896  0.00  0.00    +0.000 C 
BRANCH  21  23
ATOM     22  C   UNL     1       5.290   6.506  15.592  0.00  0.00    +0.000 C 
ATOM     23  C   UNL     1       5.843   6.642  17.000  0.00  0.00    +0.000 C 
ENDBRANCH  21  23
ENDBRANCH  20  21
ENDBRANCH  19  20
ENDBRANCH   9  19
ENDBRANCH   1  13
BRANCH   4  24
ATOM     24  C   UNL     1       3.523  14.341  19.282  0.00  0.00    +0.000 C 
ATOM     25  C   UNL     1       4.337  14.797  18.055  0.00  0.00    +0.000 C 
ATOM     26  C   UNL     1       5.821  14.945  18.366  0.00  0.00    +0.000 C 
ATOM     27  C   UNL     1       6.053  15.835  19.579  0.00  0.00    +0.000 C 
ATOM     28  N   UNL     1       5.367  15.296  20.754  0.00  0.00    +0.000 NA
ATOM     29  C   UNL     1       3.923  15.204  20.512  0.00  0.00    +0.000 C 
ATOM     30  H   UNL     1       5.534  15.917  21.547  0.00  0.00    +0.000 HD
ENDBRANCH   4  24
BRANCH   7  31
ATOM     31  C   UNL     1      -1.637  10.472  18.332  0.00  0.00    +0.000 C 
ATOM     32  F   UNL     1      -2.868  10.948  18.012  0.00  0.00    +0.000 F 
ATOM     33  F   UNL     1      -1.299   9.666  17.282  0.00  0.00    +0.000 F 
ATOM     34  F   UNL     1      -1.826   9.619  19.380  0.00  0.00    +0.000 F 
ENDBRANCH   7  31
TORSDOF 7
ENDMDL
