MODEL 1
REMARK VINA RESULT:      -8.8      0.000      0.000
REMARK  Name = 
REMARK  8 active torsions:
REMARK  status: ('A' for Active; 'I' for Inactive)
REMARK    1  A    between atoms: C_2  and  C_3
REMARK    2  A    between atoms: C_3  and  S_4
REMARK    3  A    between atoms: S_4  and  C_5
REMARK    4  A    between atoms: N_15  and  C_16
REMARK    5  A    between atoms: C_16  and  C_17
REMARK    6  A    between atoms: C_17  and  C_18
REMARK    7  A    between atoms: C_18  and  N_19
REMARK    8  A    between atoms: N_25  and  C_26
REMARK                            x       y       z     vdW  Elec       q    Type
REMARK                         _______ _______ _______ _____ _____    ______ ____
ROOT
ATOM      1  C   UNL     1       6.870   6.157  16.752  0.00  0.00    +0.000 A 
ATOM      2  N   UNL     1       7.521   6.051  15.635  0.00  0.00    +0.000 NA
ATOM      3  C   UNL     1       6.991   5.251  14.623  0.00  0.00    +0.000 A 
ATOM      4  C   UNL     1       7.714   5.083  13.439  0.00  0.00    +0.000 A 
ATOM      5  C   UNL     1       7.269   4.202  12.448  0.00  0.00    +0.000 A 
ATOM      6  C   UNL     1       6.097   3.475  12.638  0.00  0.00    +0.000 A 
ATOM      7  C   UNL     1       5.365   3.638  13.815  0.00  0.00    +0.000 A 
ATOM      8  C   UNL     1       5.815   4.530  14.798  0.00  0.00    +0.000 A 
ATOM      9  C   UNL     1       5.082   4.721  16.064  0.00  0.00    +0.000 A 
ATOM     10  O   UNL     1       4.076   4.043  16.250  0.00  0.00    +0.000 OA
ATOM     11  N   UNL     1       5.598   5.650  16.982  0.00  0.00    +0.000 N 
ENDROOT
BRANCH   1  12
ATOM     12  S   UNL     1       7.764   6.916  18.046  0.00  0.00    +0.000 S 
BRANCH  12  13
ATOM     13  C   UNL     1       7.629   8.660  17.570  0.00  0.00    +0.000 C 
BRANCH  13  15
ATOM     14  O   UNL     1       9.117   9.119  19.400  0.00  0.00    +0.000 OA
ATOM     15  C   UNL     1       8.604   9.518  18.356  0.00  0.00    +0.000 C 
ATOM     16  N   UNL     1       8.798  10.776  17.812  0.00  0.00    +0.000 N 
ATOM     17  H   UNL     1       8.075  11.119  17.184  0.00  0.00    +0.000 HD
BRANCH  16  18
ATOM     18  C   UNL     1       9.679  11.733  18.352  0.00  0.00    +0.000 A 
ATOM     19  C   UNL     1      11.063  11.495  18.487  0.00  0.00    +0.000 A 
ATOM     20  C   UNL     1      11.913  12.480  19.007  0.00  0.00    +0.000 A 
ATOM     21  C   UNL     1      11.348  13.675  19.381  0.00  0.00    +0.000 A 
ATOM     22  C   UNL     1       9.997  13.902  19.259  0.00  0.00    +0.000 A 
ATOM     23  C   UNL     1       9.138  12.962  18.734  0.00  0.00    +0.000 A 
ATOM     24  O   UNL     1       9.634  15.132  19.713  0.00  0.00    +0.000 OA
ATOM     25  C   UNL     1      10.932  15.719  19.923  0.00  0.00    +0.000 C 
ATOM     26  O   UNL     1      12.002  14.750  19.901  0.00  0.00    +0.000 OA
ENDBRANCH  16  18
ENDBRANCH  13  15
ENDBRANCH  12  13
ENDBRANCH   1  12
BRANCH  11  27
ATOM     27  C   UNL     1       4.789   5.815  18.214  0.00  0.00    +0.000 C 
BRANCH  27  28
ATOM     28  C   UNL     1       4.839   4.692  19.252  0.00  0.00    +0.000 C 
BRANCH  28  29
ATOM     29  C   UNL     1       3.564   4.496  20.075  0.00  0.00    +0.000 C 
BRANCH  29  30
ATOM     30  N   UNL     1       3.201   3.102  20.329  0.00  0.00    +0.000 NA
ATOM     31  C   UNL     1       3.320   2.210  19.154  0.00  0.00    +0.000 C 
ATOM     32  C   UNL     1       2.112   2.150  18.195  0.00  0.00    +0.000 C 
ATOM     33  O   UNL     1       0.864   2.022  18.884  0.00  0.00    +0.000 OA
ATOM     34  C   UNL     1       0.720   3.080  19.834  0.00  0.00    +0.000 C 
ATOM     35  C   UNL     1       1.835   2.997  20.886  0.00  0.00    +0.000 C 
ENDBRANCH  29  30
ENDBRANCH  28  29
ENDBRANCH  27  28
ENDBRANCH  11  27
TORSDOF 8
ENDMDL
MODEL 2
REMARK VINA RESULT:      -8.5      0.899      1.224
REMARK  Name = 
REMARK  8 active torsions:
REMARK  status: ('A' for Active; 'I' for Inactive)
REMARK    1  A    between atoms: C_2  and  C_3
REMARK    2  A    between atoms: C_3  and  S_4
REMARK    3  A    between atoms: S_4  and  C_5
REMARK    4  A    between atoms: N_15  and  C_16
REMARK    5  A    between atoms: C_16  and  C_17
REMARK    6  A    between atoms: C_17  and  C_18
REMARK    7  A    between atoms: C_18  and  N_19
REMARK    8  A    between atoms: N_25  and  C_26
REMARK                            x       y       z     vdW  Elec       q    Type
REMARK                         _______ _______ _______ _____ _____    ______ ____
ROOT
ATOM      1  C   UNL     1       6.938   5.903  16.971  0.00  0.00    +0.000 A 
ATOM      2  N   UNL     1       7.425   6.052  15.778  0.00  0.00    +0.000 NA
ATOM      3  C   UNL     1       6.969   5.215  14.758  0.00  0.00    +0.000 A 
ATOM      4  C   UNL     1       7.532   5.328  13.484  0.00  0.00    +0.000 A 
ATOM      5  C   UNL     1       7.181   4.434  12.466  0.00  0.00    +0.000 A 
ATOM      6  C   UNL     1       6.268   3.414  12.720  0.00  0.00    +0.000 A 
ATOM      7  C   UNL     1       5.698   3.295  13.988  0.00  0.00    +0.000 A 
ATOM      8  C   UNL     1       6.050   4.201  14.998  0.00  0.00    +0.000 A 
ATOM      9  C   UNL     1       5.484   4.102  16.357  0.00  0.00    +0.000 A 
ATOM     10  O   UNL     1       4.717   3.173  16.591  0.00  0.00    +0.000 OA
ATOM     11  N   UNL     1       5.879   5.065  17.300  0.00  0.00    +0.000 N 
ENDROOT
BRANCH   1  12
ATOM     12  S   UNL     1       7.793   6.775  18.219  0.00  0.00    +0.000 S 
BRANCH  12  13
ATOM     13  C   UNL     1       7.586   8.480  17.641  0.00  0.00    +0.000 C 
BRANCH  13  15
ATOM     14  O   UNL     1       9.137   9.093  19.369  0.00  0.00    +0.000 OA
ATOM     15  C   UNL     1       8.563   9.414  18.331  0.00  0.00    +0.000 C 
ATOM     16  N   UNL     1       8.685  10.645  17.710  0.00  0.00    +0.000 N 
ATOM     17  H   UNL     1       7.922  10.927  17.099  0.00  0.00    +0.000 HD
BRANCH  16  18
ATOM     18  C   UNL     1       9.554  11.661  18.154  0.00  0.00    +0.000 A 
ATOM     19  C   UNL     1      10.953  11.588  17.982  0.00  0.00    +0.000 A 
ATOM     20  C   UNL     1      11.784  12.630  18.415  0.00  0.00    +0.000 A 
ATOM     21  C   UNL     1      11.188  13.713  19.015  0.00  0.00    +0.000 A 
ATOM     22  C   UNL     1       9.825  13.777  19.192  0.00  0.00    +0.000 A 
ATOM     23  C   UNL     1       8.979  12.780  18.760  0.00  0.00    +0.000 A 
ATOM     24  O   UNL     1       9.438  14.914  19.832  0.00  0.00    +0.000 OA
ATOM     25  C   UNL     1      10.682  15.641  19.833  0.00  0.00    +0.000 C 
ATOM     26  O   UNL     1      11.819  14.818  19.498  0.00  0.00    +0.000 OA
ENDBRANCH  16  18
ENDBRANCH  13  15
ENDBRANCH  12  13
ENDBRANCH   1  12
BRANCH  11  27
ATOM     27  C   UNL     1       5.244   4.924  18.632  0.00  0.00    +0.000 C 
BRANCH  27  28
ATOM     28  C   UNL     1       3.990   5.756  18.912  0.00  0.00    +0.000 C 
BRANCH  28  29
ATOM     29  C   UNL     1       2.724   5.312  18.176  0.00  0.00    +0.000 C 
BRANCH  29  30
ATOM     30  N   UNL     1       1.641   4.842  19.039  0.00  0.00    +0.000 NA
ATOM     31  C   UNL     1       2.013   4.678  20.462  0.00  0.00    +0.000 C 
ATOM     32  C   UNL     1       2.659   3.336  20.866  0.00  0.00    +0.000 C 
ATOM     33  O   UNL     1       1.973   2.204  20.322  0.00  0.00    +0.000 OA
ATOM     34  C   UNL     1       1.878   2.327  18.900  0.00  0.00    +0.000 C 
ATOM     35  C   UNL     1       1.065   3.576  18.534  0.00  0.00    +0.000 C 
ENDBRANCH  29  30
ENDBRANCH  28  29
ENDBRANCH  27  28
ENDBRANCH  11  27
TORSDOF 8
ENDMDL
MODEL 3
REMARK VINA RESULT:      -7.8      7.309     11.520
REMARK  Name = 
REMARK  8 active torsions:
REMARK  status: ('A' for Active; 'I' for Inactive)
REMARK    1  A    between atoms: C_2  and  C_3
REMARK    2  A    between atoms: C_3  and  S_4
REMARK    3  A    between atoms: S_4  and  C_5
REMARK    4  A    between atoms: N_15  and  C_16
REMARK    5  A    between atoms: C_16  and  C_17
REMARK    6  A    between atoms: C_17  and  C_18
REMARK    7  A    between atoms: C_18  and  N_19
REMARK    8  A    between atoms: N_25  and  C_26
REMARK                            x       y       z     vdW  Elec       q    Type
REMARK                         _______ _______ _______ _____ _____    ______ ____
ROOT
ATOM      1  C   UNL     1      -0.548  11.237  19.304  0.00  0.00    +0.000 A 
ATOM      2  N   UNL     1      -0.863  10.783  18.130  0.00  0.00    +0.000 NA
ATOM      3  C   UNL     1      -2.148  11.022  17.642  0.00  0.00    +0.000 A 
ATOM      4  C   UNL     1      -2.516  10.486  16.405  0.00  0.00    +0.000 A 
ATOM      5  C   UNL     1      -3.828  10.608  15.934  0.00  0.00    +0.000 A 
ATOM      6  C   UNL     1      -4.785  11.264  16.703  0.00  0.00    +0.000 A 
ATOM      7  C   UNL     1      -4.427  11.807  17.939  0.00  0.00    +0.000 A 
ATOM      8  C   UNL     1      -3.108  11.686  18.397  0.00  0.00    +0.000 A 
ATOM      9  C   UNL     1      -2.690  12.229  19.704  0.00  0.00    +0.000 A 
ATOM     10  O   UNL     1      -3.547  12.763  20.401  0.00  0.00    +0.000 OA
ATOM     11  N   UNL     1      -1.344  12.077  20.072  0.00  0.00    +0.000 N 
ENDROOT
BRANCH   1  12
ATOM     12  S   UNL     1       0.956  10.621  19.942  0.00  0.00    +0.000 S 
BRANCH  12  13
ATOM     13  C   UNL     1       1.533   9.626  18.541  0.00  0.00    +0.000 C 
BRANCH  13  15
ATOM     14  O   UNL     1       1.781   7.858  20.148  0.00  0.00    +0.000 OA
ATOM     15  C   UNL     1       1.950   8.237  18.991  0.00  0.00    +0.000 C 
ATOM     16  N   UNL     1       2.571   7.497  18.000  0.00  0.00    +0.000 N 
ATOM     17  H   UNL     1       2.974   8.018  17.224  0.00  0.00    +0.000 HD
BRANCH  16  18
ATOM     18  C   UNL     1       3.017   6.173  18.177  0.00  0.00    +0.000 A 
ATOM     19  C   UNL     1       4.304   5.868  18.668  0.00  0.00    +0.000 A 
ATOM     20  C   UNL     1       4.704   4.538  18.855  0.00  0.00    +0.000 A 
ATOM     21  C   UNL     1       3.802   3.551  18.537  0.00  0.00    +0.000 A 
ATOM     22  C   UNL     1       2.551   3.850  18.049  0.00  0.00    +0.000 A 
ATOM     23  C   UNL     1       2.120   5.146  17.873  0.00  0.00    +0.000 A 
ATOM     24  O   UNL     1       1.824   2.735  17.768  0.00  0.00    +0.000 OA
ATOM     25  C   UNL     1       2.676   1.725  18.341  0.00  0.00    +0.000 C 
ATOM     26  O   UNL     1       3.999   2.209  18.650  0.00  0.00    +0.000 OA
ENDBRANCH  16  18
ENDBRANCH  13  15
ENDBRANCH  12  13
ENDBRANCH   1  12
BRANCH  11  27
ATOM     27  C   UNL     1      -0.990  12.679  21.381  0.00  0.00    +0.000 C 
BRANCH  27  28
ATOM     28  C   UNL     1      -0.481  14.122  21.384  0.00  0.00    +0.000 C 
BRANCH  28  29
ATOM     29  C   UNL     1       0.869  14.349  20.699  0.00  0.00    +0.000 C 
BRANCH  29  30
ATOM     30  N   UNL     1       0.795  14.620  19.264  0.00  0.00    +0.000 NA
ATOM     31  C   UNL     1       1.838  13.952  18.454  0.00  0.00    +0.000 C 
ATOM     32  C   UNL     1       3.195  14.676  18.327  0.00  0.00    +0.000 C 
ATOM     33  O   UNL     1       3.055  16.071  18.038  0.00  0.00    +0.000 OA
ATOM     34  C   UNL     1       2.226  16.693  19.023  0.00  0.00    +0.000 C 
ATOM     35  C   UNL     1       0.821  16.075  18.993  0.00  0.00    +0.000 C 
ENDBRANCH  29  30
ENDBRANCH  28  29
ENDBRANCH  27  28
ENDBRANCH  11  27
TORSDOF 8
ENDMDL
MODEL 4
REMARK VINA RESULT:      -7.8      5.260      9.044
REMARK  Name = 
REMARK  8 active torsions:
REMARK  status: ('A' for Active; 'I' for Inactive)
REMARK    1  A    between atoms: C_2  and  C_3
REMARK    2  A    between atoms: C_3  and  S_4
REMARK    3  A    between atoms: S_4  and  C_5
REMARK    4  A    between atoms: N_15  and  C_16
REMARK    5  A    between atoms: C_16  and  C_17
REMARK    6  A    between atoms: C_17  and  C_18
REMARK    7  A    between atoms: C_18  and  N_19
REMARK    8  A    between atoms: N_25  and  C_26
REMARK                            x       y       z     vdW  Elec       q    Type
REMARK                         _______ _______ _______ _____ _____    ______ ____
ROOT
ATOM      1  C   UNL     1       3.368   6.216  18.011  0.00  0.00    +0.000 A 
ATOM      2  N   UNL     1       3.357   4.931  17.832  0.00  0.00    +0.000 NA
ATOM      3  C   UNL     1       2.596   4.140  18.693  0.00  0.00    +0.000 A 
ATOM      4  C   UNL     1       2.626   2.750  18.545  0.00  0.00    +0.000 A 
ATOM      5  C   UNL     1       1.967   1.919  19.457  0.00  0.00    +0.000 A 
ATOM      6  C   UNL     1       1.276   2.475  20.531  0.00  0.00    +0.000 A 
ATOM      7  C   UNL     1       1.237   3.862  20.686  0.00  0.00    +0.000 A 
ATOM      8  C   UNL     1       1.894   4.685  19.761  0.00  0.00    +0.000 A 
ATOM      9  C   UNL     1       1.893   6.154  19.897  0.00  0.00    +0.000 A 
ATOM     10  O   UNL     1       1.325   6.638  20.871  0.00  0.00    +0.000 OA
ATOM     11  N   UNL     1       2.561   6.900  18.912  0.00  0.00    +0.000 N 
ENDROOT
BRANCH   1  12
ATOM     12  S   UNL     1       4.582   7.069  17.091  0.00  0.00    +0.000 S 
BRANCH  12  13
ATOM     13  C   UNL     1       6.085   6.224  17.653  0.00  0.00    +0.000 C 
BRANCH  13  15
ATOM     14  O   UNL     1       7.704   4.718  16.716  0.00  0.00    +0.000 OA
ATOM     15  C   UNL     1       6.707   5.412  16.532  0.00  0.00    +0.000 C 
ATOM     16  N   UNL     1       6.078   5.583  15.310  0.00  0.00    +0.000 N 
ATOM     17  H   UNL     1       5.520   6.425  15.196  0.00  0.00    +0.000 HD
BRANCH  16  18
ATOM     18  C   UNL     1       6.461   4.909  14.134  0.00  0.00    +0.000 A 
ATOM     19  C   UNL     1       7.577   5.305  13.366  0.00  0.00    +0.000 A 
ATOM     20  C   UNL     1       7.943   4.596  12.214  0.00  0.00    +0.000 A 
ATOM     21  C   UNL     1       7.174   3.512  11.863  0.00  0.00    +0.000 A 
ATOM     22  C   UNL     1       6.081   3.134  12.607  0.00  0.00    +0.000 A 
ATOM     23  C   UNL     1       5.707   3.797  13.754  0.00  0.00    +0.000 A 
ATOM     24  O   UNL     1       5.438   2.059  12.075  0.00  0.00    +0.000 OA
ATOM     25  C   UNL     1       6.378   1.682  11.050  0.00  0.00    +0.000 C 
ATOM     26  O   UNL     1       7.367   2.699  10.788  0.00  0.00    +0.000 OA
ENDBRANCH  16  18
ENDBRANCH  13  15
ENDBRANCH  12  13
ENDBRANCH   1  12
BRANCH  11  27
ATOM     27  C   UNL     1       2.487   8.370  19.093  0.00  0.00    +0.000 C 
BRANCH  27  28
ATOM     28  C   UNL     1       1.516   9.147  18.201  0.00  0.00    +0.000 C 
BRANCH  28  29
ATOM     29  C   UNL     1       1.457  10.656  18.446  0.00  0.00    +0.000 C 
BRANCH  29  30
ATOM     30  N   UNL     1       0.513  11.077  19.481  0.00  0.00    +0.000 NA
ATOM     31  C   UNL     1      -0.762  10.326  19.496  0.00  0.00    +0.000 C 
ATOM     32  C   UNL     1      -1.876  10.820  18.548  0.00  0.00    +0.000 C 
ATOM     33  O   UNL     1      -2.050  12.240  18.589  0.00  0.00    +0.000 OA
ATOM     34  C   UNL     1      -0.808  12.893  18.314  0.00  0.00    +0.000 C 
ATOM     35  C   UNL     1       0.227  12.526  19.387  0.00  0.00    +0.000 C 
ENDBRANCH  29  30
ENDBRANCH  28  29
ENDBRANCH  27  28
ENDBRANCH  11  27
TORSDOF 8
ENDMDL
MODEL 5
REMARK VINA RESULT:      -7.7      6.827     11.345
REMARK  Name = 
REMARK  8 active torsions:
REMARK  status: ('A' for Active; 'I' for Inactive)
REMARK    1  A    between atoms: C_2  and  C_3
REMARK    2  A    between atoms: C_3  and  S_4
REMARK    3  A    between atoms: S_4  and  C_5
REMARK    4  A    between atoms: N_15  and  C_16
REMARK    5  A    between atoms: C_16  and  C_17
REMARK    6  A    between atoms: C_17  and  C_18
REMARK    7  A    between atoms: C_18  and  N_19
REMARK    8  A    between atoms: N_25  and  C_26
REMARK                            x       y       z     vdW  Elec       q    Type
REMARK                         _______ _______ _______ _____ _____    ______ ____
ROOT
ATOM      1  C   UNL     1      -0.161  10.228  18.957  0.00  0.00    +0.000 A 
ATOM      2  N   UNL     1      -0.650   9.833  17.821  0.00  0.00    +0.000 NA
ATOM      3  C   UNL     1      -1.861  10.373  17.388  0.00  0.00    +0.000 A 
ATOM      4  C   UNL     1      -2.424   9.909  16.195  0.00  0.00    +0.000 A 
ATOM      5  C   UNL     1      -3.689  10.344  15.785  0.00  0.00    +0.000 A 
ATOM      6  C   UNL     1      -4.404  11.243  16.572  0.00  0.00    +0.000 A 
ATOM      7  C   UNL     1      -3.850  11.715  17.763  0.00  0.00    +0.000 A 
ATOM      8  C   UNL     1      -2.577  11.280  18.160  0.00  0.00    +0.000 A 
ATOM      9  C   UNL     1      -1.961  11.739  19.418  0.00  0.00    +0.000 A 
ATOM     10  O   UNL     1      -2.614  12.494  20.133  0.00  0.00    +0.000 OA
ATOM     11  N   UNL     1      -0.675  11.265  19.726  0.00  0.00    +0.000 N 
ENDROOT
BRANCH   1  12
ATOM     12  S   UNL     1       1.176   9.273  19.545  0.00  0.00    +0.000 S 
BRANCH  12  13
ATOM     13  C   UNL     1       2.179   9.135  18.041  0.00  0.00    +0.000 C 
BRANCH  13  15
ATOM     14  O   UNL     1       3.790   7.532  17.266  0.00  0.00    +0.000 OA
ATOM     15  C   UNL     1       2.755   7.738  17.894  0.00  0.00    +0.000 C 
ATOM     16  N   UNL     1       1.976   6.755  18.480  0.00  0.00    +0.000 N 
ATOM     17  H   UNL     1       0.998   6.981  18.643  0.00  0.00    +0.000 HD
BRANCH  16  18
ATOM     18  C   UNL     1       2.324   5.390  18.495  0.00  0.00    +0.000 A 
ATOM     19  C   UNL     1       1.809   4.468  17.560  0.00  0.00    +0.000 A 
ATOM     20  C   UNL     1       2.198   3.122  17.591  0.00  0.00    +0.000 A 
ATOM     21  C   UNL     1       3.087   2.738  18.565  0.00  0.00    +0.000 A 
ATOM     22  C   UNL     1       3.580   3.636  19.483  0.00  0.00    +0.000 A 
ATOM     23  C   UNL     1       3.235   4.969  19.467  0.00  0.00    +0.000 A 
ATOM     24  O   UNL     1       4.420   3.052  20.380  0.00  0.00    +0.000 OA
ATOM     25  C   UNL     1       4.564   1.749  19.784  0.00  0.00    +0.000 C 
ATOM     26  O   UNL     1       3.584   1.485  18.758  0.00  0.00    +0.000 OA
ENDBRANCH  16  18
ENDBRANCH  13  15
ENDBRANCH  12  13
ENDBRANCH   1  12
BRANCH  11  27
ATOM     27  C   UNL     1      -0.105  11.798  20.987  0.00  0.00    +0.000 C 
BRANCH  27  28
ATOM     28  C   UNL     1       1.100  12.735  20.880  0.00  0.00    +0.000 C 
BRANCH  28  29
ATOM     29  C   UNL     1       0.779  14.181  20.494  0.00  0.00    +0.000 C 
BRANCH  29  30
ATOM     30  N   UNL     1       1.918  15.097  20.534  0.00  0.00    +0.000 NA
ATOM     31  C   UNL     1       1.668  16.421  19.920  0.00  0.00    +0.000 C 
ATOM     32  C   UNL     1       1.875  16.534  18.395  0.00  0.00    +0.000 C 
ATOM     33  O   UNL     1       3.090  15.921  17.953  0.00  0.00    +0.000 OA
ATOM     34  C   UNL     1       3.134  14.558  18.381  0.00  0.00    +0.000 C 
ATOM     35  C   UNL     1       3.116  14.489  19.915  0.00  0.00    +0.000 C 
ENDBRANCH  29  30
ENDBRANCH  28  29
ENDBRANCH  27  28
ENDBRANCH  11  27
TORSDOF 8
ENDMDL
MODEL 6
REMARK VINA RESULT:      -7.7      8.549     11.936
REMARK  Name = 
REMARK  8 active torsions:
REMARK  status: ('A' for Active; 'I' for Inactive)
REMARK    1  A    between atoms: C_2  and  C_3
REMARK    2  A    between atoms: C_3  and  S_4
REMARK    3  A    between atoms: S_4  and  C_5
REMARK    4  A    between atoms: N_15  and  C_16
REMARK    5  A    between atoms: C_16  and  C_17
REMARK    6  A    between atoms: C_17  and  C_18
REMARK    7  A    between atoms: C_18  and  N_19
REMARK    8  A    between atoms: N_25  and  C_26
REMARK                            x       y       z     vdW  Elec       q    Type
REMARK                         _______ _______ _______ _____ _____    ______ ____
ROOT
ATOM      1  C   UNL     1      -0.675  10.567  19.859  0.00  0.00    +0.000 A 
ATOM      2  N   UNL     1      -0.877  10.004  18.707  0.00  0.00    +0.000 NA
ATOM      3  C   UNL     1      -1.946  10.442  17.925  0.00  0.00    +0.000 A 
ATOM      4  C   UNL     1      -2.207   9.801  16.710  0.00  0.00    +0.000 A 
ATOM      5  C   UNL     1      -3.334  10.138  15.952  0.00  0.00    +0.000 A 
ATOM      6  C   UNL     1      -4.213  11.116  16.410  0.00  0.00    +0.000 A 
ATOM      7  C   UNL     1      -3.959  11.764  17.619  0.00  0.00    +0.000 A 
ATOM      8  C   UNL     1      -2.823  11.426  18.366  0.00  0.00    +0.000 A 
ATOM      9  C   UNL     1      -2.525  12.074  19.658  0.00  0.00    +0.000 A 
ATOM     10  O   UNL     1      -3.327  12.901  20.081  0.00  0.00    +0.000 OA
ATOM     11  N   UNL     1      -1.354  11.685  20.328  0.00  0.00    +0.000 N 
ENDROOT
BRANCH   1  12
ATOM     12  S   UNL     1       0.476   9.742  20.879  0.00  0.00    +0.000 S 
BRANCH  12  13
ATOM     13  C   UNL     1       1.848   9.507  19.717  0.00  0.00    +0.000 C 
BRANCH  13  15
ATOM     14  O   UNL     1       1.973   7.732  18.103  0.00  0.00    +0.000 OA
ATOM     15  C   UNL     1       1.959   8.055  19.289  0.00  0.00    +0.000 C 
ATOM     16  N   UNL     1       1.983   7.166  20.350  0.00  0.00    +0.000 N 
ATOM     17  H   UNL     1       1.608   7.499  21.235  0.00  0.00    +0.000 HD
BRANCH  16  18
ATOM     18  C   UNL     1       2.110   5.771  20.197  0.00  0.00    +0.000 A 
ATOM     19  C   UNL     1       1.037   4.884  20.430  0.00  0.00    +0.000 A 
ATOM     20  C   UNL     1       1.194   3.504  20.243  0.00  0.00    +0.000 A 
ATOM     21  C   UNL     1       2.426   3.053  19.835  0.00  0.00    +0.000 A 
ATOM     22  C   UNL     1       3.474   3.918  19.620  0.00  0.00    +0.000 A 
ATOM     23  C   UNL     1       3.347   5.280  19.774  0.00  0.00    +0.000 A 
ATOM     24  O   UNL     1       4.613   3.271  19.252  0.00  0.00    +0.000 OA
ATOM     25  C   UNL     1       4.097   1.941  19.051  0.00  0.00    +0.000 C 
ATOM     26  O   UNL     1       2.775   1.759  19.598  0.00  0.00    +0.000 OA
ENDBRANCH  16  18
ENDBRANCH  13  15
ENDBRANCH  12  13
ENDBRANCH   1  12
BRANCH  11  27
ATOM     27  C   UNL     1      -1.101  12.404  21.600  0.00  0.00    +0.000 C 
BRANCH  27  28
ATOM     28  C   UNL     1      -1.828  11.909  22.852  0.00  0.00    +0.000 C 
BRANCH  28  29
ATOM     29  C   UNL     1      -2.678  12.953  23.579  0.00  0.00    +0.000 C 
BRANCH  29  30
ATOM     30  N   UNL     1      -2.254  14.339  23.382  0.00  0.00    +0.000 NA
ATOM     31  C   UNL     1      -1.434  14.896  24.481  0.00  0.00    +0.000 C 
ATOM     32  C   UNL     1      -2.192  15.500  25.682  0.00  0.00    +0.000 C 
ATOM     33  O   UNL     1      -3.270  16.354  25.286  0.00  0.00    +0.000 OA
ATOM     34  C   UNL     1      -4.158  15.648  24.415  0.00  0.00    +0.000 C 
ATOM     35  C   UNL     1      -3.415  15.224  23.140  0.00  0.00    +0.000 C 
ENDBRANCH  29  30
ENDBRANCH  28  29
ENDBRANCH  27  28
ENDBRANCH  11  27
TORSDOF 8
ENDMDL
MODEL 7
REMARK VINA RESULT:      -7.7      7.050     11.487
REMARK  Name = 
REMARK  8 active torsions:
REMARK  status: ('A' for Active; 'I' for Inactive)
REMARK    1  A    between atoms: C_2  and  C_3
REMARK    2  A    between atoms: C_3  and  S_4
REMARK    3  A    between atoms: S_4  and  C_5
REMARK    4  A    between atoms: N_15  and  C_16
REMARK    5  A    between atoms: C_16  and  C_17
REMARK    6  A    between atoms: C_17  and  C_18
REMARK    7  A    between atoms: C_18  and  N_19
REMARK    8  A    between atoms: N_25  and  C_26
REMARK                            x       y       z     vdW  Elec       q    Type
REMARK                         _______ _______ _______ _____ _____    ______ ____
ROOT
ATOM      1  C   UNL     1      -0.531  10.635  19.390  0.00  0.00    +0.000 A 
ATOM      2  N   UNL     1      -1.131  10.278  18.296  0.00  0.00    +0.000 NA
ATOM      3  C   UNL     1      -2.372  10.842  17.996  0.00  0.00    +0.000 A 
ATOM      4  C   UNL     1      -3.052  10.419  16.851  0.00  0.00    +0.000 A 
ATOM      5  C   UNL     1      -4.345  10.878  16.576  0.00  0.00    +0.000 A 
ATOM      6  C   UNL     1      -4.970  11.760  17.453  0.00  0.00    +0.000 A 
ATOM      7  C   UNL     1      -4.298  12.192  18.598  0.00  0.00    +0.000 A 
ATOM      8  C   UNL     1      -2.999  11.732  18.858  0.00  0.00    +0.000 A 
ATOM      9  C   UNL     1      -2.259  12.149  20.064  0.00  0.00    +0.000 A 
ATOM     10  O   UNL     1      -2.831  12.889  20.859  0.00  0.00    +0.000 OA
ATOM     11  N   UNL     1      -0.956  11.653  20.233  0.00  0.00    +0.000 N 
ENDROOT
BRANCH   1  12
ATOM     12  S   UNL     1       0.844   9.649  19.820  0.00  0.00    +0.000 S 
BRANCH  12  13
ATOM     13  C   UNL     1       1.826   9.761  18.300  0.00  0.00    +0.000 C 
BRANCH  13  15
ATOM     14  O   UNL     1       3.165   8.279  16.965  0.00  0.00    +0.000 OA
ATOM     15  C   UNL     1       2.494   8.435  17.983  0.00  0.00    +0.000 C 
ATOM     16  N   UNL     1       2.223   7.443  18.910  0.00  0.00    +0.000 N 
ATOM     17  H   UNL     1       1.396   7.570  19.487  0.00  0.00    +0.000 HD
BRANCH  16  18
ATOM     18  C   UNL     1       2.757   6.142  18.839  0.00  0.00    +0.000 A 
ATOM     19  C   UNL     1       4.004   5.804  19.406  0.00  0.00    +0.000 A 
ATOM     20  C   UNL     1       4.491   4.492  19.337  0.00  0.00    +0.000 A 
ATOM     21  C   UNL     1       3.716   3.558  18.693  0.00  0.00    +0.000 A 
ATOM     22  C   UNL     1       2.506   3.891  18.131  0.00  0.00    +0.000 A 
ATOM     23  C   UNL     1       1.989   5.166  18.200  0.00  0.00    +0.000 A 
ATOM     24  O   UNL     1       1.911   2.833  17.516  0.00  0.00    +0.000 OA
ATOM     25  C   UNL     1       2.776   1.767  17.949  0.00  0.00    +0.000 C 
ATOM     26  O   UNL     1       4.012   2.240  18.524  0.00  0.00    +0.000 OA
ENDBRANCH  16  18
ENDBRANCH  13  15
ENDBRANCH  12  13
ENDBRANCH   1  12
BRANCH  11  27
ATOM     27  C   UNL     1      -0.261  12.143  21.448  0.00  0.00    +0.000 C 
BRANCH  27  28
ATOM     28  C   UNL     1       0.576  13.418  21.321  0.00  0.00    +0.000 C 
BRANCH  28  29
ATOM     29  C   UNL     1       1.840  13.296  20.467  0.00  0.00    +0.000 C 
BRANCH  29  30
ATOM     30  N   UNL     1       2.697  14.481  20.461  0.00  0.00    +0.000 NA
ATOM     31  C   UNL     1       1.969  15.770  20.444  0.00  0.00    +0.000 C 
ATOM     32  C   UNL     1       1.537  16.311  19.066  0.00  0.00    +0.000 C 
ATOM     33  O   UNL     1       2.578  16.232  18.087  0.00  0.00    +0.000 OA
ATOM     34  C   UNL     1       3.055  14.888  17.989  0.00  0.00    +0.000 C 
ATOM     35  C   UNL     1       3.653  14.444  19.332  0.00  0.00    +0.000 C 
ENDBRANCH  29  30
ENDBRANCH  28  29
ENDBRANCH  27  28
ENDBRANCH  11  27
TORSDOF 8
ENDMDL
MODEL 8
REMARK VINA RESULT:      -7.7      7.163     11.453
REMARK  Name = 
REMARK  8 active torsions:
REMARK  status: ('A' for Active; 'I' for Inactive)
REMARK    1  A    between atoms: C_2  and  C_3
REMARK    2  A    between atoms: C_3  and  S_4
REMARK    3  A    between atoms: S_4  and  C_5
REMARK    4  A    between atoms: N_15  and  C_16
REMARK    5  A    between atoms: C_16  and  C_17
REMARK    6  A    between atoms: C_17  and  C_18
REMARK    7  A    between atoms: C_18  and  N_19
REMARK    8  A    between atoms: N_25  and  C_26
REMARK                            x       y       z     vdW  Elec       q    Type
REMARK                         _______ _______ _______ _____ _____    ______ ____
ROOT
ATOM      1  C   UNL     1      -0.343  10.580  19.023  0.00  0.00    +0.000 A 
ATOM      2  N   UNL     1      -0.739  10.199  17.848  0.00  0.00    +0.000 NA
ATOM      3  C   UNL     1      -1.983  10.629  17.387  0.00  0.00    +0.000 A 
ATOM      4  C   UNL     1      -2.443  10.175  16.148  0.00  0.00    +0.000 A 
ATOM      5  C   UNL     1      -3.730  10.495  15.702  0.00  0.00    +0.000 A 
ATOM      6  C   UNL     1      -4.570  11.268  16.499  0.00  0.00    +0.000 A 
ATOM      7  C   UNL     1      -4.119  11.730  17.736  0.00  0.00    +0.000 A 
ATOM      8  C   UNL     1      -2.824  11.411  18.169  0.00  0.00    +0.000 A 
ATOM      9  C   UNL     1      -2.313  11.863  19.477  0.00  0.00    +0.000 A 
ATOM     10  O   UNL     1      -3.072  12.503  20.198  0.00  0.00    +0.000 OA
ATOM     11  N   UNL     1      -0.997  11.512  19.819  0.00  0.00    +0.000 N 
ENDROOT
BRANCH   1  12
ATOM     12  S   UNL     1       1.066   9.741  19.624  0.00  0.00    +0.000 S 
BRANCH  12  13
ATOM     13  C   UNL     1       1.874   9.282  18.067  0.00  0.00    +0.000 C 
BRANCH  13  15
ATOM     14  O   UNL     1       3.619   7.695  17.614  0.00  0.00    +0.000 OA
ATOM     15  C   UNL     1       2.555   7.931  18.183  0.00  0.00    +0.000 C 
ATOM     16  N   UNL     1       1.836   7.011  18.927  0.00  0.00    +0.000 N 
ATOM     17  H   UNL     1       0.840   7.187  19.035  0.00  0.00    +0.000 HD
BRANCH  16  18
ATOM     18  C   UNL     1       2.283   5.702  19.194  0.00  0.00    +0.000 A 
ATOM     19  C   UNL     1       2.408   5.198  20.506  0.00  0.00    +0.000 A 
ATOM     20  C   UNL     1       2.833   3.882  20.732  0.00  0.00    +0.000 A 
ATOM     21  C   UNL     1       3.128   3.111  19.633  0.00  0.00    +0.000 A 
ATOM     22  C   UNL     1       3.017   3.608  18.355  0.00  0.00    +0.000 A 
ATOM     23  C   UNL     1       2.583   4.889  18.099  0.00  0.00    +0.000 A 
ATOM     24  O   UNL     1       3.385   2.699  17.412  0.00  0.00    +0.000 OA
ATOM     25  C   UNL     1       3.523   1.523  18.232  0.00  0.00    +0.000 C 
ATOM     26  O   UNL     1       3.551   1.818  19.645  0.00  0.00    +0.000 OA
ENDBRANCH  16  18
ENDBRANCH  13  15
ENDBRANCH  12  13
ENDBRANCH   1  12
BRANCH  11  27
ATOM     27  C   UNL     1      -0.539  12.032  21.130  0.00  0.00    +0.000 C 
BRANCH  27  28
ATOM     28  C   UNL     1       0.561  13.096  21.127  0.00  0.00    +0.000 C 
BRANCH  28  29
ATOM     29  C   UNL     1       0.145  14.475  20.611  0.00  0.00    +0.000 C 
BRANCH  29  30
ATOM     30  N   UNL     1       0.197  14.632  19.158  0.00  0.00    +0.000 NA
ATOM     31  C   UNL     1       1.354  13.978  18.508  0.00  0.00    +0.000 C 
ATOM     32  C   UNL     1       2.670  14.781  18.450  0.00  0.00    +0.000 C 
ATOM     33  O   UNL     1       2.474  16.137  18.035  0.00  0.00    +0.000 OA
ATOM     34  C   UNL     1       1.516  16.774  18.883  0.00  0.00    +0.000 C 
ATOM     35  C   UNL     1       0.161  16.060  18.772  0.00  0.00    +0.000 C 
ENDBRANCH  29  30
ENDBRANCH  28  29
ENDBRANCH  27  28
ENDBRANCH  11  27
TORSDOF 8
ENDMDL
MODEL 9
REMARK VINA RESULT:      -7.7      5.563      9.278
REMARK  Name = 
REMARK  8 active torsions:
REMARK  status: ('A' for Active; 'I' for Inactive)
REMARK    1  A    between atoms: C_2  and  C_3
REMARK    2  A    between atoms: C_3  and  S_4
REMARK    3  A    between atoms: S_4  and  C_5
REMARK    4  A    between atoms: N_15  and  C_16
REMARK    5  A    between atoms: C_16  and  C_17
REMARK    6  A    between atoms: C_17  and  C_18
REMARK    7  A    between atoms: C_18  and  N_19
REMARK    8  A    between atoms: N_25  and  C_26
REMARK                            x       y       z     vdW  Elec       q    Type
REMARK                         _______ _______ _______ _____ _____    ______ ____
ROOT
ATOM      1  C   UNL     1       3.150   6.537  18.418  0.00  0.00    +0.000 A 
ATOM      2  N   UNL     1       2.209   6.109  19.203  0.00  0.00    +0.000 NA
ATOM      3  C   UNL     1       2.414   4.926  19.914  0.00  0.00    +0.000 A 
ATOM      4  C   UNL     1       1.383   4.426  20.715  0.00  0.00    +0.000 A 
ATOM      5  C   UNL     1       1.510   3.188  21.354  0.00  0.00    +0.000 A 
ATOM      6  C   UNL     1       2.671   2.437  21.189  0.00  0.00    +0.000 A 
ATOM      7  C   UNL     1       3.707   2.928  20.395  0.00  0.00    +0.000 A 
ATOM      8  C   UNL     1       3.573   4.174  19.766  0.00  0.00    +0.000 A 
ATOM      9  C   UNL     1       4.637   4.724  18.904  0.00  0.00    +0.000 A 
ATOM     10  O   UNL     1       5.637   4.037  18.722  0.00  0.00    +0.000 OA
ATOM     11  N   UNL     1       4.423   5.987  18.331  0.00  0.00    +0.000 N 
ENDROOT
BRANCH   1  12
ATOM     12  S   UNL     1       2.674   7.834  17.352  0.00  0.00    +0.000 S 
BRANCH  12  13
ATOM     13  C   UNL     1       2.510   9.199  18.534  0.00  0.00    +0.000 C 
BRANCH  13  15
ATOM     14  O   UNL     1       0.563   9.087  19.935  0.00  0.00    +0.000 OA
ATOM     15  C   UNL     1       1.054   9.458  18.871  0.00  0.00    +0.000 C 
ATOM     16  N   UNL     1       0.354  10.088  17.856  0.00  0.00    +0.000 N 
ATOM     17  H   UNL     1       0.746  10.020  16.920  0.00  0.00    +0.000 HD
BRANCH  16  18
ATOM     18  C   UNL     1      -1.002  10.456  17.954  0.00  0.00    +0.000 A 
ATOM     19  C   UNL     1      -2.006   9.859  17.161  0.00  0.00    +0.000 A 
ATOM     20  C   UNL     1      -3.349  10.234  17.304  0.00  0.00    +0.000 A 
ATOM     21  C   UNL     1      -3.645  11.201  18.233  0.00  0.00    +0.000 A 
ATOM     22  C   UNL     1      -2.664  11.789  18.997  0.00  0.00    +0.000 A 
ATOM     23  C   UNL     1      -1.338  11.430  18.896  0.00  0.00    +0.000 A 
ATOM     24  O   UNL     1      -3.158  12.743  19.832  0.00  0.00    +0.000 OA
ATOM     25  C   UNL     1      -4.571  12.524  19.659  0.00  0.00    +0.000 C 
ATOM     26  O   UNL     1      -4.881  11.695  18.520  0.00  0.00    +0.000 OA
ENDBRANCH  16  18
ENDBRANCH  13  15
ENDBRANCH  12  13
ENDBRANCH   1  12
BRANCH  11  27
ATOM     27  C   UNL     1       5.549   6.491  17.507  0.00  0.00    +0.000 C 
BRANCH  27  28
ATOM     28  C   UNL     1       5.395   6.438  15.986  0.00  0.00    +0.000 C 
BRANCH  28  29
ATOM     29  C   UNL     1       5.061   5.063  15.403  0.00  0.00    +0.000 C 
BRANCH  29  30
ATOM     30  N   UNL     1       6.219   4.226  15.095  0.00  0.00    +0.000 NA
ATOM     31  C   UNL     1       7.416   4.970  14.642  0.00  0.00    +0.000 C 
ATOM     32  C   UNL     1       7.501   5.310  13.139  0.00  0.00    +0.000 C 
ATOM     33  O   UNL     1       7.169   4.199  12.299  0.00  0.00    +0.000 OA
ATOM     34  C   UNL     1       5.877   3.695  12.644  0.00  0.00    +0.000 C 
ATOM     35  C   UNL     1       5.879   3.190  14.094  0.00  0.00    +0.000 C 
ENDBRANCH  29  30
ENDBRANCH  28  29
ENDBRANCH  27  28
ENDBRANCH  11  27
TORSDOF 8
ENDMDL
