MODEL 1
REMARK VINA RESULT:      -5.8      0.000      0.000
REMARK  Name = 
REMARK  18 active torsions:
REMARK  status: ('A' for Active; 'I' for Inactive)
REMARK    1  A    between atoms: C_1  and  C_2
REMARK    2  A    between atoms: C_2  and  C_3
REMARK    3  A    between atoms: C_3  and  C_4
REMARK    4  A    between atoms: C_4  and  C_5
REMARK    5  A    between atoms: C_5  and  C_6
REMARK    6  A    between atoms: C_6  and  C_7
REMARK    7  A    between atoms: C_7  and  C_8
REMARK    8  A    between atoms: C_8  and  C_9
REMARK    9  A    between atoms: C_9  and  C_10
REMARK   10  A    between atoms: C_10  and  C_11
REMARK   11  A    between atoms: C_11  and  C_12
REMARK   12  A    between atoms: C_12  and  O_13
REMARK   13  A    between atoms: O_13  and  C_14
REMARK   14  A    between atoms: C_16  and  C_17
REMARK   15  A    between atoms: C_17  and  O_18
REMARK   16  A    between atoms: C_19  and  O_20
REMARK   17  A    between atoms: C_21  and  O_22
REMARK   18  A    between atoms: C_23  and  O_24
REMARK                            x       y       z     vdW  Elec       q    Type
REMARK                         _______ _______ _______ _____ _____    ______ ____
ROOT
ATOM      1  C   UNL     1       5.598   6.661  16.452  0.00  0.00    +0.000 C 
ATOM      2  O   UNL     1       6.495   6.671  17.573  0.00  0.00    +0.000 OA
ATOM      3  C   UNL     1       6.387   5.463  18.362  0.00  0.00    +0.000 C 
ATOM      4  C   UNL     1       6.789   4.245  17.510  0.00  0.00    +0.000 C 
ATOM      5  C   UNL     1       5.875   4.164  16.284  0.00  0.00    +0.000 C 
ATOM      6  C   UNL     1       5.924   5.486  15.505  0.00  0.00    +0.000 C 
ENDROOT
BRANCH   6   7
ATOM      7  O   UNL     1       5.034   5.426  14.383  0.00  0.00    +0.000 OA
ATOM      8  H   UNL     1       4.134   5.455  14.764  0.00  0.00    +0.000 HD
ENDBRANCH   6   7
BRANCH   5   9
ATOM      9  O   UNL     1       6.310   3.103  15.413  0.00  0.00    +0.000 OA
ATOM     10  H   UNL     1       7.237   2.924  15.680  0.00  0.00    +0.000 HD
ENDBRANCH   5   9
BRANCH   4  11
ATOM     11  O   UNL     1       8.135   4.338  17.006  0.00  0.00    +0.000 OA
ATOM     12  H   UNL     1       8.708   4.621  17.752  0.00  0.00    +0.000 HD
ENDBRANCH   4  11
BRANCH   3  13
ATOM     13  C   UNL     1       7.274   5.660  19.591  0.00  0.00    +0.000 C 
BRANCH  13  14
ATOM     14  O   UNL     1       8.379   6.503  19.262  0.00  0.00    +0.000 OA
ATOM     15  H   UNL     1       9.094   5.891  18.992  0.00  0.00    +0.000 HD
ENDBRANCH  13  14
ENDBRANCH   3  13
BRANCH   1  16
ATOM     16  O   UNL     1       4.246   6.572  16.904  0.00  0.00    +0.000 OA
BRANCH  16  17
ATOM     17  C   UNL     1       3.709   7.842  17.260  0.00  0.00    +0.000 C 
BRANCH  17  18
ATOM     18  C   UNL     1       2.659   7.639  18.345  0.00  0.00    +0.000 C 
BRANCH  18  19
ATOM     19  C   UNL     1       2.352   6.156  18.561  0.00  0.00    +0.000 C 
BRANCH  19  20
ATOM     20  C   UNL     1       2.868   5.682  19.916  0.00  0.00    +0.000 C 
BRANCH  20  21
ATOM     21  C   UNL     1       1.716   5.196  20.792  0.00  0.00    +0.000 C 
BRANCH  21  22
ATOM     22  C   UNL     1       2.134   3.963  21.584  0.00  0.00    +0.000 C 
BRANCH  22  23
ATOM     23  C   UNL     1       1.462   2.705  21.040  0.00  0.00    +0.000 C 
BRANCH  23  24
ATOM     24  C   UNL     1       0.605   3.042  19.830  0.00  0.00    +0.000 C 
BRANCH  24  25
ATOM     25  C   UNL     1       0.948   2.145  18.645  0.00  0.00    +0.000 C 
BRANCH  25  26
ATOM     26  C   UNL     1       2.221   2.631  17.960  0.00  0.00    +0.000 C 
BRANCH  26  28
ATOM     27  C   UNL     1       4.349   2.301  19.245  0.00  0.00    +0.000 C 
ATOM     28  C   UNL     1       3.398   1.698  18.234  0.00  0.00    +0.000 C 
ENDBRANCH  26  28
ENDBRANCH  25  26
ENDBRANCH  24  25
ENDBRANCH  23  24
ENDBRANCH  22  23
ENDBRANCH  21  22
ENDBRANCH  20  21
ENDBRANCH  19  20
ENDBRANCH  18  19
ENDBRANCH  17  18
ENDBRANCH  16  17
ENDBRANCH   1  16
TORSDOF 17
ENDMDL
MODEL 2
REMARK VINA RESULT:      -5.5      5.300      8.701
REMARK  Name = 
REMARK  18 active torsions:
REMARK  status: ('A' for Active; 'I' for Inactive)
REMARK    1  A    between atoms: C_1  and  C_2
REMARK    2  A    between atoms: C_2  and  C_3
REMARK    3  A    between atoms: C_3  and  C_4
REMARK    4  A    between atoms: C_4  and  C_5
REMARK    5  A    between atoms: C_5  and  C_6
REMARK    6  A    between atoms: C_6  and  C_7
REMARK    7  A    between atoms: C_7  and  C_8
REMARK    8  A    between atoms: C_8  and  C_9
REMARK    9  A    between atoms: C_9  and  C_10
REMARK   10  A    between atoms: C_10  and  C_11
REMARK   11  A    between atoms: C_11  and  C_12
REMARK   12  A    between atoms: C_12  and  O_13
REMARK   13  A    between atoms: O_13  and  C_14
REMARK   14  A    between atoms: C_16  and  C_17
REMARK   15  A    between atoms: C_17  and  O_18
REMARK   16  A    between atoms: C_19  and  O_20
REMARK   17  A    between atoms: C_21  and  O_22
REMARK   18  A    between atoms: C_23  and  O_24
REMARK                            x       y       z     vdW  Elec       q    Type
REMARK                         _______ _______ _______ _____ _____    ______ ____
ROOT
ATOM      1  C   UNL     1       6.444   5.839  18.339  0.00  0.00    +0.000 C 
ATOM      2  O   UNL     1       5.144   5.817  18.950  0.00  0.00    +0.000 OA
ATOM      3  C   UNL     1       4.087   5.736  17.966  0.00  0.00    +0.000 C 
ATOM      4  C   UNL     1       4.205   4.419  17.179  0.00  0.00    +0.000 C 
ATOM      5  C   UNL     1       5.574   4.362  16.495  0.00  0.00    +0.000 C 
ATOM      6  C   UNL     1       6.688   4.544  17.534  0.00  0.00    +0.000 C 
ENDROOT
BRANCH   6   7
ATOM      7  O   UNL     1       7.968   4.536  16.887  0.00  0.00    +0.000 OA
ATOM      8  H   UNL     1       7.805   4.887  15.989  0.00  0.00    +0.000 HD
ENDBRANCH   6   7
BRANCH   5   9
ATOM      9  O   UNL     1       5.752   3.087  15.850  0.00  0.00    +0.000 OA
ATOM     10  H   UNL     1       6.160   3.299  14.984  0.00  0.00    +0.000 HD
ENDBRANCH   5   9
BRANCH   4  11
ATOM     11  O   UNL     1       4.127   3.256  18.024  0.00  0.00    +0.000 OA
ATOM     12  H   UNL     1       3.179   3.007  18.093  0.00  0.00    +0.000 HD
ENDBRANCH   4  11
BRANCH   3  13
ATOM     13  C   UNL     1       2.768   5.869  18.728  0.00  0.00    +0.000 C 
BRANCH  13  14
ATOM     14  O   UNL     1       3.029   6.128  20.108  0.00  0.00    +0.000 OA
ATOM     15  H   UNL     1       3.352   7.052  20.136  0.00  0.00    +0.000 HD
ENDBRANCH  13  14
ENDBRANCH   3  13
BRANCH   1  16
ATOM     16  O   UNL     1       6.570   6.981  17.489  0.00  0.00    +0.000 OA
BRANCH  16  17
ATOM     17  C   UNL     1       7.889   7.517  17.494  0.00  0.00    +0.000 C 
BRANCH  17  18
ATOM     18  C   UNL     1       7.815   8.987  17.885  0.00  0.00    +0.000 C 
BRANCH  18  19
ATOM     19  C   UNL     1       8.898   9.357  18.900  0.00  0.00    +0.000 C 
BRANCH  19  20
ATOM     20  C   UNL     1       9.335  10.807  18.729  0.00  0.00    +0.000 C 
BRANCH  20  21
ATOM     21  C   UNL     1       9.469  11.494  20.086  0.00  0.00    +0.000 C 
BRANCH  21  22
ATOM     22  C   UNL     1      10.923  11.855  20.359  0.00  0.00    +0.000 C 
BRANCH  22  23
ATOM     23  C   UNL     1      11.794  11.599  19.131  0.00  0.00    +0.000 C 
BRANCH  23  24
ATOM     24  C   UNL     1      12.315  12.912  18.567  0.00  0.00    +0.000 C 
BRANCH  24  25
ATOM     25  C   UNL     1      11.832  13.126  17.136  0.00  0.00    +0.000 C 
BRANCH  25  26
ATOM     26  C   UNL     1      11.259  14.532  16.973  0.00  0.00    +0.000 C 
BRANCH  26  28
ATOM     27  C   UNL     1       8.999  14.500  18.060  0.00  0.00    +0.000 C 
ATOM     28  C   UNL     1      10.439  14.948  18.191  0.00  0.00    +0.000 C 
ENDBRANCH  26  28
ENDBRANCH  25  26
ENDBRANCH  24  25
ENDBRANCH  23  24
ENDBRANCH  22  23
ENDBRANCH  21  22
ENDBRANCH  20  21
ENDBRANCH  19  20
ENDBRANCH  18  19
ENDBRANCH  17  18
ENDBRANCH  16  17
ENDBRANCH   1  16
TORSDOF 17
ENDMDL
MODEL 3
REMARK VINA RESULT:      -5.5      1.400      3.704
REMARK  Name = 
REMARK  18 active torsions:
REMARK  status: ('A' for Active; 'I' for Inactive)
REMARK    1  A    between atoms: C_1  and  C_2
REMARK    2  A    between atoms: C_2  and  C_3
REMARK    3  A    between atoms: C_3  and  C_4
REMARK    4  A    between atoms: C_4  and  C_5
REMARK    5  A    between atoms: C_5  and  C_6
REMARK    6  A    between atoms: C_6  and  C_7
REMARK    7  A    between atoms: C_7  and  C_8
REMARK    8  A    between atoms: C_8  and  C_9
REMARK    9  A    between atoms: C_9  and  C_10
REMARK   10  A    between atoms: C_10  and  C_11
REMARK   11  A    between atoms: C_11  and  C_12
REMARK   12  A    between atoms: C_12  and  O_13
REMARK   13  A    between atoms: O_13  and  C_14
REMARK   14  A    between atoms: C_16  and  C_17
REMARK   15  A    between atoms: C_17  and  O_18
REMARK   16  A    between atoms: C_19  and  O_20
REMARK   17  A    between atoms: C_21  and  O_22
REMARK   18  A    between atoms: C_23  and  O_24
REMARK                            x       y       z     vdW  Elec       q    Type
REMARK                         _______ _______ _______ _____ _____    ______ ____
ROOT
ATOM      1  C   UNL     1       4.689   4.985  16.834  0.00  0.00    +0.000 C 
ATOM      2  O   UNL     1       5.286   5.550  18.012  0.00  0.00    +0.000 OA
ATOM      3  C   UNL     1       6.594   4.994  18.275  0.00  0.00    +0.000 C 
ATOM      4  C   UNL     1       7.548   5.331  17.115  0.00  0.00    +0.000 C 
ATOM      5  C   UNL     1       6.980   4.761  15.813  0.00  0.00    +0.000 C 
ATOM      6  C   UNL     1       5.553   5.283  15.590  0.00  0.00    +0.000 C 
ENDROOT
BRANCH   6   7
ATOM      7  O   UNL     1       5.005   4.715  14.394  0.00  0.00    +0.000 OA
ATOM      8  H   UNL     1       4.045   4.897  14.437  0.00  0.00    +0.000 HD
ENDBRANCH   6   7
BRANCH   5   9
ATOM      9  O   UNL     1       7.795   5.167  14.698  0.00  0.00    +0.000 OA
ATOM     10  H   UNL     1       7.242   5.809  14.203  0.00  0.00    +0.000 HD
ENDBRANCH   5   9
BRANCH   4  11
ATOM     11  O   UNL     1       7.693   6.748  16.908  0.00  0.00    +0.000 OA
ATOM     12  H   UNL     1       6.851   7.172  17.182  0.00  0.00    +0.000 HD
ENDBRANCH   4  11
BRANCH   3  13
ATOM     13  C   UNL     1       7.051   5.562  19.618  0.00  0.00    +0.000 C 
BRANCH  13  14
ATOM     14  O   UNL     1       8.385   6.060  19.506  0.00  0.00    +0.000 OA
ATOM     15  H   UNL     1       8.926   5.463  20.062  0.00  0.00    +0.000 HD
ENDBRANCH  13  14
ENDBRANCH   3  13
BRANCH   1  16
ATOM     16  O   UNL     1       4.523   3.575  16.994  0.00  0.00    +0.000 OA
BRANCH  16  17
ATOM     17  C   UNL     1       3.166   3.169  16.846  0.00  0.00    +0.000 C 
BRANCH  17  18
ATOM     18  C   UNL     1       2.777   2.324  18.052  0.00  0.00    +0.000 C 
BRANCH  18  19
ATOM     19  C   UNL     1       3.535   2.754  19.310  0.00  0.00    +0.000 C 
BRANCH  19  20
ATOM     20  C   UNL     1       2.819   2.278  20.569  0.00  0.00    +0.000 C 
BRANCH  20  21
ATOM     21  C   UNL     1       2.357   3.466  21.409  0.00  0.00    +0.000 C 
BRANCH  21  22
ATOM     22  C   UNL     1       1.259   4.235  20.685  0.00  0.00    +0.000 C 
BRANCH  22  23
ATOM     23  C   UNL     1       1.570   5.729  20.641  0.00  0.00    +0.000 C 
BRANCH  23  24
ATOM     24  C   UNL     1       2.166   6.107  19.294  0.00  0.00    +0.000 C 
BRANCH  24  25
ATOM     25  C   UNL     1       2.505   7.593  19.240  0.00  0.00    +0.000 C 
BRANCH  25  26
ATOM     26  C   UNL     1       2.291   8.137  17.830  0.00  0.00    +0.000 C 
BRANCH  26  28
ATOM     27  C   UNL     1       1.072   9.880  19.159  0.00  0.00    +0.000 C 
ATOM     28  C   UNL     1       1.215   9.221  17.805  0.00  0.00    +0.000 C 
ENDBRANCH  26  28
ENDBRANCH  25  26
ENDBRANCH  24  25
ENDBRANCH  23  24
ENDBRANCH  22  23
ENDBRANCH  21  22
ENDBRANCH  20  21
ENDBRANCH  19  20
ENDBRANCH  18  19
ENDBRANCH  17  18
ENDBRANCH  16  17
ENDBRANCH   1  16
TORSDOF 17
ENDMDL
MODEL 4
REMARK VINA RESULT:      -5.4      2.044      4.940
REMARK  Name = 
REMARK  18 active torsions:
REMARK  status: ('A' for Active; 'I' for Inactive)
REMARK    1  A    between atoms: C_1  and  C_2
REMARK    2  A    between atoms: C_2  and  C_3
REMARK    3  A    between atoms: C_3  and  C_4
REMARK    4  A    between atoms: C_4  and  C_5
REMARK    5  A    between atoms: C_5  and  C_6
REMARK    6  A    between atoms: C_6  and  C_7
REMARK    7  A    between atoms: C_7  and  C_8
REMARK    8  A    between atoms: C_8  and  C_9
REMARK    9  A    between atoms: C_9  and  C_10
REMARK   10  A    between atoms: C_10  and  C_11
REMARK   11  A    between atoms: C_11  and  C_12
REMARK   12  A    between atoms: C_12  and  O_13
REMARK   13  A    between atoms: O_13  and  C_14
REMARK   14  A    between atoms: C_16  and  C_17
REMARK   15  A    between atoms: C_17  and  O_18
REMARK   16  A    between atoms: C_19  and  O_20
REMARK   17  A    between atoms: C_21  and  O_22
REMARK   18  A    between atoms: C_23  and  O_24
REMARK                            x       y       z     vdW  Elec       q    Type
REMARK                         _______ _______ _______ _____ _____    ______ ____
ROOT
ATOM      1  C   UNL     1       4.227   2.866  17.822  0.00  0.00    +0.000 C 
ATOM      2  O   UNL     1       4.781   3.205  16.541  0.00  0.00    +0.000 OA
ATOM      3  C   UNL     1       4.975   4.631  16.397  0.00  0.00    +0.000 C 
ATOM      4  C   UNL     1       5.991   5.128  17.441  0.00  0.00    +0.000 C 
ATOM      5  C   UNL     1       5.472   4.801  18.844  0.00  0.00    +0.000 C 
ATOM      6  C   UNL     1       5.179   3.298  18.958  0.00  0.00    +0.000 C 
ENDROOT
BRANCH   6   7
ATOM      7  O   UNL     1       4.651   3.000  20.257  0.00  0.00    +0.000 OA
ATOM      8  H   UNL     1       5.430   2.801  20.813  0.00  0.00    +0.000 HD
ENDBRANCH   6   7
BRANCH   5   9
ATOM      9  O   UNL     1       6.462   5.150  19.830  0.00  0.00    +0.000 OA
ATOM     10  H   UNL     1       6.190   6.035  20.154  0.00  0.00    +0.000 HD
ENDBRANCH   5   9
BRANCH   4  11
ATOM     11  O   UNL     1       7.272   4.482  17.322  0.00  0.00    +0.000 OA
ATOM     12  H   UNL     1       7.875   5.110  16.868  0.00  0.00    +0.000 HD
ENDBRANCH   4  11
BRANCH   3  13
ATOM     13  C   UNL     1       5.424   4.869  14.955  0.00  0.00    +0.000 C 
BRANCH  13  14
ATOM     14  O   UNL     1       6.623   5.645  14.942  0.00  0.00    +0.000 OA
ATOM     15  H   UNL     1       6.576   6.197  15.750  0.00  0.00    +0.000 HD
ENDBRANCH  13  14
ENDBRANCH   3  13
BRANCH   1  16
ATOM     16  O   UNL     1       2.949   3.484  17.986  0.00  0.00    +0.000 OA
BRANCH  16  17
ATOM     17  C   UNL     1       1.906   2.532  18.175  0.00  0.00    +0.000 C 
BRANCH  17  18
ATOM     18  C   UNL     1       0.901   3.104  19.165  0.00  0.00    +0.000 C 
BRANCH  18  19
ATOM     19  C   UNL     1       1.359   2.909  20.611  0.00  0.00    +0.000 C 
BRANCH  19  20
ATOM     20  C   UNL     1       1.929   4.202  21.184  0.00  0.00    +0.000 C 
BRANCH  20  21
ATOM     21  C   UNL     1       1.294   5.416  20.510  0.00  0.00    +0.000 C 
BRANCH  21  22
ATOM     22  C   UNL     1       2.370   6.377  20.023  0.00  0.00    +0.000 C 
BRANCH  22  23
ATOM     23  C   UNL     1       2.238   6.638  18.524  0.00  0.00    +0.000 C 
BRANCH  23  24
ATOM     24  C   UNL     1       2.723   8.038  18.184  0.00  0.00    +0.000 C 
BRANCH  24  25
ATOM     25  C   UNL     1       1.570   8.925  17.726  0.00  0.00    +0.000 C 
BRANCH  25  26
ATOM     26  C   UNL     1       1.319  10.038  18.739  0.00  0.00    +0.000 C 
BRANCH  26  28
ATOM     27  C   UNL     1       0.889  10.066  21.210  0.00  0.00    +0.000 C 
ATOM     28  C   UNL     1       0.398   9.574  19.866  0.00  0.00    +0.000 C 
ENDBRANCH  26  28
ENDBRANCH  25  26
ENDBRANCH  24  25
ENDBRANCH  23  24
ENDBRANCH  22  23
ENDBRANCH  21  22
ENDBRANCH  20  21
ENDBRANCH  19  20
ENDBRANCH  18  19
ENDBRANCH  17  18
ENDBRANCH  16  17
ENDBRANCH   1  16
TORSDOF 17
ENDMDL
MODEL 5
REMARK VINA RESULT:      -5.4      3.661      6.441
REMARK  Name = 
REMARK  18 active torsions:
REMARK  status: ('A' for Active; 'I' for Inactive)
REMARK    1  A    between atoms: C_1  and  C_2
REMARK    2  A    between atoms: C_2  and  C_3
REMARK    3  A    between atoms: C_3  and  C_4
REMARK    4  A    between atoms: C_4  and  C_5
REMARK    5  A    between atoms: C_5  and  C_6
REMARK    6  A    between atoms: C_6  and  C_7
REMARK    7  A    between atoms: C_7  and  C_8
REMARK    8  A    between atoms: C_8  and  C_9
REMARK    9  A    between atoms: C_9  and  C_10
REMARK   10  A    between atoms: C_10  and  C_11
REMARK   11  A    between atoms: C_11  and  C_12
REMARK   12  A    between atoms: C_12  and  O_13
REMARK   13  A    between atoms: O_13  and  C_14
REMARK   14  A    between atoms: C_16  and  C_17
REMARK   15  A    between atoms: C_17  and  O_18
REMARK   16  A    between atoms: C_19  and  O_20
REMARK   17  A    between atoms: C_21  and  O_22
REMARK   18  A    between atoms: C_23  and  O_24
REMARK                            x       y       z     vdW  Elec       q    Type
REMARK                         _______ _______ _______ _____ _____    ______ ____
ROOT
ATOM      1  C   UNL     1       4.227   5.239  19.383  0.00  0.00    +0.000 C 
ATOM      2  O   UNL     1       3.001   5.162  20.129  0.00  0.00    +0.000 OA
ATOM      3  C   UNL     1       2.202   4.022  19.738  0.00  0.00    +0.000 C 
ATOM      4  C   UNL     1       2.965   2.720  20.044  0.00  0.00    +0.000 C 
ATOM      5  C   UNL     1       4.294   2.724  19.283  0.00  0.00    +0.000 C 
ATOM      6  C   UNL     1       5.094   3.987  19.632  0.00  0.00    +0.000 C 
ENDROOT
BRANCH   6   7
ATOM      7  O   UNL     1       6.318   4.012  18.886  0.00  0.00    +0.000 OA
ATOM      8  H   UNL     1       6.282   4.834  18.358  0.00  0.00    +0.000 HD
ENDBRANCH   6   7
BRANCH   5   9
ATOM      9  O   UNL     1       5.076   1.571  19.648  0.00  0.00    +0.000 OA
ATOM     10  H   UNL     1       4.595   1.172  20.404  0.00  0.00    +0.000 HD
ENDBRANCH   5   9
BRANCH   4  11
ATOM     11  O   UNL     1       3.297   2.583  21.438  0.00  0.00    +0.000 OA
ATOM     12  H   UNL     1       3.990   3.248  21.640  0.00  0.00    +0.000 HD
ENDBRANCH   4  11
BRANCH   3  13
ATOM     13  C   UNL     1       0.876   4.136  20.490  0.00  0.00    +0.000 C 
BRANCH  13  14
ATOM     14  O   UNL     1       0.427   2.839  20.882  0.00  0.00    +0.000 OA
ATOM     15  H   UNL     1      -0.189   2.998  21.626  0.00  0.00    +0.000 HD
ENDBRANCH  13  14
ENDBRANCH   3  13
BRANCH   1  16
ATOM     16  O   UNL     1       3.947   5.378  17.989  0.00  0.00    +0.000 OA
BRANCH  16  17
ATOM     17  C   UNL     1       3.690   6.729  17.620  0.00  0.00    +0.000 C 
BRANCH  17  18
ATOM     18  C   UNL     1       4.861   7.237  16.789  0.00  0.00    +0.000 C 
BRANCH  18  19
ATOM     19  C   UNL     1       5.231   6.255  15.676  0.00  0.00    +0.000 C 
BRANCH  19  20
ATOM     20  C   UNL     1       6.551   5.555  15.981  0.00  0.00    +0.000 C 
BRANCH  20  21
ATOM     21  C   UNL     1       6.541   4.127  15.442  0.00  0.00    +0.000 C 
BRANCH  21  22
ATOM     22  C   UNL     1       5.795   4.063  14.116  0.00  0.00    +0.000 C 
BRANCH  22  23
ATOM     23  C   UNL     1       6.738   3.709  12.969  0.00  0.00    +0.000 C 
BRANCH  23  24
ATOM     24  C   UNL     1       6.139   2.607  12.110  0.00  0.00    +0.000 C 
BRANCH  24  25
ATOM     25  C   UNL     1       5.371   3.187  10.927  0.00  0.00    +0.000 C 
BRANCH  25  26
ATOM     26  C   UNL     1       3.874   3.211  11.224  0.00  0.00    +0.000 C 
BRANCH  26  28
ATOM     27  C   UNL     1       2.805   3.899   9.062  0.00  0.00    +0.000 C 
ATOM     28  C   UNL     1       3.169   4.333  10.466  0.00  0.00    +0.000 C 
ENDBRANCH  26  28
ENDBRANCH  25  26
ENDBRANCH  24  25
ENDBRANCH  23  24
ENDBRANCH  22  23
ENDBRANCH  21  22
ENDBRANCH  20  21
ENDBRANCH  19  20
ENDBRANCH  18  19
ENDBRANCH  17  18
ENDBRANCH  16  17
ENDBRANCH   1  16
TORSDOF 17
ENDMDL
MODEL 6
REMARK VINA RESULT:      -5.4      3.671      6.574
REMARK  Name = 
REMARK  18 active torsions:
REMARK  status: ('A' for Active; 'I' for Inactive)
REMARK    1  A    between atoms: C_1  and  C_2
REMARK    2  A    between atoms: C_2  and  C_3
REMARK    3  A    between atoms: C_3  and  C_4
REMARK    4  A    between atoms: C_4  and  C_5
REMARK    5  A    between atoms: C_5  and  C_6
REMARK    6  A    between atoms: C_6  and  C_7
REMARK    7  A    between atoms: C_7  and  C_8
REMARK    8  A    between atoms: C_8  and  C_9
REMARK    9  A    between atoms: C_9  and  C_10
REMARK   10  A    between atoms: C_10  and  C_11
REMARK   11  A    between atoms: C_11  and  C_12
REMARK   12  A    between atoms: C_12  and  O_13
REMARK   13  A    between atoms: O_13  and  C_14
REMARK   14  A    between atoms: C_16  and  C_17
REMARK   15  A    between atoms: C_17  and  O_18
REMARK   16  A    between atoms: C_19  and  O_20
REMARK   17  A    between atoms: C_21  and  O_22
REMARK   18  A    between atoms: C_23  and  O_24
REMARK                            x       y       z     vdW  Elec       q    Type
REMARK                         _______ _______ _______ _____ _____    ______ ____
ROOT
ATOM      1  C   UNL     1       4.363   3.381  19.425  0.00  0.00    +0.000 C 
ATOM      2  O   UNL     1       3.774   4.501  20.104  0.00  0.00    +0.000 OA
ATOM      3  C   UNL     1       2.774   5.160  19.292  0.00  0.00    +0.000 C 
ATOM      4  C   UNL     1       1.617   4.188  18.998  0.00  0.00    +0.000 C 
ATOM      5  C   UNL     1       2.165   2.957  18.272  0.00  0.00    +0.000 C 
ATOM      6  C   UNL     1       3.291   2.319  19.097  0.00  0.00    +0.000 C 
ENDROOT
BRANCH   6   7
ATOM      7  O   UNL     1       3.834   1.192  18.396  0.00  0.00    +0.000 OA
ATOM      8  H   UNL     1       4.210   1.558  17.571  0.00  0.00    +0.000 HD
ENDBRANCH   6   7
BRANCH   5   9
ATOM      9  O   UNL     1       1.120   1.983  18.093  0.00  0.00    +0.000 OA
ATOM     10  H   UNL     1       1.296   1.585  17.214  0.00  0.00    +0.000 HD
ENDBRANCH   5   9
BRANCH   4  11
ATOM     11  O   UNL     1       0.980   3.703  20.194  0.00  0.00    +0.000 OA
ATOM     12  H   UNL     1       1.359   4.202  20.951  0.00  0.00    +0.000 HD
ENDBRANCH   4  11
BRANCH   3  13
ATOM     13  C   UNL     1       2.337   6.407  20.061  0.00  0.00    +0.000 C 
BRANCH  13  14
ATOM     14  O   UNL     1       1.159   6.122  20.816  0.00  0.00    +0.000 OA
ATOM     15  H   UNL     1       0.434   6.103  20.158  0.00  0.00    +0.000 HD
ENDBRANCH  13  14
ENDBRANCH   3  13
BRANCH   1  16
ATOM     16  O   UNL     1       5.011   3.815  18.228  0.00  0.00    +0.000 OA
BRANCH  16  17
ATOM     17  C   UNL     1       6.104   4.689  18.490  0.00  0.00    +0.000 C 
BRANCH  17  18
ATOM     18  C   UNL     1       5.856   6.007  17.769  0.00  0.00    +0.000 C 
BRANCH  18  19
ATOM     19  C   UNL     1       6.951   6.305  16.743  0.00  0.00    +0.000 C 
BRANCH  19  20
ATOM     20  C   UNL     1       7.051   5.186  15.711  0.00  0.00    +0.000 C 
BRANCH  20  21
ATOM     21  C   UNL     1       5.796   5.138  14.843  0.00  0.00    +0.000 C 
BRANCH  21  22
ATOM     22  C   UNL     1       5.686   3.791  14.142  0.00  0.00    +0.000 C 
BRANCH  22  23
ATOM     23  C   UNL     1       6.584   3.736  12.909  0.00  0.00    +0.000 C 
BRANCH  23  24
ATOM     24  C   UNL     1       5.810   3.209  11.711  0.00  0.00    +0.000 C 
BRANCH  24  25
ATOM     25  C   UNL     1       4.408   3.807  11.655  0.00  0.00    +0.000 C 
BRANCH  25  26
ATOM     26  C   UNL     1       3.399   2.759  11.194  0.00  0.00    +0.000 C 
BRANCH  26  28
ATOM     27  C   UNL     1       3.020   4.549   9.479  0.00  0.00    +0.000 C 
ATOM     28  C   UNL     1       2.847   3.082   9.808  0.00  0.00    +0.000 C 
ENDBRANCH  26  28
ENDBRANCH  25  26
ENDBRANCH  24  25
ENDBRANCH  23  24
ENDBRANCH  22  23
ENDBRANCH  21  22
ENDBRANCH  20  21
ENDBRANCH  19  20
ENDBRANCH  18  19
ENDBRANCH  17  18
ENDBRANCH  16  17
ENDBRANCH   1  16
TORSDOF 17
ENDMDL
MODEL 7
REMARK VINA RESULT:      -5.4      4.987      7.562
REMARK  Name = 
REMARK  18 active torsions:
REMARK  status: ('A' for Active; 'I' for Inactive)
REMARK    1  A    between atoms: C_1  and  C_2
REMARK    2  A    between atoms: C_2  and  C_3
REMARK    3  A    between atoms: C_3  and  C_4
REMARK    4  A    between atoms: C_4  and  C_5
REMARK    5  A    between atoms: C_5  and  C_6
REMARK    6  A    between atoms: C_6  and  C_7
REMARK    7  A    between atoms: C_7  and  C_8
REMARK    8  A    between atoms: C_8  and  C_9
REMARK    9  A    between atoms: C_9  and  C_10
REMARK   10  A    between atoms: C_10  and  C_11
REMARK   11  A    between atoms: C_11  and  C_12
REMARK   12  A    between atoms: C_12  and  O_13
REMARK   13  A    between atoms: O_13  and  C_14
REMARK   14  A    between atoms: C_16  and  C_17
REMARK   15  A    between atoms: C_17  and  O_18
REMARK   16  A    between atoms: C_19  and  O_20
REMARK   17  A    between atoms: C_21  and  O_22
REMARK   18  A    between atoms: C_23  and  O_24
REMARK                            x       y       z     vdW  Elec       q    Type
REMARK                         _______ _______ _______ _____ _____    ______ ____
ROOT
ATOM      1  C   UNL     1       1.251  10.633  20.624  0.00  0.00    +0.000 C 
ATOM      2  O   UNL     1       0.536  11.879  20.620  0.00  0.00    +0.000 OA
ATOM      3  C   UNL     1      -0.886  11.686  20.800  0.00  0.00    +0.000 C 
ATOM      4  C   UNL     1      -1.157  11.048  22.174  0.00  0.00    +0.000 C 
ATOM      5  C   UNL     1      -0.423   9.707  22.260  0.00  0.00    +0.000 C 
ATOM      6  C   UNL     1       1.071   9.907  21.974  0.00  0.00    +0.000 C 
ENDROOT
BRANCH   6   7
ATOM      7  O   UNL     1       1.750   8.645  22.011  0.00  0.00    +0.000 OA
ATOM      8  H   UNL     1       1.466   8.175  21.203  0.00  0.00    +0.000 HD
ENDBRANCH   6   7
BRANCH   5   9
ATOM      9  O   UNL     1      -0.567   9.150  23.580  0.00  0.00    +0.000 OA
ATOM     10  H   UNL     1      -1.530   9.181  23.762  0.00  0.00    +0.000 HD
ENDBRANCH   5   9
BRANCH   4  11
ATOM     11  O   UNL     1      -0.668  11.849  23.266  0.00  0.00    +0.000 OA
ATOM     12  H   UNL     1      -0.044  11.292  23.781  0.00  0.00    +0.000 HD
ENDBRANCH   4  11
BRANCH   3  13
ATOM     13  C   UNL     1      -1.540  13.058  20.630  0.00  0.00    +0.000 C 
BRANCH  13  14
ATOM     14  O   UNL     1      -2.355  13.065  19.457  0.00  0.00    +0.000 OA
ATOM     15  H   UNL     1      -3.130  13.616  19.690  0.00  0.00    +0.000 HD
ENDBRANCH  13  14
ENDBRANCH   3  13
BRANCH   1  16
ATOM     16  O   UNL     1       0.799   9.803  19.552  0.00  0.00    +0.000 OA
BRANCH  16  17
ATOM     17  C   UNL     1       1.504  10.051  18.340  0.00  0.00    +0.000 C 
BRANCH  17  18
ATOM     18  C   UNL     1       1.750   8.721  17.640  0.00  0.00    +0.000 C 
BRANCH  18  19
ATOM     19  C   UNL     1       2.383   7.696  18.583  0.00  0.00    +0.000 C 
BRANCH  19  20
ATOM     20  C   UNL     1       3.411   6.841  17.851  0.00  0.00    +0.000 C 
BRANCH  20  21
ATOM     21  C   UNL     1       3.507   5.454  18.482  0.00  0.00    +0.000 C 
BRANCH  21  22
ATOM     22  C   UNL     1       3.783   4.402  17.416  0.00  0.00    +0.000 C 
BRANCH  22  23
ATOM     23  C   UNL     1       3.810   3.000  18.019  0.00  0.00    +0.000 C 
BRANCH  23  24
ATOM     24  C   UNL     1       2.489   2.289  17.767  0.00  0.00    +0.000 C 
BRANCH  24  25
ATOM     25  C   UNL     1       1.794   1.938  19.078  0.00  0.00    +0.000 C 
BRANCH  25  26
ATOM     26  C   UNL     1       0.811   3.037  19.471  0.00  0.00    +0.000 C 
BRANCH  26  28
ATOM     27  C   UNL     1       2.239   2.864  21.525  0.00  0.00    +0.000 C 
ATOM     28  C   UNL     1       1.194   3.684  20.800  0.00  0.00    +0.000 C 
ENDBRANCH  26  28
ENDBRANCH  25  26
ENDBRANCH  24  25
ENDBRANCH  23  24
ENDBRANCH  22  23
ENDBRANCH  21  22
ENDBRANCH  20  21
ENDBRANCH  19  20
ENDBRANCH  18  19
ENDBRANCH  17  18
ENDBRANCH  16  17
ENDBRANCH   1  16
TORSDOF 17
ENDMDL
MODEL 8
REMARK VINA RESULT:      -5.4      3.883      5.987
REMARK  Name = 
REMARK  18 active torsions:
REMARK  status: ('A' for Active; 'I' for Inactive)
REMARK    1  A    between atoms: C_1  and  C_2
REMARK    2  A    between atoms: C_2  and  C_3
REMARK    3  A    between atoms: C_3  and  C_4
REMARK    4  A    between atoms: C_4  and  C_5
REMARK    5  A    between atoms: C_5  and  C_6
REMARK    6  A    between atoms: C_6  and  C_7
REMARK    7  A    between atoms: C_7  and  C_8
REMARK    8  A    between atoms: C_8  and  C_9
REMARK    9  A    between atoms: C_9  and  C_10
REMARK   10  A    between atoms: C_10  and  C_11
REMARK   11  A    between atoms: C_11  and  C_12
REMARK   12  A    between atoms: C_12  and  O_13
REMARK   13  A    between atoms: O_13  and  C_14
REMARK   14  A    between atoms: C_16  and  C_17
REMARK   15  A    between atoms: C_17  and  O_18
REMARK   16  A    between atoms: C_19  and  O_20
REMARK   17  A    between atoms: C_21  and  O_22
REMARK   18  A    between atoms: C_23  and  O_24
REMARK                            x       y       z     vdW  Elec       q    Type
REMARK                         _______ _______ _______ _____ _____    ______ ____
ROOT
ATOM      1  C   UNL     1       3.694   6.073  17.637  0.00  0.00    +0.000 C 
ATOM      2  O   UNL     1       5.029   6.434  17.252  0.00  0.00    +0.000 OA
ATOM      3  C   UNL     1       6.020   5.862  18.137  0.00  0.00    +0.000 C 
ATOM      4  C   UNL     1       5.960   4.325  18.065  0.00  0.00    +0.000 C 
ATOM      5  C   UNL     1       4.557   3.857  18.462  0.00  0.00    +0.000 C 
ATOM      6  C   UNL     1       3.505   4.542  17.579  0.00  0.00    +0.000 C 
ENDROOT
BRANCH   6   7
ATOM      7  O   UNL     1       2.190   4.137  17.980  0.00  0.00    +0.000 OA
ATOM      8  H   UNL     1       2.301   3.248  18.371  0.00  0.00    +0.000 HD
ENDBRANCH   6   7
BRANCH   5   9
ATOM      9  O   UNL     1       4.444   2.432  18.287  0.00  0.00    +0.000 OA
ATOM     10  H   UNL     1       3.700   2.315  17.658  0.00  0.00    +0.000 HD
ENDBRANCH   5   9
BRANCH   4  11
ATOM     11  O   UNL     1       6.195   3.821  16.738  0.00  0.00    +0.000 OA
ATOM     12  H   UNL     1       5.352   3.431  16.419  0.00  0.00    +0.000 HD
ENDBRANCH   4  11
BRANCH   3  13
ATOM     13  C   UNL     1       7.372   6.435  17.713  0.00  0.00    +0.000 C 
BRANCH  13  14
ATOM     14  O   UNL     1       7.485   6.405  16.289  0.00  0.00    +0.000 OA
ATOM     15  H   UNL     1       7.760   5.490  16.076  0.00  0.00    +0.000 HD
ENDBRANCH  13  14
ENDBRANCH   3  13
BRANCH   1  16
ATOM     16  O   UNL     1       3.412   6.556  18.952  0.00  0.00    +0.000 OA
BRANCH  16  17
ATOM     17  C   UNL     1       2.273   7.410  18.983  0.00  0.00    +0.000 C 
BRANCH  17  18
ATOM     18  C   UNL     1       2.411   8.446  17.876  0.00  0.00    +0.000 C 
BRANCH  18  19
ATOM     19  C   UNL     1       1.224   9.411  17.854  0.00  0.00    +0.000 C 
BRANCH  19  20
ATOM     20  C   UNL     1       0.797   9.784  19.270  0.00  0.00    +0.000 C 
BRANCH  20  21
ATOM     21  C   UNL     1       1.164  11.233  19.580  0.00  0.00    +0.000 C 
BRANCH  21  22
ATOM     22  C   UNL     1       0.314  12.186  18.750  0.00  0.00    +0.000 C 
BRANCH  22  23
ATOM     23  C   UNL     1      -1.148  12.143  19.187  0.00  0.00    +0.000 C 
BRANCH  23  24
ATOM     24  C   UNL     1      -2.047  11.834  18.000  0.00  0.00    +0.000 C 
BRANCH  24  25
ATOM     25  C   UNL     1      -2.832  10.546  18.224  0.00  0.00    +0.000 C 
BRANCH  25  26
ATOM     26  C   UNL     1      -3.111   9.854  16.892  0.00  0.00    +0.000 C 
BRANCH  26  28
ATOM     27  C   UNL     1      -2.953  10.043  14.397  0.00  0.00    +0.000 C 
ATOM     28  C   UNL     1      -2.855  10.787  15.711  0.00  0.00    +0.000 C 
ENDBRANCH  26  28
ENDBRANCH  25  26
ENDBRANCH  24  25
ENDBRANCH  23  24
ENDBRANCH  22  23
ENDBRANCH  21  22
ENDBRANCH  20  21
ENDBRANCH  19  20
ENDBRANCH  18  19
ENDBRANCH  17  18
ENDBRANCH  16  17
ENDBRANCH   1  16
TORSDOF 17
ENDMDL
MODEL 9
REMARK VINA RESULT:      -5.3      1.362      3.623
REMARK  Name = 
REMARK  18 active torsions:
REMARK  status: ('A' for Active; 'I' for Inactive)
REMARK    1  A    between atoms: C_1  and  C_2
REMARK    2  A    between atoms: C_2  and  C_3
REMARK    3  A    between atoms: C_3  and  C_4
REMARK    4  A    between atoms: C_4  and  C_5
REMARK    5  A    between atoms: C_5  and  C_6
REMARK    6  A    between atoms: C_6  and  C_7
REMARK    7  A    between atoms: C_7  and  C_8
REMARK    8  A    between atoms: C_8  and  C_9
REMARK    9  A    between atoms: C_9  and  C_10
REMARK   10  A    between atoms: C_10  and  C_11
REMARK   11  A    between atoms: C_11  and  C_12
REMARK   12  A    between atoms: C_12  and  O_13
REMARK   13  A    between atoms: O_13  and  C_14
REMARK   14  A    between atoms: C_16  and  C_17
REMARK   15  A    between atoms: C_17  and  O_18
REMARK   16  A    between atoms: C_19  and  O_20
REMARK   17  A    between atoms: C_21  and  O_22
REMARK   18  A    between atoms: C_23  and  O_24
REMARK                            x       y       z     vdW  Elec       q    Type
REMARK                         _______ _______ _______ _____ _____    ______ ____
ROOT
ATOM      1  C   UNL     1       5.033   4.867  16.949  0.00  0.00    +0.000 C 
ATOM      2  O   UNL     1       5.760   5.520  18.002  0.00  0.00    +0.000 OA
ATOM      3  C   UNL     1       7.155   5.138  18.012  0.00  0.00    +0.000 C 
ATOM      4  C   UNL     1       7.827   5.576  16.698  0.00  0.00    +0.000 C 
ATOM      5  C   UNL     1       7.104   4.920  15.519  0.00  0.00    +0.000 C 
ATOM      6  C   UNL     1       5.606   5.254  15.570  0.00  0.00    +0.000 C 
ENDROOT
BRANCH   6   7
ATOM      7  O   UNL     1       4.923   4.604  14.491  0.00  0.00    +0.000 OA
ATOM      8  H   UNL     1       5.627   4.210  13.938  0.00  0.00    +0.000 HD
ENDBRANCH   6   7
BRANCH   5   9
ATOM      9  O   UNL     1       7.641   5.410  14.276  0.00  0.00    +0.000 OA
ATOM     10  H   UNL     1       6.856   5.693  13.759  0.00  0.00    +0.000 HD
ENDBRANCH   5   9
BRANCH   4  11
ATOM     11  O   UNL     1       7.749   6.997  16.481  0.00  0.00    +0.000 OA
ATOM     12  H   UNL     1       6.945   7.168  15.945  0.00  0.00    +0.000 HD
ENDBRANCH   4  11
BRANCH   3  13
ATOM     13  C   UNL     1       7.777   5.778  19.253  0.00  0.00    +0.000 C 
BRANCH  13  14
ATOM     14  O   UNL     1       7.286   5.133  20.429  0.00  0.00    +0.000 OA
ATOM     15  H   UNL     1       6.313   5.119  20.323  0.00  0.00    +0.000 HD
ENDBRANCH  13  14
ENDBRANCH   3  13
BRANCH   1  16
ATOM     16  O   UNL     1       5.079   3.450  17.124  0.00  0.00    +0.000 OA
BRANCH  16  17
ATOM     17  C   UNL     1       3.782   2.877  17.255  0.00  0.00    +0.000 C 
BRANCH  17  18
ATOM     18  C   UNL     1       3.571   2.478  18.710  0.00  0.00    +0.000 C 
BRANCH  18  19
ATOM     19  C   UNL     1       2.354   1.565  18.874  0.00  0.00    +0.000 C 
BRANCH  19  20
ATOM     20  C   UNL     1       1.087   2.380  19.106  0.00  0.00    +0.000 C 
BRANCH  20  21
ATOM     21  C   UNL     1       1.110   3.033  20.486  0.00  0.00    +0.000 C 
BRANCH  21  22
ATOM     22  C   UNL     1       0.855   4.530  20.371  0.00  0.00    +0.000 C 
BRANCH  22  23
ATOM     23  C   UNL     1       2.020   5.333  20.945  0.00  0.00    +0.000 C 
BRANCH  23  24
ATOM     24  C   UNL     1       2.967   5.760  19.834  0.00  0.00    +0.000 C 
BRANCH  24  25
ATOM     25  C   UNL     1       2.211   6.020  18.536  0.00  0.00    +0.000 C 
BRANCH  25  26
ATOM     26  C   UNL     1       2.524   7.418  18.008  0.00  0.00    +0.000 C 
BRANCH  26  28
ATOM     27  C   UNL     1       1.484   9.700  17.977  0.00  0.00    +0.000 C 
ATOM     28  C   UNL     1       1.826   8.498  18.831  0.00  0.00    +0.000 C 
ENDBRANCH  26  28
ENDBRANCH  25  26
ENDBRANCH  24  25
ENDBRANCH  23  24
ENDBRANCH  22  23
ENDBRANCH  21  22
ENDBRANCH  20  21
ENDBRANCH  19  20
ENDBRANCH  18  19
ENDBRANCH  17  18
ENDBRANCH  16  17
ENDBRANCH   1  16
TORSDOF 17
ENDMDL
