MODEL 1
REMARK VINA RESULT:      -8.9      0.000      0.000
REMARK  Name = 
REMARK  8 active torsions:
REMARK  status: ('A' for Active; 'I' for Inactive)
REMARK    1  A    between atoms: C_1  and  C_2
REMARK    2  A    between atoms: C_2  and  O_3
REMARK    3  A    between atoms: O_3  and  C_4
REMARK    4  A    between atoms: C_4  and  C_6
REMARK    5  A    between atoms: C_6  and  C_7
REMARK    6  A    between atoms: C_6  and  C_13
REMARK    7  A    between atoms: N_18  and  C_19
REMARK    8  A    between atoms: C_19  and  C_20
REMARK                            x       y       z     vdW  Elec       q    Type
REMARK                         _______ _______ _______ _____ _____    ______ ____
ROOT
ATOM      1  C   UNL     1       2.517   6.890  18.823  0.00  0.00    +0.000 A 
ATOM      2  C   UNL     1       2.204   6.673  20.104  0.00  0.00    +0.000 A 
ATOM      3 CL   UNL     1       2.426   5.194  20.949  0.00  0.00    +0.000 Cl
ATOM      4  C   UNL     1       1.590   7.773  20.862  0.00  0.00    +0.000 A 
ATOM      5  N   UNL     1       1.177   8.888  20.361  0.00  0.00    +0.000 NA
ATOM      6  N   UNL     1       1.398   9.072  19.010  0.00  0.00    +0.000 N 
ATOM      7  C   UNL     1       2.211   8.235  18.252  0.00  0.00    +0.000 A 
ATOM      8  O   UNL     1       2.654   8.536  17.144  0.00  0.00    +0.000 OA
ENDROOT
BRANCH   1   9
ATOM      9  C   UNL     1       3.069   5.857  17.862  0.00  0.00    +0.000 C 
BRANCH   9  10
ATOM     10  C   UNL     1       2.658   4.433  18.186  0.00  0.00    +0.000 A 
ATOM     11  C   UNL     1       1.334   3.990  18.145  0.00  0.00    +0.000 A 
ATOM     12  C   UNL     1       1.062   2.648  18.406  0.00  0.00    +0.000 A 
ATOM     13  C   UNL     1       2.099   1.778  18.709  0.00  0.00    +0.000 A 
ATOM     14  C   UNL     1       3.384   2.293  18.734  0.00  0.00    +0.000 A 
ATOM     15  N   UNL     1       3.682   3.584  18.477  0.00  0.00    +0.000 NA
ENDBRANCH   9  10
BRANCH   9  16
ATOM     16  C   UNL     1       4.555   6.105  17.624  0.00  0.00    +0.000 C 
ATOM     17  O   UNL     1       5.372   6.377  18.498  0.00  0.00    +0.000 OA
BRANCH  16  18
ATOM     18  O   UNL     1       4.821   6.199  16.286  0.00  0.00    +0.000 OA
BRANCH  18  20
ATOM     19  C   UNL     1       5.627   4.146  15.341  0.00  0.00    +0.000 C 
ATOM     20  C   UNL     1       6.013   5.520  15.864  0.00  0.00    +0.000 C 
ENDBRANCH  18  20
ENDBRANCH  16  18
ENDBRANCH   9  16
ENDBRANCH   1   9
BRANCH   6  21
ATOM     21  C   UNL     1       0.985  10.357  18.453  0.00  0.00    +0.000 C 
BRANCH  21  22
ATOM     22  C   UNL     1      -0.349  10.885  18.960  0.00  0.00    +0.000 A 
ATOM     23  C   UNL     1      -0.340  11.655  20.138  0.00  0.00    +0.000 A 
ATOM     24  C   UNL     1      -1.473  12.355  20.542  0.00  0.00    +0.000 A 
ATOM     25  C   UNL     1      -2.624  12.317  19.762  0.00  0.00    +0.000 A 
ATOM     26  C   UNL     1      -2.683  11.527  18.605  0.00  0.00    +0.000 A 
ATOM     27  C   UNL     1      -3.847  11.524  17.817  0.00  0.00    +0.000 A 
ATOM     28  C   UNL     1      -3.953  10.708  16.693  0.00  0.00    +0.000 A 
ATOM     29  C   UNL     1      -2.904   9.863  16.361  0.00  0.00    +0.000 A 
ATOM     30  C   UNL     1      -1.724   9.888  17.112  0.00  0.00    +0.000 A 
ATOM     31  C   UNL     1      -1.562  10.746  18.224  0.00  0.00    +0.000 A 
ENDBRANCH  21  22
ENDBRANCH   6  21
TORSDOF 7
ENDMDL
MODEL 2
REMARK VINA RESULT:      -8.8      0.840      1.031
REMARK  Name = 
REMARK  8 active torsions:
REMARK  status: ('A' for Active; 'I' for Inactive)
REMARK    1  A    between atoms: C_1  and  C_2
REMARK    2  A    between atoms: C_2  and  O_3
REMARK    3  A    between atoms: O_3  and  C_4
REMARK    4  A    between atoms: C_4  and  C_6
REMARK    5  A    between atoms: C_6  and  C_7
REMARK    6  A    between atoms: C_6  and  C_13
REMARK    7  A    between atoms: N_18  and  C_19
REMARK    8  A    between atoms: C_19  and  C_20
REMARK                            x       y       z     vdW  Elec       q    Type
REMARK                         _______ _______ _______ _____ _____    ______ ____
ROOT
ATOM      1  C   UNL     1       2.720   6.757  19.075  0.00  0.00    +0.000 A 
ATOM      2  C   UNL     1       2.241   6.578  20.310  0.00  0.00    +0.000 A 
ATOM      3 CL   UNL     1       2.430   5.158  21.258  0.00  0.00    +0.000 Cl
ATOM      4  C   UNL     1       1.462   7.668  20.914  0.00  0.00    +0.000 A 
ATOM      5  N   UNL     1       1.058   8.728  20.301  0.00  0.00    +0.000 NA
ATOM      6  N   UNL     1       1.457   8.865  18.986  0.00  0.00    +0.000 N 
ATOM      7  C   UNL     1       2.418   8.051  18.395  0.00  0.00    +0.000 A 
ATOM      8  O   UNL     1       2.995   8.330  17.344  0.00  0.00    +0.000 OA
ENDROOT
BRANCH   1   9
ATOM      9  C   UNL     1       3.463   5.721  18.258  0.00  0.00    +0.000 C 
BRANCH   9  10
ATOM     10  C   UNL     1       2.858   4.331  18.327  0.00  0.00    +0.000 A 
ATOM     11  C   UNL     1       1.492   4.083  18.175  0.00  0.00    +0.000 A 
ATOM     12  C   UNL     1       1.038   2.765  18.201  0.00  0.00    +0.000 A 
ATOM     13  C   UNL     1       1.939   1.726  18.383  0.00  0.00    +0.000 A 
ATOM     14  C   UNL     1       3.276   2.053  18.529  0.00  0.00    +0.000 A 
ATOM     15  N   UNL     1       3.749   3.316  18.500  0.00  0.00    +0.000 NA
ENDBRANCH   9  10
BRANCH   9  16
ATOM     16  C   UNL     1       4.963   5.829  18.515  0.00  0.00    +0.000 C 
ATOM     17  O   UNL     1       5.518   5.553  19.574  0.00  0.00    +0.000 OA
BRANCH  16  18
ATOM     18  O   UNL     1       5.584   6.478  17.484  0.00  0.00    +0.000 OA
BRANCH  18  20
ATOM     19  C   UNL     1       7.621   7.746  17.510  0.00  0.00    +0.000 C 
ATOM     20  C   UNL     1       7.014   6.353  17.472  0.00  0.00    +0.000 C 
ENDBRANCH  18  20
ENDBRANCH  16  18
ENDBRANCH   9  16
ENDBRANCH   1   9
BRANCH   6  21
ATOM     21  C   UNL     1       1.051  10.093  18.307  0.00  0.00    +0.000 C 
BRANCH  21  22
ATOM     22  C   UNL     1      -0.223  10.735  18.837  0.00  0.00    +0.000 A 
ATOM     23  C   UNL     1      -0.117  11.541  19.986  0.00  0.00    +0.000 A 
ATOM     24  C   UNL     1      -1.181  12.337  20.400  0.00  0.00    +0.000 A 
ATOM     25  C   UNL     1      -2.357  12.359  19.659  0.00  0.00    +0.000 A 
ATOM     26  C   UNL     1      -2.514  11.539  18.533  0.00  0.00    +0.000 A 
ATOM     27  C   UNL     1      -3.701  11.597  17.782  0.00  0.00    +0.000 A 
ATOM     28  C   UNL     1      -3.904  10.755  16.691  0.00  0.00    +0.000 A 
ATOM     29  C   UNL     1      -2.932   9.823  16.357  0.00  0.00    +0.000 A 
ATOM     30  C   UNL     1      -1.729   9.785  17.069  0.00  0.00    +0.000 A 
ATOM     31  C   UNL     1      -1.467  10.664  18.145  0.00  0.00    +0.000 A 
ENDBRANCH  21  22
ENDBRANCH   6  21
TORSDOF 7
ENDMDL
MODEL 3
REMARK VINA RESULT:      -8.4      0.855      1.277
REMARK  Name = 
REMARK  8 active torsions:
REMARK  status: ('A' for Active; 'I' for Inactive)
REMARK    1  A    between atoms: C_1  and  C_2
REMARK    2  A    between atoms: C_2  and  O_3
REMARK    3  A    between atoms: O_3  and  C_4
REMARK    4  A    between atoms: C_4  and  C_6
REMARK    5  A    between atoms: C_6  and  C_7
REMARK    6  A    between atoms: C_6  and  C_13
REMARK    7  A    between atoms: N_18  and  C_19
REMARK    8  A    between atoms: C_19  and  C_20
REMARK                            x       y       z     vdW  Elec       q    Type
REMARK                         _______ _______ _______ _____ _____    ______ ____
ROOT
ATOM      1  C   UNL     1       2.586   6.929  18.689  0.00  0.00    +0.000 A 
ATOM      2  C   UNL     1       2.294   6.659  19.965  0.00  0.00    +0.000 A 
ATOM      3 CL   UNL     1       2.549   5.152  20.749  0.00  0.00    +0.000 Cl
ATOM      4  C   UNL     1       1.677   7.720  20.773  0.00  0.00    +0.000 A 
ATOM      5  N   UNL     1       1.241   8.847  20.322  0.00  0.00    +0.000 NA
ATOM      6  N   UNL     1       1.441   9.087  18.976  0.00  0.00    +0.000 N 
ATOM      7  C   UNL     1       2.254   8.291  18.175  0.00  0.00    +0.000 A 
ATOM      8  O   UNL     1       2.676   8.641  17.074  0.00  0.00    +0.000 OA
ENDROOT
BRANCH   1   9
ATOM      9  C   UNL     1       3.138   5.942  17.681  0.00  0.00    +0.000 C 
BRANCH   9  10
ATOM     10  C   UNL     1       2.758   4.500  17.961  0.00  0.00    +0.000 A 
ATOM     11  C   UNL     1       3.698   3.487  18.164  0.00  0.00    +0.000 A 
ATOM     12  C   UNL     1       3.250   2.202  18.469  0.00  0.00    +0.000 A 
ATOM     13  C   UNL     1       1.890   1.946  18.558  0.00  0.00    +0.000 A 
ATOM     14  C   UNL     1       1.021   3.002  18.339  0.00  0.00    +0.000 A 
ATOM     15  N   UNL     1       1.421   4.258  18.053  0.00  0.00    +0.000 NA
ENDBRANCH   9  10
BRANCH   9  16
ATOM     16  C   UNL     1       4.615   6.226  17.425  0.00  0.00    +0.000 C 
ATOM     17  O   UNL     1       5.091   6.560  16.345  0.00  0.00    +0.000 OA
BRANCH  16  18
ATOM     18  O   UNL     1       5.372   5.850  18.500  0.00  0.00    +0.000 OA
BRANCH  18  20
ATOM     19  C   UNL     1       7.406   4.708  17.937  0.00  0.00    +0.000 C 
ATOM     20  C   UNL     1       6.785   6.038  18.332  0.00  0.00    +0.000 C 
ENDBRANCH  18  20
ENDBRANCH  16  18
ENDBRANCH   9  16
ENDBRANCH   1   9
BRANCH   6  21
ATOM     21  C   UNL     1       1.002  10.386  18.474  0.00  0.00    +0.000 C 
BRANCH  21  22
ATOM     22  C   UNL     1      -0.344  10.863  19.001  0.00  0.00    +0.000 A 
ATOM     23  C   UNL     1      -0.352  11.586  20.209  0.00  0.00    +0.000 A 
ATOM     24  C   UNL     1      -1.500  12.244  20.640  0.00  0.00    +0.000 A 
ATOM     25  C   UNL     1      -2.649  12.212  19.857  0.00  0.00    +0.000 A 
ATOM     26  C   UNL     1      -2.692  11.468  18.670  0.00  0.00    +0.000 A 
ATOM     27  C   UNL     1      -3.855  11.471  17.881  0.00  0.00    +0.000 A 
ATOM     28  C   UNL     1      -3.942  10.699  16.725  0.00  0.00    +0.000 A 
ATOM     29  C   UNL     1      -2.875   9.891  16.360  0.00  0.00    +0.000 A 
ATOM     30  C   UNL     1      -1.696   9.912  17.113  0.00  0.00    +0.000 A 
ATOM     31  C   UNL     1      -1.553  10.728  18.259  0.00  0.00    +0.000 A 
ENDBRANCH  21  22
ENDBRANCH   6  21
TORSDOF 7
ENDMDL
MODEL 4
REMARK VINA RESULT:      -8.3      0.712      2.000
REMARK  Name = 
REMARK  8 active torsions:
REMARK  status: ('A' for Active; 'I' for Inactive)
REMARK    1  A    between atoms: C_1  and  C_2
REMARK    2  A    between atoms: C_2  and  O_3
REMARK    3  A    between atoms: O_3  and  C_4
REMARK    4  A    between atoms: C_4  and  C_6
REMARK    5  A    between atoms: C_6  and  C_7
REMARK    6  A    between atoms: C_6  and  C_13
REMARK    7  A    between atoms: N_18  and  C_19
REMARK    8  A    between atoms: C_19  and  C_20
REMARK                            x       y       z     vdW  Elec       q    Type
REMARK                         _______ _______ _______ _____ _____    ______ ____
ROOT
ATOM      1  C   UNL     1       2.600   6.782  18.970  0.00  0.00    +0.000 A 
ATOM      2  C   UNL     1       2.149   6.639  20.221  0.00  0.00    +0.000 A 
ATOM      3 CL   UNL     1       2.251   5.205  21.160  0.00  0.00    +0.000 Cl
ATOM      4  C   UNL     1       1.483   7.788  20.851  0.00  0.00    +0.000 A 
ATOM      5  N   UNL     1       1.149   8.880  20.253  0.00  0.00    +0.000 NA
ATOM      6  N   UNL     1       1.514   8.988  18.925  0.00  0.00    +0.000 N 
ATOM      7  C   UNL     1       2.384   8.099  18.302  0.00  0.00    +0.000 A 
ATOM      8  O   UNL     1       2.946   8.333  17.233  0.00  0.00    +0.000 OA
ENDROOT
BRANCH   1   9
ATOM      9  C   UNL     1       3.227   5.691  18.128  0.00  0.00    +0.000 C 
BRANCH   9  10
ATOM     10  C   UNL     1       2.646   4.311  18.375  0.00  0.00    +0.000 A 
ATOM     11  C   UNL     1       1.287   4.017  18.238  0.00  0.00    +0.000 A 
ATOM     12  C   UNL     1       0.857   2.705  18.434  0.00  0.00    +0.000 A 
ATOM     13  C   UNL     1       1.774   1.719  18.768  0.00  0.00    +0.000 A 
ATOM     14  C   UNL     1       3.102   2.090  18.889  0.00  0.00    +0.000 A 
ATOM     15  N   UNL     1       3.553   3.347  18.696  0.00  0.00    +0.000 NA
ENDBRANCH   9  10
BRANCH   9  16
ATOM     16  C   UNL     1       4.747   5.811  18.163  0.00  0.00    +0.000 C 
ATOM     17  O   UNL     1       5.425   5.883  19.183  0.00  0.00    +0.000 OA
BRANCH  16  18
ATOM     18  O   UNL     1       5.242   6.047  16.910  0.00  0.00    +0.000 OA
BRANCH  18  20
ATOM     19  C   UNL     1       5.577   4.084  15.571  0.00  0.00    +0.000 C 
ATOM     20  C   UNL     1       6.239   5.111  16.474  0.00  0.00    +0.000 C 
ENDBRANCH  18  20
ENDBRANCH  16  18
ENDBRANCH   9  16
ENDBRANCH   1   9
BRANCH   6  21
ATOM     21  C   UNL     1       1.189  10.248  18.262  0.00  0.00    +0.000 C 
BRANCH  21  22
ATOM     22  C   UNL     1      -0.295  10.574  18.183  0.00  0.00    +0.000 A 
ATOM     23  C   UNL     1      -1.106   9.736  17.394  0.00  0.00    +0.000 A 
ATOM     24  C   UNL     1      -2.493   9.829  17.447  0.00  0.00    +0.000 A 
ATOM     25  C   UNL     1      -3.093  10.743  18.307  0.00  0.00    +0.000 A 
ATOM     26  C   UNL     1      -2.318  11.623  19.076  0.00  0.00    +0.000 A 
ATOM     27  C   UNL     1      -2.943  12.520  19.958  0.00  0.00    +0.000 A 
ATOM     28  C   UNL     1      -2.201  13.441  20.694  0.00  0.00    +0.000 A 
ATOM     29  C   UNL     1      -0.824  13.494  20.533  0.00  0.00    +0.000 A 
ATOM     30  C   UNL     1      -0.185  12.578  19.690  0.00  0.00    +0.000 A 
ATOM     31  C   UNL     1      -0.903  11.593  18.973  0.00  0.00    +0.000 A 
ENDBRANCH  21  22
ENDBRANCH   6  21
TORSDOF 7
ENDMDL
MODEL 5
REMARK VINA RESULT:      -8.3      1.470      2.997
REMARK  Name = 
REMARK  8 active torsions:
REMARK  status: ('A' for Active; 'I' for Inactive)
REMARK    1  A    between atoms: C_1  and  C_2
REMARK    2  A    between atoms: C_2  and  O_3
REMARK    3  A    between atoms: O_3  and  C_4
REMARK    4  A    between atoms: C_4  and  C_6
REMARK    5  A    between atoms: C_6  and  C_7
REMARK    6  A    between atoms: C_6  and  C_13
REMARK    7  A    between atoms: N_18  and  C_19
REMARK    8  A    between atoms: C_19  and  C_20
REMARK                            x       y       z     vdW  Elec       q    Type
REMARK                         _______ _______ _______ _____ _____    ______ ____
ROOT
ATOM      1  C   UNL     1       2.674   6.022  19.143  0.00  0.00    +0.000 A 
ATOM      2  C   UNL     1       2.169   5.953  20.379  0.00  0.00    +0.000 A 
ATOM      3 CL   UNL     1       2.099   4.538  21.351  0.00  0.00    +0.000 Cl
ATOM      4  C   UNL     1       1.595   7.174  20.961  0.00  0.00    +0.000 A 
ATOM      5  N   UNL     1       1.388   8.279  20.329  0.00  0.00    +0.000 NA
ATOM      6  N   UNL     1       1.809   8.320  19.013  0.00  0.00    +0.000 N 
ATOM      7  C   UNL     1       2.610   7.338  18.441  0.00  0.00    +0.000 A 
ATOM      8  O   UNL     1       3.230   7.491  17.389  0.00  0.00    +0.000 OA
ENDROOT
BRANCH   1   9
ATOM      9  C   UNL     1       3.223   4.856  18.347  0.00  0.00    +0.000 C 
BRANCH   9  10
ATOM     10  C   UNL     1       4.560   5.136  17.687  0.00  0.00    +0.000 A 
ATOM     11  C   UNL     1       4.765   5.053  16.308  0.00  0.00    +0.000 A 
ATOM     12  C   UNL     1       6.017   5.383  15.790  0.00  0.00    +0.000 A 
ATOM     13  C   UNL     1       7.036   5.777  16.644  0.00  0.00    +0.000 A 
ATOM     14  C   UNL     1       6.757   5.832  17.999  0.00  0.00    +0.000 A 
ATOM     15  N   UNL     1       5.554   5.529  18.531  0.00  0.00    +0.000 NA
ENDBRANCH   9  10
BRANCH   9  16
ATOM     16  C   UNL     1       2.130   4.267  17.461  0.00  0.00    +0.000 C 
ATOM     17  O   UNL     1       1.101   4.848  17.132  0.00  0.00    +0.000 OA
BRANCH  16  18
ATOM     18  O   UNL     1       2.341   2.931  17.258  0.00  0.00    +0.000 OA
BRANCH  18  20
ATOM     19  C   UNL     1       0.835   2.128  18.944  0.00  0.00    +0.000 C 
ATOM     20  C   UNL     1       2.270   2.127  18.444  0.00  0.00    +0.000 C 
ENDBRANCH  18  20
ENDBRANCH  16  18
ENDBRANCH   9  16
ENDBRANCH   1   9
BRANCH   6  21
ATOM     21  C   UNL     1       1.630   9.589  18.312  0.00  0.00    +0.000 C 
BRANCH  21  22
ATOM     22  C   UNL     1       0.567  10.508  18.896  0.00  0.00    +0.000 A 
ATOM     23  C   UNL     1       0.965  11.410  19.901  0.00  0.00    +0.000 A 
ATOM     24  C   UNL     1       0.116  12.427  20.325  0.00  0.00    +0.000 A 
ATOM     25  C   UNL     1      -1.135  12.575  19.734  0.00  0.00    +0.000 A 
ATOM     26  C   UNL     1      -1.582  11.670  18.760  0.00  0.00    +0.000 A 
ATOM     27  C   UNL     1      -2.838  11.854  18.157  0.00  0.00    +0.000 A 
ATOM     28  C   UNL     1      -3.330  10.940  17.227  0.00  0.00    +0.000 A 
ATOM     29  C   UNL     1      -2.581   9.816  16.911  0.00  0.00    +0.000 A 
ATOM     30  C   UNL     1      -1.311   9.645  17.472  0.00  0.00    +0.000 A 
ATOM     31  C   UNL     1      -0.758  10.581  18.375  0.00  0.00    +0.000 A 
ENDBRANCH  21  22
ENDBRANCH   6  21
TORSDOF 7
ENDMDL
MODEL 6
REMARK VINA RESULT:      -8.2      1.501      2.946
REMARK  Name = 
REMARK  8 active torsions:
REMARK  status: ('A' for Active; 'I' for Inactive)
REMARK    1  A    between atoms: C_1  and  C_2
REMARK    2  A    between atoms: C_2  and  O_3
REMARK    3  A    between atoms: O_3  and  C_4
REMARK    4  A    between atoms: C_4  and  C_6
REMARK    5  A    between atoms: C_6  and  C_7
REMARK    6  A    between atoms: C_6  and  C_13
REMARK    7  A    between atoms: N_18  and  C_19
REMARK    8  A    between atoms: C_19  and  C_20
REMARK                            x       y       z     vdW  Elec       q    Type
REMARK                         _______ _______ _______ _____ _____    ______ ____
ROOT
ATOM      1  C   UNL     1       2.685   6.009  19.128  0.00  0.00    +0.000 A 
ATOM      2  C   UNL     1       2.149   5.972  20.352  0.00  0.00    +0.000 A 
ATOM      3 CL   UNL     1       2.036   4.579  21.350  0.00  0.00    +0.000 Cl
ATOM      4  C   UNL     1       1.577   7.213  20.895  0.00  0.00    +0.000 A 
ATOM      5  N   UNL     1       1.400   8.307  20.235  0.00  0.00    +0.000 NA
ATOM      6  N   UNL     1       1.853   8.315  18.930  0.00  0.00    +0.000 N 
ATOM      7  C   UNL     1       2.655   7.311  18.397  0.00  0.00    +0.000 A 
ATOM      8  O   UNL     1       3.302   7.435  17.358  0.00  0.00    +0.000 OA
ENDROOT
BRANCH   1   9
ATOM      9  C   UNL     1       3.237   4.820  18.370  0.00  0.00    +0.000 C 
BRANCH   9  10
ATOM     10  C   UNL     1       4.587   5.074  17.725  0.00  0.00    +0.000 A 
ATOM     11  C   UNL     1       5.734   5.397  18.453  0.00  0.00    +0.000 A 
ATOM     12  C   UNL     1       6.942   5.558  17.774  0.00  0.00    +0.000 A 
ATOM     13  C   UNL     1       6.986   5.406  16.396  0.00  0.00    +0.000 A 
ATOM     14  C   UNL     1       5.806   5.090  15.745  0.00  0.00    +0.000 A 
ATOM     15  N   UNL     1       4.624   4.917  16.373  0.00  0.00    +0.000 NA
ENDBRANCH   9  10
BRANCH   9  16
ATOM     16  C   UNL     1       2.154   4.218  17.480  0.00  0.00    +0.000 C 
ATOM     17  O   UNL     1       1.096   4.765  17.190  0.00  0.00    +0.000 OA
BRANCH  16  18
ATOM     18  O   UNL     1       2.418   2.901  17.223  0.00  0.00    +0.000 OA
BRANCH  18  20
ATOM     19  C   UNL     1       3.712   1.321  18.483  0.00  0.00    +0.000 C 
ATOM     20  C   UNL     1       2.381   2.047  18.377  0.00  0.00    +0.000 C 
ENDBRANCH  18  20
ENDBRANCH  16  18
ENDBRANCH   9  16
ENDBRANCH   1   9
BRANCH   6  21
ATOM     21  C   UNL     1       1.708   9.571  18.199  0.00  0.00    +0.000 C 
BRANCH  21  22
ATOM     22  C   UNL     1       0.693  10.545  18.780  0.00  0.00    +0.000 A 
ATOM     23  C   UNL     1       1.161  11.504  19.698  0.00  0.00    +0.000 A 
ATOM     24  C   UNL     1       0.351  12.561  20.101  0.00  0.00    +0.000 A 
ATOM     25  C   UNL     1      -0.928  12.693  19.572  0.00  0.00    +0.000 A 
ATOM     26  C   UNL     1      -1.443  11.735  18.687  0.00  0.00    +0.000 A 
ATOM     27  C   UNL     1      -2.729  11.901  18.144  0.00  0.00    +0.000 A 
ATOM     28  C   UNL     1      -3.285  10.938  17.305  0.00  0.00    +0.000 A 
ATOM     29  C   UNL     1      -2.572   9.783  17.023  0.00  0.00    +0.000 A 
ATOM     30  C   UNL     1      -1.275   9.625  17.522  0.00  0.00    +0.000 A 
ATOM     31  C   UNL     1      -0.658  10.609  18.329  0.00  0.00    +0.000 A 
ENDBRANCH  21  22
ENDBRANCH   6  21
TORSDOF 7
ENDMDL
MODEL 7
REMARK VINA RESULT:      -8.2      1.732      3.780
REMARK  Name = 
REMARK  8 active torsions:
REMARK  status: ('A' for Active; 'I' for Inactive)
REMARK    1  A    between atoms: C_1  and  C_2
REMARK    2  A    between atoms: C_2  and  O_3
REMARK    3  A    between atoms: O_3  and  C_4
REMARK    4  A    between atoms: C_4  and  C_6
REMARK    5  A    between atoms: C_6  and  C_7
REMARK    6  A    between atoms: C_6  and  C_13
REMARK    7  A    between atoms: N_18  and  C_19
REMARK    8  A    between atoms: C_19  and  C_20
REMARK                            x       y       z     vdW  Elec       q    Type
REMARK                         _______ _______ _______ _____ _____    ______ ____
ROOT
ATOM      1  C   UNL     1       2.766   5.784  19.105  0.00  0.00    +0.000 A 
ATOM      2  C   UNL     1       2.238   5.851  20.331  0.00  0.00    +0.000 A 
ATOM      3 CL   UNL     1       2.049   4.526  21.409  0.00  0.00    +0.000 Cl
ATOM      4  C   UNL     1       1.747   7.153  20.804  0.00  0.00    +0.000 A 
ATOM      5  N   UNL     1       1.632   8.216  20.083  0.00  0.00    +0.000 NA
ATOM      6  N   UNL     1       2.075   8.121  18.777  0.00  0.00    +0.000 N 
ATOM      7  C   UNL     1       2.810   7.041  18.301  0.00  0.00    +0.000 A 
ATOM      8  O   UNL     1       3.456   7.065  17.253  0.00  0.00    +0.000 OA
ENDROOT
BRANCH   1   9
ATOM      9  C   UNL     1       3.239   4.522  18.415  0.00  0.00    +0.000 C 
BRANCH   9  10
ATOM     10  C   UNL     1       4.629   4.631  17.817  0.00  0.00    +0.000 A 
ATOM     11  C   UNL     1       5.766   4.929  18.572  0.00  0.00    +0.000 A 
ATOM     12  C   UNL     1       7.009   4.953  17.940  0.00  0.00    +0.000 A 
ATOM     13  C   UNL     1       7.099   4.692  16.581  0.00  0.00    +0.000 A 
ATOM     14  C   UNL     1       5.927   4.409  15.900  0.00  0.00    +0.000 A 
ATOM     15  N   UNL     1       4.711   4.367  16.483  0.00  0.00    +0.000 NA
ENDBRANCH   9  10
BRANCH   9  16
ATOM     16  C   UNL     1       2.141   3.980  17.505  0.00  0.00    +0.000 C 
ATOM     17  O   UNL     1       1.182   4.627  17.096  0.00  0.00    +0.000 OA
BRANCH  16  18
ATOM     18  O   UNL     1       2.246   2.623  17.378  0.00  0.00    +0.000 OA
BRANCH  18  20
ATOM     19  C   UNL     1       0.702   2.069  19.129  0.00  0.00    +0.000 C 
ATOM     20  C   UNL     1       2.119   1.895  18.609  0.00  0.00    +0.000 C 
ENDBRANCH  18  20
ENDBRANCH  16  18
ENDBRANCH   9  16
ENDBRANCH   1   9
BRANCH   6  21
ATOM     21  C   UNL     1       2.001   9.340  17.975  0.00  0.00    +0.000 C 
BRANCH  21  22
ATOM     22  C   UNL     1       0.728  10.155  18.151  0.00  0.00    +0.000 A 
ATOM     23  C   UNL     1      -0.478   9.583  17.704  0.00  0.00    +0.000 A 
ATOM     24  C   UNL     1      -1.703  10.159  18.026  0.00  0.00    +0.000 A 
ATOM     25  C   UNL     1      -1.744  11.299  18.821  0.00  0.00    +0.000 A 
ATOM     26  C   UNL     1      -0.562  11.920  19.250  0.00  0.00    +0.000 A 
ATOM     27  C   UNL     1      -0.626  13.055  20.075  0.00  0.00    +0.000 A 
ATOM     28  C   UNL     1       0.531  13.723  20.472  0.00  0.00    +0.000 A 
ATOM     29  C   UNL     1       1.765  13.277  20.022  0.00  0.00    +0.000 A 
ATOM     30  C   UNL     1       1.845  12.123  19.236  0.00  0.00    +0.000 A 
ATOM     31  C   UNL     1       0.696  11.389  18.863  0.00  0.00    +0.000 A 
ENDBRANCH  21  22
ENDBRANCH   6  21
TORSDOF 7
ENDMDL
MODEL 8
REMARK VINA RESULT:      -8.2      1.182      2.530
REMARK  Name = 
REMARK  8 active torsions:
REMARK  status: ('A' for Active; 'I' for Inactive)
REMARK    1  A    between atoms: C_1  and  C_2
REMARK    2  A    between atoms: C_2  and  O_3
REMARK    3  A    between atoms: O_3  and  C_4
REMARK    4  A    between atoms: C_4  and  C_6
REMARK    5  A    between atoms: C_6  and  C_7
REMARK    6  A    between atoms: C_6  and  C_13
REMARK    7  A    between atoms: N_18  and  C_19
REMARK    8  A    between atoms: C_19  and  C_20
REMARK                            x       y       z     vdW  Elec       q    Type
REMARK                         _______ _______ _______ _____ _____    ______ ____
ROOT
ATOM      1  C   UNL     1       2.826   6.612  18.999  0.00  0.00    +0.000 A 
ATOM      2  C   UNL     1       2.284   6.533  20.218  0.00  0.00    +0.000 A 
ATOM      3 CL   UNL     1       2.329   5.154  21.242  0.00  0.00    +0.000 Cl
ATOM      4  C   UNL     1       1.558   7.704  20.730  0.00  0.00    +0.000 A 
ATOM      5  N   UNL     1       1.258   8.756  20.048  0.00  0.00    +0.000 NA
ATOM      6  N   UNL     1       1.723   8.796  18.747  0.00  0.00    +0.000 N 
ATOM      7  C   UNL     1       2.648   7.887  18.242  0.00  0.00    +0.000 A 
ATOM      8  O   UNL     1       3.287   8.070  17.207  0.00  0.00    +0.000 OA
ENDROOT
BRANCH   1   9
ATOM      9  C   UNL     1       3.528   5.486  18.269  0.00  0.00    +0.000 C 
BRANCH   9  10
ATOM     10  C   UNL     1       2.846   4.138  18.416  0.00  0.00    +0.000 A 
ATOM     11  C   UNL     1       1.480   3.945  18.202  0.00  0.00    +0.000 A 
ATOM     12  C   UNL     1       0.955   2.657  18.308  0.00  0.00    +0.000 A 
ATOM     13  C   UNL     1       1.788   1.595  18.629  0.00  0.00    +0.000 A 
ATOM     14  C   UNL     1       3.130   1.868  18.829  0.00  0.00    +0.000 A 
ATOM     15  N   UNL     1       3.671   3.100  18.724  0.00  0.00    +0.000 NA
ENDBRANCH   9  10
BRANCH   9  16
ATOM     16  C   UNL     1       5.026   5.531  18.554  0.00  0.00    +0.000 C 
ATOM     17  O   UNL     1       5.535   5.429  19.666  0.00  0.00    +0.000 OA
BRANCH  16  18
ATOM     18  O   UNL     1       5.718   5.917  17.440  0.00  0.00    +0.000 OA
BRANCH  18  20
ATOM     19  C   UNL     1       7.511   7.511  17.489  0.00  0.00    +0.000 C 
ATOM     20  C   UNL     1       7.136   6.045  17.629  0.00  0.00    +0.000 C 
ENDBRANCH  18  20
ENDBRANCH  16  18
ENDBRANCH   9  16
ENDBRANCH   1   9
BRANCH   6  21
ATOM     21  C   UNL     1       1.435  10.011  17.990  0.00  0.00    +0.000 C 
BRANCH  21  22
ATOM     22  C   UNL     1       0.148  10.725  18.376  0.00  0.00    +0.000 A 
ATOM     23  C   UNL     1      -1.057  10.232  17.842  0.00  0.00    +0.000 A 
ATOM     24  C   UNL     1      -2.286  10.682  18.316  0.00  0.00    +0.000 A 
ATOM     25  C   UNL     1      -2.329  11.612  19.349  0.00  0.00    +0.000 A 
ATOM     26  C   UNL     1      -1.151  12.156  19.878  0.00  0.00    +0.000 A 
ATOM     27  C   UNL     1      -1.217  13.075  20.939  0.00  0.00    +0.000 A 
ATOM     28  C   UNL     1      -0.065  13.672  21.448  0.00  0.00    +0.000 A 
ATOM     29  C   UNL     1       1.165  13.378  20.878  0.00  0.00    +0.000 A 
ATOM     30  C   UNL     1       1.249  12.433  19.850  0.00  0.00    +0.000 A 
ATOM     31  C   UNL     1       0.107  11.766  19.350  0.00  0.00    +0.000 A 
ENDBRANCH  21  22
ENDBRANCH   6  21
TORSDOF 7
ENDMDL
MODEL 9
REMARK VINA RESULT:      -8.1      2.284      3.706
REMARK  Name = 
REMARK  8 active torsions:
REMARK  status: ('A' for Active; 'I' for Inactive)
REMARK    1  A    between atoms: C_1  and  C_2
REMARK    2  A    between atoms: C_2  and  O_3
REMARK    3  A    between atoms: O_3  and  C_4
REMARK    4  A    between atoms: C_4  and  C_6
REMARK    5  A    between atoms: C_6  and  C_7
REMARK    6  A    between atoms: C_6  and  C_13
REMARK    7  A    between atoms: N_18  and  C_19
REMARK    8  A    between atoms: C_19  and  C_20
REMARK                            x       y       z     vdW  Elec       q    Type
REMARK                         _______ _______ _______ _____ _____    ______ ____
ROOT
ATOM      1  C   UNL     1       3.016   6.421  18.771  0.00  0.00    +0.000 A 
ATOM      2  C   UNL     1       3.318   7.206  17.731  0.00  0.00    +0.000 A 
ATOM      3 CL   UNL     1       4.425   6.818  16.477  0.00  0.00    +0.000 Cl
ATOM      4  C   UNL     1       2.679   8.527  17.654  0.00  0.00    +0.000 A 
ATOM      5  N   UNL     1       1.969   9.071  18.582  0.00  0.00    +0.000 NA
ATOM      6  N   UNL     1       1.745   8.305  19.711  0.00  0.00    +0.000 N 
ATOM      7  C   UNL     1       2.055   6.951  19.783  0.00  0.00    +0.000 A 
ATOM      8  O   UNL     1       1.607   6.195  20.644  0.00  0.00    +0.000 OA
ENDROOT
BRANCH   1   9
ATOM      9  C   UNL     1       3.637   5.073  19.069  0.00  0.00    +0.000 C 
BRANCH   9  10
ATOM     10  C   UNL     1       5.111   4.984  18.721  0.00  0.00    +0.000 A 
ATOM     11  C   UNL     1       5.592   4.324  17.588  0.00  0.00    +0.000 A 
ATOM     12  C   UNL     1       6.961   4.344  17.325  0.00  0.00    +0.000 A 
ATOM     13  C   UNL     1       7.822   5.005  18.188  0.00  0.00    +0.000 A 
ATOM     14  C   UNL     1       7.270   5.632  19.292  0.00  0.00    +0.000 A 
ATOM     15  N   UNL     1       5.950   5.641  19.570  0.00  0.00    +0.000 NA
ENDBRANCH   9  10
BRANCH   9  16
ATOM     16  C   UNL     1       2.740   3.955  18.545  0.00  0.00    +0.000 C 
ATOM     17  O   UNL     1       1.968   4.059  17.597  0.00  0.00    +0.000 OA
BRANCH  16  18
ATOM     18  O   UNL     1       2.747   2.889  19.401  0.00  0.00    +0.000 OA
BRANCH  18  20
ATOM     19  C   UNL     1       1.707   2.811  21.562  0.00  0.00    +0.000 C 
ATOM     20  C   UNL     1       1.497   2.648  20.066  0.00  0.00    +0.000 C 
ENDBRANCH  18  20
ENDBRANCH  16  18
ENDBRANCH   9  16
ENDBRANCH   1   9
BRANCH   6  21
ATOM     21  C   UNL     1       0.892   8.896  20.739  0.00  0.00    +0.000 C 
BRANCH  21  22
ATOM     22  C   UNL     1       0.451  10.327  20.471  0.00  0.00    +0.000 A 
ATOM     23  C   UNL     1       1.131  11.357  21.149  0.00  0.00    +0.000 A 
ATOM     24  C   UNL     1       0.942  12.689  20.796  0.00  0.00    +0.000 A 
ATOM     25  C   UNL     1       0.092  13.012  19.744  0.00  0.00    +0.000 A 
ATOM     26  C   UNL     1      -0.634  12.018  19.074  0.00  0.00    +0.000 A 
ATOM     27  C   UNL     1      -1.467  12.364  17.997  0.00  0.00    +0.000 A 
ATOM     28  C   UNL     1      -2.240  11.403  17.348  0.00  0.00    +0.000 A 
ATOM     29  C   UNL     1      -2.210  10.089  17.790  0.00  0.00    +0.000 A 
ATOM     30  C   UNL     1      -1.353   9.724  18.833  0.00  0.00    +0.000 A 
ATOM     31  C   UNL     1      -0.512  10.662  19.475  0.00  0.00    +0.000 A 
ENDBRANCH  21  22
ENDBRANCH   6  21
TORSDOF 7
ENDMDL
