MODEL 1
REMARK VINA RESULT:      -7.0      0.000      0.000
REMARK  Name = 
REMARK  9 active torsions:
REMARK  status: ('A' for Active; 'I' for Inactive)
REMARK    1  A    between atoms: C_1  and  O_2
REMARK    2  A    between atoms: O_2  and  C_3
REMARK    3  A    between atoms: C_6  and  C_7
REMARK    4  A    between atoms: C_7  and  N_9
REMARK    5  A    between atoms: C_13  and  C_14
REMARK    6  A    between atoms: C_19  and  O_20
REMARK    7  A    between atoms: O_20  and  C_21
REMARK    8  A    between atoms: C_22  and  O_23
REMARK    9  A    between atoms: O_23  and  C_24
REMARK                            x       y       z     vdW  Elec       q    Type
REMARK                         _______ _______ _______ _____ _____    ______ ____
ROOT
ATOM      1  N   UNL     1       2.366   8.312  19.040  0.00  0.00    +0.000 NA
ATOM      2  C   UNL     1       1.295   9.053  18.916  0.00  0.00    +0.000 C 
ATOM      3  C   UNL     1       0.516   9.128  17.596  0.00  0.00    +0.000 C 
ATOM      4  C   UNL     1      -0.876   9.705  17.727  0.00  0.00    +0.000 C 
ATOM      5  C   UNL     1      -0.977  10.768  18.776  0.00  0.00    +0.000 C 
ATOM      6  C   UNL     1      -0.032  10.934  19.716  0.00  0.00    +0.000 C 
ATOM      7  C   UNL     1      -0.204  11.853  20.857  0.00  0.00    +0.000 A 
ATOM      8  C   UNL     1       0.277  13.159  20.973  0.00  0.00    +0.000 A 
ATOM      9  C   UNL     1       0.021  13.878  22.150  0.00  0.00    +0.000 A 
ATOM     10  C   UNL     1      -0.840  13.329  23.130  0.00  0.00    +0.000 A 
ATOM     11  C   UNL     1      -1.234  11.990  23.038  0.00  0.00    +0.000 A 
ATOM     12  C   UNL     1      -0.776  11.225  21.972  0.00  0.00    +0.000 A 
ATOM     13  C   UNL     1      -0.675   9.711  21.975  0.00  0.00    +0.000 C 
ATOM     14  C   UNL     1       0.728   9.322  21.352  0.00  0.00    +0.000 C 
ATOM     15  N   UNL     1       0.822   9.856  19.963  0.00  0.00    +0.000 N 
ENDROOT
BRANCH   1  16
ATOM     16  C   UNL     1       2.899   7.740  17.900  0.00  0.00    +0.000 C 
ATOM     17  O   UNL     1       3.417   8.349  16.971  0.00  0.00    +0.000 OA
BRANCH  16  21
ATOM     18  C   UNL     1       2.886   3.473  17.663  0.00  0.00    +0.000 A 
ATOM     19  C   UNL     1       1.770   4.156  18.148  0.00  0.00    +0.000 A 
ATOM     20  C   UNL     1       1.783   5.547  18.237  0.00  0.00    +0.000 A 
ATOM     21  C   UNL     1       2.934   6.255  17.855  0.00  0.00    +0.000 A 
ATOM     22  C   UNL     1       4.063   5.573  17.412  0.00  0.00    +0.000 A 
ATOM     23  C   UNL     1       4.043   4.179  17.315  0.00  0.00    +0.000 A 
BRANCH  18  25
ATOM     24  C   UNL     1       3.556   1.391  18.530  0.00  0.00    +0.000 C 
ATOM     25  O   UNL     1       2.758   2.113  17.600  0.00  0.00    +0.000 OA
ENDBRANCH  18  25
ENDBRANCH  16  21
ENDBRANCH   1  16
BRANCH   5  26
ATOM     26  C   UNL     1      -2.295  11.525  18.756  0.00  0.00    +0.000 C 
ATOM     27  N   UNL     1      -3.387  12.153  18.740  0.00  0.00    +0.000 NA
ENDBRANCH   5  26
BRANCH   9  28
ATOM     28  O   UNL     1       0.561  15.102  22.464  0.00  0.00    +0.000 OA
ATOM     29  C   UNL     1       0.465  16.149  21.510  0.00  0.00    +0.000 C 
ENDBRANCH   9  28
BRANCH  10  30
ATOM     30  O   UNL     1      -1.156  14.145  24.189  0.00  0.00    +0.000 OA
ATOM     31  C   UNL     1      -2.479  14.662  24.230  0.00  0.00    +0.000 C 
ENDBRANCH  10  30
TORSDOF 6
ENDMDL
MODEL 2
REMARK VINA RESULT:      -6.9      1.112      1.180
REMARK  Name = 
REMARK  9 active torsions:
REMARK  status: ('A' for Active; 'I' for Inactive)
REMARK    1  A    between atoms: C_1  and  O_2
REMARK    2  A    between atoms: O_2  and  C_3
REMARK    3  A    between atoms: C_6  and  C_7
REMARK    4  A    between atoms: C_7  and  N_9
REMARK    5  A    between atoms: C_13  and  C_14
REMARK    6  A    between atoms: C_19  and  O_20
REMARK    7  A    between atoms: O_20  and  C_21
REMARK    8  A    between atoms: C_22  and  O_23
REMARK    9  A    between atoms: O_23  and  C_24
REMARK                            x       y       z     vdW  Elec       q    Type
REMARK                         _______ _______ _______ _____ _____    ______ ____
ROOT
ATOM      1  N   UNL     1       1.791   8.986  19.548  0.00  0.00    +0.000 NA
ATOM      2  C   UNL     1       0.702   9.704  19.463  0.00  0.00    +0.000 C 
ATOM      3  C   UNL     1      -0.194   9.665  18.217  0.00  0.00    +0.000 C 
ATOM      4  C   UNL     1      -1.577  10.239  18.428  0.00  0.00    +0.000 C 
ATOM      5  C   UNL     1      -1.600  11.384  19.392  0.00  0.00    +0.000 C 
ATOM      6  C   UNL     1      -0.577  11.634  20.226  0.00  0.00    +0.000 C 
ATOM      7  C   UNL     1      -0.661  12.642  21.300  0.00  0.00    +0.000 A 
ATOM      8  C   UNL     1      -0.192  13.957  21.266  0.00  0.00    +0.000 A 
ATOM      9  C   UNL     1      -0.353  14.767  22.399  0.00  0.00    +0.000 A 
ATOM     10  C   UNL     1      -1.113  14.293  23.495  0.00  0.00    +0.000 A 
ATOM     11  C   UNL     1      -1.492  12.947  23.547  0.00  0.00    +0.000 A 
ATOM     12  C   UNL     1      -1.121  12.102  22.509  0.00  0.00    +0.000 A 
ATOM     13  C   UNL     1      -0.995  10.594  22.626  0.00  0.00    +0.000 C 
ATOM     14  C   UNL     1       0.352  10.168  21.910  0.00  0.00    +0.000 C 
ATOM     15  N   UNL     1       0.312  10.586  20.481  0.00  0.00    +0.000 N 
ENDROOT
BRANCH   1  16
ATOM     16  C   UNL     1       2.229   8.327  18.414  0.00  0.00    +0.000 C 
ATOM     17  O   UNL     1       2.390   8.836  17.311  0.00  0.00    +0.000 OA
BRANCH  16  21
ATOM     18  C   UNL     1       3.239   4.204  18.908  0.00  0.00    +0.000 A 
ATOM     19  C   UNL     1       2.584   4.896  19.927  0.00  0.00    +0.000 A 
ATOM     20  C   UNL     1       2.269   6.246  19.768  0.00  0.00    +0.000 A 
ATOM     21  C   UNL     1       2.633   6.907  18.585  0.00  0.00    +0.000 A 
ATOM     22  C   UNL     1       3.325   6.230  17.586  0.00  0.00    +0.000 A 
ATOM     23  C   UNL     1       3.630   4.875  17.744  0.00  0.00    +0.000 A 
BRANCH  18  25
ATOM     24  C   UNL     1       3.324   2.017  18.044  0.00  0.00    +0.000 C 
ATOM     25  O   UNL     1       3.483   2.882  19.162  0.00  0.00    +0.000 OA
ENDBRANCH  18  25
ENDBRANCH  16  21
ENDBRANCH   1  16
BRANCH   5  26
ATOM     26  C   UNL     1      -2.926  12.125  19.431  0.00  0.00    +0.000 C 
ATOM     27  N   UNL     1      -4.027  12.739  19.464  0.00  0.00    +0.000 NA
ENDBRANCH   5  26
BRANCH   9  28
ATOM     28  O   UNL     1       0.194  16.017  22.563  0.00  0.00    +0.000 OA
ATOM     29  C   UNL     1       1.474  16.275  22.005  0.00  0.00    +0.000 C 
ENDBRANCH   9  28
BRANCH  10  30
ATOM     30  O   UNL     1      -1.346  15.190  24.509  0.00  0.00    +0.000 OA
ATOM     31  C   UNL     1      -2.560  15.041  25.233  0.00  0.00    +0.000 C 
ENDBRANCH  10  30
TORSDOF 6
ENDMDL
MODEL 3
REMARK VINA RESULT:      -6.9      1.353      1.686
REMARK  Name = 
REMARK  9 active torsions:
REMARK  status: ('A' for Active; 'I' for Inactive)
REMARK    1  A    between atoms: C_1  and  O_2
REMARK    2  A    between atoms: O_2  and  C_3
REMARK    3  A    between atoms: C_6  and  C_7
REMARK    4  A    between atoms: C_7  and  N_9
REMARK    5  A    between atoms: C_13  and  C_14
REMARK    6  A    between atoms: C_19  and  O_20
REMARK    7  A    between atoms: O_20  and  C_21
REMARK    8  A    between atoms: C_22  and  O_23
REMARK    9  A    between atoms: O_23  and  C_24
REMARK                            x       y       z     vdW  Elec       q    Type
REMARK                         _______ _______ _______ _____ _____    ______ ____
ROOT
ATOM      1  N   UNL     1       1.696   9.260  19.512  0.00  0.00    +0.000 NA
ATOM      2  C   UNL     1       0.578   9.938  19.464  0.00  0.00    +0.000 C 
ATOM      3  C   UNL     1      -0.363   9.854  18.254  0.00  0.00    +0.000 C 
ATOM      4  C   UNL     1      -1.757  10.380  18.514  0.00  0.00    +0.000 C 
ATOM      5  C   UNL     1      -1.784  11.532  19.469  0.00  0.00    +0.000 C 
ATOM      6  C   UNL     1      -0.740  11.827  20.260  0.00  0.00    +0.000 C 
ATOM      7  C   UNL     1      -0.818  12.842  21.328  0.00  0.00    +0.000 A 
ATOM      8  C   UNL     1      -0.400  14.173  21.265  0.00  0.00    +0.000 A 
ATOM      9  C   UNL     1      -0.546  14.987  22.397  0.00  0.00    +0.000 A 
ATOM     10  C   UNL     1      -1.245  14.497  23.525  0.00  0.00    +0.000 A 
ATOM     11  C   UNL     1      -1.572  13.139  23.604  0.00  0.00    +0.000 A 
ATOM     12  C   UNL     1      -1.211  12.298  22.559  0.00  0.00    +0.000 A 
ATOM     13  C   UNL     1      -1.025  10.796  22.683  0.00  0.00    +0.000 C 
ATOM     14  C   UNL     1       0.307  10.412  21.919  0.00  0.00    +0.000 C 
ATOM     15  N   UNL     1       0.197  10.815  20.488  0.00  0.00    +0.000 N 
ENDROOT
BRANCH   1  16
ATOM     16  C   UNL     1       2.113   8.607  18.367  0.00  0.00    +0.000 C 
ATOM     17  O   UNL     1       2.092   9.070  17.233  0.00  0.00    +0.000 OA
BRANCH  16  21
ATOM     18  C   UNL     1       4.033   4.830  18.927  0.00  0.00    +0.000 A 
ATOM     19  C   UNL     1       4.351   5.626  17.827  0.00  0.00    +0.000 A 
ATOM     20  C   UNL     1       3.712   6.851  17.639  0.00  0.00    +0.000 A 
ATOM     21  C   UNL     1       2.733   7.269  18.554  0.00  0.00    +0.000 A 
ATOM     22  C   UNL     1       2.383   6.457  19.628  0.00  0.00    +0.000 A 
ATOM     23  C   UNL     1       3.033   5.233  19.818  0.00  0.00    +0.000 A 
BRANCH  18  25
ATOM     24  C   UNL     1       3.934   2.495  19.203  0.00  0.00    +0.000 C 
ATOM     25  O   UNL     1       4.732   3.659  19.024  0.00  0.00    +0.000 OA
ENDBRANCH  18  25
ENDBRANCH  16  21
ENDBRANCH   1  16
BRANCH   5  26
ATOM     26  C   UNL     1      -3.134  12.225  19.554  0.00  0.00    +0.000 C 
ATOM     27  N   UNL     1      -4.254  12.800  19.625  0.00  0.00    +0.000 NA
ENDBRANCH   5  26
BRANCH   9  28
ATOM     28  O   UNL     1      -0.039  16.259  22.529  0.00  0.00    +0.000 OA
ATOM     29  C   UNL     1       1.365  16.416  22.670  0.00  0.00    +0.000 C 
ENDBRANCH   9  28
BRANCH  10  30
ATOM     30  O   UNL     1      -1.471  15.395  24.541  0.00  0.00    +0.000 OA
ATOM     31  C   UNL     1      -2.557  15.118  25.413  0.00  0.00    +0.000 C 
ENDBRANCH  10  30
TORSDOF 6
ENDMDL
MODEL 4
REMARK VINA RESULT:      -6.8      2.883      9.549
REMARK  Name = 
REMARK  9 active torsions:
REMARK  status: ('A' for Active; 'I' for Inactive)
REMARK    1  A    between atoms: C_1  and  O_2
REMARK    2  A    between atoms: O_2  and  C_3
REMARK    3  A    between atoms: C_6  and  C_7
REMARK    4  A    between atoms: C_7  and  N_9
REMARK    5  A    between atoms: C_13  and  C_14
REMARK    6  A    between atoms: C_19  and  O_20
REMARK    7  A    between atoms: O_20  and  C_21
REMARK    8  A    between atoms: C_22  and  O_23
REMARK    9  A    between atoms: O_23  and  C_24
REMARK                            x       y       z     vdW  Elec       q    Type
REMARK                         _______ _______ _______ _____ _____    ______ ____
ROOT
ATOM      1  N   UNL     1       1.719   9.099  20.685  0.00  0.00    +0.000 NA
ATOM      2  C   UNL     1       1.803   7.814  20.455  0.00  0.00    +0.000 C 
ATOM      3  C   UNL     1       0.934   6.803  21.216  0.00  0.00    +0.000 C 
ATOM      4  C   UNL     1       0.874   5.433  20.578  0.00  0.00    +0.000 C 
ATOM      5  C   UNL     1       2.150   5.041  19.901  0.00  0.00    +0.000 C 
ATOM      6  C   UNL     1       3.102   5.939  19.599  0.00  0.00    +0.000 C 
ATOM      7  C   UNL     1       4.278   5.599  18.776  0.00  0.00    +0.000 A 
ATOM      8  C   UNL     1       5.557   5.261  19.224  0.00  0.00    +0.000 A 
ATOM      9  C   UNL     1       6.557   4.980  18.281  0.00  0.00    +0.000 A 
ATOM     10  C   UNL     1       6.220   4.896  16.910  0.00  0.00    +0.000 A 
ATOM     11  C   UNL     1       4.961   5.327  16.475  0.00  0.00    +0.000 A 
ATOM     12  C   UNL     1       4.059   5.820  17.409  0.00  0.00    +0.000 A 
ATOM     13  C   UNL     1       2.912   6.761  17.089  0.00  0.00    +0.000 C 
ATOM     14  C   UNL     1       2.899   7.896  18.193  0.00  0.00    +0.000 C 
ATOM     15  N   UNL     1       2.720   7.281  19.539  0.00  0.00    +0.000 N 
ENDROOT
BRANCH   1  16
ATOM     16  C   UNL     1       0.966   9.522  21.765  0.00  0.00    +0.000 C 
ATOM     17  O   UNL     1       1.202   9.272  22.940  0.00  0.00    +0.000 OA
BRANCH  16  21
ATOM     18  C   UNL     1      -2.198  12.285  20.977  0.00  0.00    +0.000 A 
ATOM     19  C   UNL     1      -1.863  11.952  22.290  0.00  0.00    +0.000 A 
ATOM     20  C   UNL     1      -0.840  11.039  22.543  0.00  0.00    +0.000 A 
ATOM     21  C   UNL     1      -0.162  10.443  21.468  0.00  0.00    +0.000 A 
ATOM     22  C   UNL     1      -0.524  10.741  20.158  0.00  0.00    +0.000 A 
ATOM     23  C   UNL     1      -1.544  11.664  19.908  0.00  0.00    +0.000 A 
BRANCH  18  25
ATOM     24  C   UNL     1      -4.235  13.110  21.818  0.00  0.00    +0.000 C 
ATOM     25  O   UNL     1      -3.202  13.204  20.844  0.00  0.00    +0.000 OA
ENDBRANCH  18  25
ENDBRANCH  16  21
ENDBRANCH   1  16
BRANCH   5  26
ATOM     26  C   UNL     1       2.192   3.584  19.470  0.00  0.00    +0.000 C 
ATOM     27  N   UNL     1       2.227   2.375  19.113  0.00  0.00    +0.000 NA
ENDBRANCH   5  26
BRANCH   9  28
ATOM     28  O   UNL     1       7.887   4.790  18.570  0.00  0.00    +0.000 OA
ATOM     29  C   UNL     1       8.464   5.541  19.628  0.00  0.00    +0.000 C 
ENDBRANCH   9  28
BRANCH  10  30
ATOM     30  O   UNL     1       7.218   4.481  16.061  0.00  0.00    +0.000 OA
ATOM     31  C   UNL     1       7.066   4.801  14.685  0.00  0.00    +0.000 C 
ENDBRANCH  10  30
TORSDOF 6
ENDMDL
MODEL 5
REMARK VINA RESULT:      -6.8      0.647      1.040
REMARK  Name = 
REMARK  9 active torsions:
REMARK  status: ('A' for Active; 'I' for Inactive)
REMARK    1  A    between atoms: C_1  and  O_2
REMARK    2  A    between atoms: O_2  and  C_3
REMARK    3  A    between atoms: C_6  and  C_7
REMARK    4  A    between atoms: C_7  and  N_9
REMARK    5  A    between atoms: C_13  and  C_14
REMARK    6  A    between atoms: C_19  and  O_20
REMARK    7  A    between atoms: O_20  and  C_21
REMARK    8  A    between atoms: C_22  and  O_23
REMARK    9  A    between atoms: O_23  and  C_24
REMARK                            x       y       z     vdW  Elec       q    Type
REMARK                         _______ _______ _______ _____ _____    ______ ____
ROOT
ATOM      1  N   UNL     1       2.150   8.570  19.179  0.00  0.00    +0.000 NA
ATOM      2  C   UNL     1       1.073   9.305  19.080  0.00  0.00    +0.000 C 
ATOM      3  C   UNL     1       0.231   9.331  17.797  0.00  0.00    +0.000 C 
ATOM      4  C   UNL     1      -1.154   9.911  17.975  0.00  0.00    +0.000 C 
ATOM      5  C   UNL     1      -1.206  11.013  18.988  0.00  0.00    +0.000 C 
ATOM      6  C   UNL     1      -0.218  11.214  19.874  0.00  0.00    +0.000 C 
ATOM      7  C   UNL     1      -0.337  12.174  20.987  0.00  0.00    +0.000 A 
ATOM      8  C   UNL     1       0.146  13.484  21.031  0.00  0.00    +0.000 A 
ATOM      9  C   UNL     1      -0.054  14.245  22.192  0.00  0.00    +0.000 A 
ATOM     10  C   UNL     1      -0.865  13.733  23.232  0.00  0.00    +0.000 A 
ATOM     11  C   UNL     1      -1.260  12.391  23.209  0.00  0.00    +0.000 A 
ATOM     12  C   UNL     1      -0.853  11.588  22.151  0.00  0.00    +0.000 A 
ATOM     13  C   UNL     1      -0.747  10.075  22.205  0.00  0.00    +0.000 C 
ATOM     14  C   UNL     1       0.624   9.664  21.529  0.00  0.00    +0.000 C 
ATOM     15  N   UNL     1       0.649  10.146  20.119  0.00  0.00    +0.000 N 
ENDROOT
BRANCH   1  16
ATOM     16  C   UNL     1       2.630   7.956  18.036  0.00  0.00    +0.000 C 
ATOM     17  O   UNL     1       2.947   8.527  17.000  0.00  0.00    +0.000 OA
BRANCH  16  21
ATOM     18  C   UNL     1       3.377   3.766  18.424  0.00  0.00    +0.000 A 
ATOM     19  C   UNL     1       4.431   4.678  18.473  0.00  0.00    +0.000 A 
ATOM     20  C   UNL     1       4.186   6.043  18.331  0.00  0.00    +0.000 A 
ATOM     21  C   UNL     1       2.873   6.493  18.120  0.00  0.00    +0.000 A 
ATOM     22  C   UNL     1       1.825   5.582  18.028  0.00  0.00    +0.000 A 
ATOM     23  C   UNL     1       2.074   4.214  18.180  0.00  0.00    +0.000 A 
BRANCH  18  25
ATOM     24  C   UNL     1       4.358   2.157  19.832  0.00  0.00    +0.000 C 
ATOM     25  O   UNL     1       3.728   2.455  18.593  0.00  0.00    +0.000 OA
ENDBRANCH  18  25
ENDBRANCH  16  21
ENDBRANCH   1  16
BRANCH   5  26
ATOM     26  C   UNL     1      -2.525  11.767  19.003  0.00  0.00    +0.000 C 
ATOM     27  N   UNL     1      -3.620  12.392  19.017  0.00  0.00    +0.000 NA
ENDBRANCH   5  26
BRANCH   9  28
ATOM     28  O   UNL     1       0.498  15.481  22.434  0.00  0.00    +0.000 OA
ATOM     29  C   UNL     1       1.102  16.176  21.353  0.00  0.00    +0.000 C 
ENDBRANCH   9  28
BRANCH  10  30
ATOM     30  O   UNL     1      -1.131  14.587  24.275  0.00  0.00    +0.000 OA
ATOM     31  C   UNL     1      -2.488  14.963  24.467  0.00  0.00    +0.000 C 
ENDBRANCH  10  30
TORSDOF 6
ENDMDL
MODEL 6
REMARK VINA RESULT:      -6.6      1.875      2.193
REMARK  Name = 
REMARK  9 active torsions:
REMARK  status: ('A' for Active; 'I' for Inactive)
REMARK    1  A    between atoms: C_1  and  O_2
REMARK    2  A    between atoms: O_2  and  C_3
REMARK    3  A    between atoms: C_6  and  C_7
REMARK    4  A    between atoms: C_7  and  N_9
REMARK    5  A    between atoms: C_13  and  C_14
REMARK    6  A    between atoms: C_19  and  O_20
REMARK    7  A    between atoms: O_20  and  C_21
REMARK    8  A    between atoms: C_22  and  O_23
REMARK    9  A    between atoms: O_23  and  C_24
REMARK                            x       y       z     vdW  Elec       q    Type
REMARK                         _______ _______ _______ _____ _____    ______ ____
ROOT
ATOM      1  N   UNL     1       1.467   9.637  19.372  0.00  0.00    +0.000 NA
ATOM      2  C   UNL     1       0.278  10.148  19.186  0.00  0.00    +0.000 C 
ATOM      3  C   UNL     1      -0.634   9.672  18.047  0.00  0.00    +0.000 C 
ATOM      4  C   UNL     1      -2.082  10.077  18.200  0.00  0.00    +0.000 C 
ATOM      5  C   UNL     1      -2.256  11.411  18.858  0.00  0.00    +0.000 C 
ATOM      6  C   UNL     1      -1.261  12.004  19.538  0.00  0.00    +0.000 C 
ATOM      7  C   UNL     1      -1.470  13.226  20.339  0.00  0.00    +0.000 A 
ATOM      8  C   UNL     1      -1.211  14.544  19.955  0.00  0.00    +0.000 A 
ATOM      9  C   UNL     1      -1.464  15.580  20.866  0.00  0.00    +0.000 A 
ATOM     10  C   UNL     1      -2.112  15.291  22.091  0.00  0.00    +0.000 A 
ATOM     11  C   UNL     1      -2.278  13.961  22.493  0.00  0.00    +0.000 A 
ATOM     12  C   UNL     1      -1.808  12.946  21.669  0.00  0.00    +0.000 A 
ATOM     13  C   UNL     1      -1.449  11.548  22.140  0.00  0.00    +0.000 C 
ATOM     14  C   UNL     1      -0.072  11.153  21.464  0.00  0.00    +0.000 C 
ATOM     15  N   UNL     1      -0.215  11.192  19.982  0.00  0.00    +0.000 N 
ENDROOT
BRANCH   1  16
ATOM     16  C   UNL     1       1.971   8.785  18.406  0.00  0.00    +0.000 C 
ATOM     17  O   UNL     1       2.358   9.119  17.293  0.00  0.00    +0.000 OA
BRANCH  16  21
ATOM     18  C   UNL     1       2.327   4.689  19.573  0.00  0.00    +0.000 A 
ATOM     19  C   UNL     1       1.989   5.663  20.513  0.00  0.00    +0.000 A 
ATOM     20  C   UNL     1       1.888   7.001  20.132  0.00  0.00    +0.000 A 
ATOM     21  C   UNL     1       2.148   7.363  18.801  0.00  0.00    +0.000 A 
ATOM     22  C   UNL     1       2.527   6.399  17.872  0.00  0.00    +0.000 A 
ATOM     23  C   UNL     1       2.618   5.058  18.255  0.00  0.00    +0.000 A 
BRANCH  18  25
ATOM     24  C   UNL     1       1.268   3.018  20.846  0.00  0.00    +0.000 C 
ATOM     25  O   UNL     1       2.380   3.409  20.051  0.00  0.00    +0.000 OA
ENDBRANCH  18  25
ENDBRANCH  16  21
ENDBRANCH   1  16
BRANCH   5  26
ATOM     26  C   UNL     1      -3.679  11.941  18.801  0.00  0.00    +0.000 C 
ATOM     27  N   UNL     1      -4.860  12.380  18.753  0.00  0.00    +0.000 NA
ENDBRANCH   5  26
BRANCH   9  28
ATOM     28  O   UNL     1      -1.112  16.897  20.686  0.00  0.00    +0.000 OA
ATOM     29  C   UNL     1      -1.663  17.600  19.584  0.00  0.00    +0.000 C 
ENDBRANCH   9  28
BRANCH  10  30
ATOM     30  O   UNL     1      -2.452  16.371  22.870  0.00  0.00    +0.000 OA
ATOM     31  C   UNL     1      -3.839  16.634  23.032  0.00  0.00    +0.000 C 
ENDBRANCH  10  30
TORSDOF 6
ENDMDL
MODEL 7
REMARK VINA RESULT:      -6.6      2.576      9.240
REMARK  Name = 
REMARK  9 active torsions:
REMARK  status: ('A' for Active; 'I' for Inactive)
REMARK    1  A    between atoms: C_1  and  O_2
REMARK    2  A    between atoms: O_2  and  C_3
REMARK    3  A    between atoms: C_6  and  C_7
REMARK    4  A    between atoms: C_7  and  N_9
REMARK    5  A    between atoms: C_13  and  C_14
REMARK    6  A    between atoms: C_19  and  O_20
REMARK    7  A    between atoms: O_20  and  C_21
REMARK    8  A    between atoms: C_22  and  O_23
REMARK    9  A    between atoms: O_23  and  C_24
REMARK                            x       y       z     vdW  Elec       q    Type
REMARK                         _______ _______ _______ _____ _____    ______ ____
ROOT
ATOM      1  N   UNL     1       1.376  10.139  19.631  0.00  0.00    +0.000 NA
ATOM      2  C   UNL     1       1.431   8.882  19.986  0.00  0.00    +0.000 C 
ATOM      3  C   UNL     1       0.739   8.374  21.258  0.00  0.00    +0.000 C 
ATOM      4  C   UNL     1       0.576   6.872  21.318  0.00  0.00    +0.000 C 
ATOM      5  C   UNL     1       1.703   6.129  20.670  0.00  0.00    +0.000 C 
ATOM      6  C   UNL     1       2.567   6.731  19.836  0.00  0.00    +0.000 C 
ATOM      7  C   UNL     1       3.566   5.978  19.054  0.00  0.00    +0.000 A 
ATOM      8  C   UNL     1       4.912   5.778  19.370  0.00  0.00    +0.000 A 
ATOM      9  C   UNL     1       5.715   5.039  18.488  0.00  0.00    +0.000 A 
ATOM     10  C   UNL     1       5.121   4.387  17.382  0.00  0.00    +0.000 A 
ATOM     11  C   UNL     1       3.796   4.675  17.034  0.00  0.00    +0.000 A 
ATOM     12  C   UNL     1       3.085   5.594  17.796  0.00  0.00    +0.000 A 
ATOM     13  C   UNL     1       1.885   6.380  17.302  0.00  0.00    +0.000 C 
ATOM     14  C   UNL     1       2.069   7.882  17.768  0.00  0.00    +0.000 C 
ATOM     15  N   UNL     1       2.161   7.935  19.255  0.00  0.00    +0.000 N 
ENDROOT
BRANCH   1  16
ATOM     16  C   UNL     1       0.839  11.048  20.525  0.00  0.00    +0.000 C 
ATOM     17  O   UNL     1       1.449  11.600  21.433  0.00  0.00    +0.000 OA
BRANCH  16  21
ATOM     18  C   UNL     1      -3.169  12.377  19.867  0.00  0.00    +0.000 A 
ATOM     19  C   UNL     1      -2.559  12.562  21.109  0.00  0.00    +0.000 A 
ATOM     20  C   UNL     1      -1.256  12.113  21.324  0.00  0.00    +0.000 A 
ATOM     21  C   UNL     1      -0.569  11.458  20.290  0.00  0.00    +0.000 A 
ATOM     22  C   UNL     1      -1.191  11.235  19.066  0.00  0.00    +0.000 A 
ATOM     23  C   UNL     1      -2.493  11.694  18.850  0.00  0.00    +0.000 A 
BRANCH  18  25
ATOM     24  C   UNL     1      -5.323  12.090  18.965  0.00  0.00    +0.000 C 
ATOM     25  O   UNL     1      -4.439  12.871  19.760  0.00  0.00    +0.000 OA
ENDBRANCH  18  25
ENDBRANCH  16  21
ENDBRANCH   1  16
BRANCH   5  26
ATOM     26  C   UNL     1       1.680   4.632  20.932  0.00  0.00    +0.000 C 
ATOM     27  N   UNL     1       1.661   3.390  21.149  0.00  0.00    +0.000 NA
ENDBRANCH   5  26
BRANCH   9  28
ATOM     28  O   UNL     1       7.079   4.898  18.589  0.00  0.00    +0.000 OA
ATOM     29  C   UNL     1       7.824   5.939  19.200  0.00  0.00    +0.000 C 
ENDBRANCH   9  28
BRANCH  10  30
ATOM     30  O   UNL     1       5.942   3.569  16.643  0.00  0.00    +0.000 OA
ATOM     31  C   UNL     1       6.010   3.819  15.246  0.00  0.00    +0.000 C 
ENDBRANCH  10  30
TORSDOF 6
ENDMDL
MODEL 8
REMARK VINA RESULT:      -6.5      2.525      3.445
REMARK  Name = 
REMARK  9 active torsions:
REMARK  status: ('A' for Active; 'I' for Inactive)
REMARK    1  A    between atoms: C_1  and  O_2
REMARK    2  A    between atoms: O_2  and  C_3
REMARK    3  A    between atoms: C_6  and  C_7
REMARK    4  A    between atoms: C_7  and  N_9
REMARK    5  A    between atoms: C_13  and  C_14
REMARK    6  A    between atoms: C_19  and  O_20
REMARK    7  A    between atoms: O_20  and  C_21
REMARK    8  A    between atoms: C_22  and  O_23
REMARK    9  A    between atoms: O_23  and  C_24
REMARK                            x       y       z     vdW  Elec       q    Type
REMARK                         _______ _______ _______ _____ _____    ______ ____
ROOT
ATOM      1  N   UNL     1       0.781   9.224  18.285  0.00  0.00    +0.000 NA
ATOM      2  C   UNL     1       0.560  10.476  18.592  0.00  0.00    +0.000 C 
ATOM      3  C   UNL     1       1.665  11.536  18.496  0.00  0.00    +0.000 C 
ATOM      4  C   UNL     1       1.161  12.962  18.512  0.00  0.00    +0.000 C 
ATOM      5  C   UNL     1      -0.053  13.149  19.367  0.00  0.00    +0.000 C 
ATOM      6  C   UNL     1      -0.799  12.112  19.781  0.00  0.00    +0.000 C 
ATOM      7  C   UNL     1      -2.092  12.293  20.469  0.00  0.00    +0.000 A 
ATOM      8  C   UNL     1      -2.331  12.263  21.845  0.00  0.00    +0.000 A 
ATOM      9  C   UNL     1      -3.641  12.444  22.313  0.00  0.00    +0.000 A 
ATOM     10  C   UNL     1      -4.664  12.801  21.403  0.00  0.00    +0.000 A 
ATOM     11  C   UNL     1      -4.425  12.735  20.026  0.00  0.00    +0.000 A 
ATOM     12  C   UNL     1      -3.174  12.328  19.579  0.00  0.00    +0.000 A 
ATOM     13  C   UNL     1      -2.898  11.729  18.212  0.00  0.00    +0.000 C 
ATOM     14  C   UNL     1      -1.950  10.478  18.419  0.00  0.00    +0.000 C 
ATOM     15  N   UNL     1      -0.683  10.915  19.071  0.00  0.00    +0.000 N 
ENDROOT
BRANCH   1  16
ATOM     16  C   UNL     1       2.086   8.830  18.050  0.00  0.00    +0.000 C 
ATOM     17  O   UNL     1       2.945   9.504  17.496  0.00  0.00    +0.000 OA
BRANCH  16  21
ATOM     18  C   UNL     1       3.115   5.008  19.661  0.00  0.00    +0.000 A 
ATOM     19  C   UNL     1       2.283   5.872  20.373  0.00  0.00    +0.000 A 
ATOM     20  C   UNL     1       1.961   7.124  19.851  0.00  0.00    +0.000 A 
ATOM     21  C   UNL     1       2.495   7.517  18.614  0.00  0.00    +0.000 A 
ATOM     22  C   UNL     1       3.360   6.675  17.923  0.00  0.00    +0.000 A 
ATOM     23  C   UNL     1       3.673   5.416  18.445  0.00  0.00    +0.000 A 
BRANCH  18  25
ATOM     24  C   UNL     1       4.110   2.884  19.478  0.00  0.00    +0.000 C 
ATOM     25  O   UNL     1       3.350   3.799  20.256  0.00  0.00    +0.000 OA
ENDBRANCH  18  25
ENDBRANCH  16  21
ENDBRANCH   1  16
BRANCH   5  26
ATOM     26  C   UNL     1      -0.427  14.605  19.590  0.00  0.00    +0.000 C 
ATOM     27  N   UNL     1      -0.736  15.813  19.774  0.00  0.00    +0.000 NA
ENDBRANCH   5  26
BRANCH   9  28
ATOM     28  O   UNL     1      -4.045  12.283  23.617  0.00  0.00    +0.000 OA
ATOM     29  C   UNL     1      -3.723  13.298  24.555  0.00  0.00    +0.000 C 
ENDBRANCH   9  28
BRANCH  10  30
ATOM     30  O   UNL     1      -5.889  13.099  21.950  0.00  0.00    +0.000 OA
ATOM     31  C   UNL     1      -6.986  12.290  21.548  0.00  0.00    +0.000 C 
ENDBRANCH  10  30
TORSDOF 6
ENDMDL
MODEL 9
REMARK VINA RESULT:      -6.5      1.662      2.278
REMARK  Name = 
REMARK  9 active torsions:
REMARK  status: ('A' for Active; 'I' for Inactive)
REMARK    1  A    between atoms: C_1  and  O_2
REMARK    2  A    between atoms: O_2  and  C_3
REMARK    3  A    between atoms: C_6  and  C_7
REMARK    4  A    between atoms: C_7  and  N_9
REMARK    5  A    between atoms: C_13  and  C_14
REMARK    6  A    between atoms: C_19  and  O_20
REMARK    7  A    between atoms: O_20  and  C_21
REMARK    8  A    between atoms: C_22  and  O_23
REMARK    9  A    between atoms: O_23  and  C_24
REMARK                            x       y       z     vdW  Elec       q    Type
REMARK                         _______ _______ _______ _____ _____    ______ ____
ROOT
ATOM      1  N   UNL     1       1.361   9.957  19.611  0.00  0.00    +0.000 NA
ATOM      2  C   UNL     1       0.169  10.488  19.519  0.00  0.00    +0.000 C 
ATOM      3  C   UNL     1      -0.742  10.217  18.314  0.00  0.00    +0.000 C 
ATOM      4  C   UNL     1      -2.192  10.582  18.537  0.00  0.00    +0.000 C 
ATOM      5  C   UNL     1      -2.370  11.777  19.421  0.00  0.00    +0.000 C 
ATOM      6  C   UNL     1      -1.378  12.245  20.196  0.00  0.00    +0.000 C 
ATOM      7  C   UNL     1      -1.591  13.304  21.201  0.00  0.00    +0.000 A 
ATOM      8  C   UNL     1      -1.339  14.670  21.058  0.00  0.00    +0.000 A 
ATOM      9  C   UNL     1      -1.595  15.526  22.139  0.00  0.00    +0.000 A 
ATOM     10  C   UNL     1      -2.240  15.021  23.293  0.00  0.00    +0.000 A 
ATOM     11  C   UNL     1      -2.400  13.640  23.452  0.00  0.00    +0.000 A 
ATOM     12  C   UNL     1      -1.927  12.790  22.461  0.00  0.00    +0.000 A 
ATOM     13  C   UNL     1      -1.561  11.332  22.676  0.00  0.00    +0.000 C 
ATOM     14  C   UNL     1      -0.183  11.070  21.940  0.00  0.00    +0.000 C 
ATOM     15  N   UNL     1      -0.327  11.371  20.488  0.00  0.00    +0.000 N 
ENDROOT
BRANCH   1  16
ATOM     16  C   UNL     1       1.867   9.292  18.509  0.00  0.00    +0.000 C 
ATOM     17  O   UNL     1       2.094   9.795  17.415  0.00  0.00    +0.000 OA
BRANCH  16  21
ATOM     18  C   UNL     1       3.151   5.256  19.082  0.00  0.00    +0.000 A 
ATOM     19  C   UNL     1       3.394   5.909  17.873  0.00  0.00    +0.000 A 
ATOM     20  C   UNL     1       2.961   7.221  17.684  0.00  0.00    +0.000 A 
ATOM     21  C   UNL     1       2.261   7.874  18.711  0.00  0.00    +0.000 A 
ATOM     22  C   UNL     1       1.980   7.210  19.901  0.00  0.00    +0.000 A 
ATOM     23  C   UNL     1       2.424   5.898  20.091  0.00  0.00    +0.000 A 
BRANCH  18  25
ATOM     24  C   UNL     1       5.043   3.860  19.011  0.00  0.00    +0.000 C 
ATOM     25  O   UNL     1       3.635   3.980  19.166  0.00  0.00    +0.000 OA
ENDBRANCH  18  25
ENDBRANCH  16  21
ENDBRANCH   1  16
BRANCH   5  26
ATOM     26  C   UNL     1      -3.796  12.303  19.460  0.00  0.00    +0.000 C 
ATOM     27  N   UNL     1      -4.979  12.738  19.492  0.00  0.00    +0.000 NA
ENDBRANCH   5  26
BRANCH   9  28
ATOM     28  O   UNL     1      -1.248  16.856  22.196  0.00  0.00    +0.000 OA
ATOM     29  C   UNL     1      -1.972  17.778  21.396  0.00  0.00    +0.000 C 
ENDBRANCH   9  28
BRANCH  10  30
ATOM     30  O   UNL     1      -2.584  15.944  24.252  0.00  0.00    +0.000 OA
ATOM     31  C   UNL     1      -3.942  15.957  24.672  0.00  0.00    +0.000 C 
ENDBRANCH  10  30
TORSDOF 6
ENDMDL
