MODEL 1
REMARK VINA RESULT:      -7.9      0.000      0.000
REMARK  Name = 
REMARK  7 active torsions:
REMARK  status: ('A' for Active; 'I' for Inactive)
REMARK    1  A    between atoms: C_1  and  N_2
REMARK    2  A    between atoms: N_2  and  C_3
REMARK    3  A    between atoms: N_2  and  C_4
REMARK    4  A    between atoms: C_4  and  C_5
REMARK    5  A    between atoms: C_5  and  N_6
REMARK    6  A    between atoms: C_7  and  C_8
REMARK    7  A    between atoms: C_9  and  C_10
REMARK                            x       y       z     vdW  Elec       q    Type
REMARK                         _______ _______ _______ _____ _____    ______ ____
ROOT
ATOM      1  N   UNL     1       2.685   5.468  18.390  0.00  0.00    +0.000 N 
ATOM      2  C   UNL     1       3.095   6.755  18.085  0.00  0.00    +0.000 A 
ATOM      3  N   UNL     1       4.054   7.021  17.249  0.00  0.00    +0.000 NA
ATOM      4  C   UNL     1       4.749   5.960  16.658  0.00  0.00    +0.000 A 
ATOM      5  C   UNL     1       5.847   6.240  15.843  0.00  0.00    +0.000 A 
ATOM      6  C   UNL     1       6.583   5.200  15.265  0.00  0.00    +0.000 A 
ATOM      7  C   UNL     1       6.214   3.871  15.489  0.00  0.00    +0.000 A 
ATOM      8  C   UNL     1       5.100   3.587  16.273  0.00  0.00    +0.000 A 
ATOM      9  C   UNL     1       4.377   4.638  16.849  0.00  0.00    +0.000 A 
ATOM     10  C   UNL     1       3.207   4.379  17.692  0.00  0.00    +0.000 A 
ATOM     11  O   UNL     1       2.741   3.242  17.737  0.00  0.00    +0.000 OA
ENDROOT
BRANCH   2  12
ATOM     12  C   UNL     1       2.312   7.892  18.645  0.00  0.00    +0.000 C 
ATOM     13  C   UNL     1       2.108   9.004  17.920  0.00  0.00    +0.000 C 
BRANCH  13  14
ATOM     14  C   UNL     1       1.016   9.949  18.212  0.00  0.00    +0.000 A 
ATOM     15  C   UNL     1      -0.319   9.641  17.862  0.00  0.00    +0.000 A 
ATOM     16  C   UNL     1      -1.390  10.378  18.389  0.00  0.00    +0.000 A 
ATOM     17  C   UNL     1      -1.093  11.377  19.292  0.00  0.00    +0.000 A 
ATOM     18  C   UNL     1       0.206  11.711  19.595  0.00  0.00    +0.000 A 
ATOM     19  C   UNL     1       1.275  11.040  19.056  0.00  0.00    +0.000 A 
ATOM     20  O   UNL     1       0.287  12.671  20.556  0.00  0.00    +0.000 OA
ATOM     21  C   UNL     1      -1.079  12.663  21.011  0.00  0.00    +0.000 C 
ATOM     22  O   UNL     1      -1.981  12.081  20.044  0.00  0.00    +0.000 OA
ENDBRANCH  13  14
ENDBRANCH   2  12
BRANCH   1  23
ATOM     23  C   UNL     1       1.704   5.124  19.430  0.00  0.00    +0.000 C 
BRANCH  23  24
ATOM     24  C   UNL     1       2.364   4.862  20.810  0.00  0.00    +0.000 C 
BRANCH  24  26
ATOM     25  C   UNL     1       0.965   2.867  20.776  0.00  0.00    +0.000 C 
ATOM     26  N   UNL     1       2.162   3.495  21.331  0.00  0.00    +0.000 NA
ATOM     27  C   UNL     1       3.338   2.669  21.046  0.00  0.00    +0.000 C 
ENDBRANCH  24  26
ENDBRANCH  23  24
ENDBRANCH   1  23
TORSDOF 5
ENDMDL
MODEL 2
REMARK VINA RESULT:      -7.8      1.772      4.430
REMARK  Name = 
REMARK  7 active torsions:
REMARK  status: ('A' for Active; 'I' for Inactive)
REMARK    1  A    between atoms: C_1  and  N_2
REMARK    2  A    between atoms: N_2  and  C_3
REMARK    3  A    between atoms: N_2  and  C_4
REMARK    4  A    between atoms: C_4  and  C_5
REMARK    5  A    between atoms: C_5  and  N_6
REMARK    6  A    between atoms: C_7  and  C_8
REMARK    7  A    between atoms: C_9  and  C_10
REMARK                            x       y       z     vdW  Elec       q    Type
REMARK                         _______ _______ _______ _____ _____    ______ ____
ROOT
ATOM      1  N   UNL     1       4.205   6.067  18.432  0.00  0.00    +0.000 N 
ATOM      2  C   UNL     1       2.985   6.671  18.682  0.00  0.00    +0.000 A 
ATOM      3  N   UNL     1       2.052   6.127  19.404  0.00  0.00    +0.000 NA
ATOM      4  C   UNL     1       2.258   4.843  19.921  0.00  0.00    +0.000 A 
ATOM      5  C   UNL     1       1.219   4.212  20.607  0.00  0.00    +0.000 A 
ATOM      6  C   UNL     1       1.385   2.916  21.105  0.00  0.00    +0.000 A 
ATOM      7  C   UNL     1       2.598   2.246  20.931  0.00  0.00    +0.000 A 
ATOM      8  C   UNL     1       3.649   2.883  20.277  0.00  0.00    +0.000 A 
ATOM      9  C   UNL     1       3.468   4.179  19.780  0.00  0.00    +0.000 A 
ATOM     10  C   UNL     1       4.545   4.876  19.074  0.00  0.00    +0.000 A 
ATOM     11  O   UNL     1       5.678   4.398  19.088  0.00  0.00    +0.000 OA
ENDROOT
BRANCH   2  12
ATOM     12  C   UNL     1       2.784   8.069  18.206  0.00  0.00    +0.000 C 
ATOM     13  C   UNL     1       1.550   8.597  18.138  0.00  0.00    +0.000 C 
BRANCH  13  14
ATOM     14  C   UNL     1       1.313  10.050  18.109  0.00  0.00    +0.000 A 
ATOM     15  C   UNL     1       0.074  10.589  18.525  0.00  0.00    +0.000 A 
ATOM     16  C   UNL     1      -0.064  11.961  18.784  0.00  0.00    +0.000 A 
ATOM     17  C   UNL     1       1.060  12.749  18.661  0.00  0.00    +0.000 A 
ATOM     18  C   UNL     1       2.253  12.237  18.209  0.00  0.00    +0.000 A 
ATOM     19  C   UNL     1       2.404  10.908  17.900  0.00  0.00    +0.000 A 
ATOM     20  O   UNL     1       3.256  13.157  18.226  0.00  0.00    +0.000 OA
ATOM     21  C   UNL     1       2.621  14.181  19.014  0.00  0.00    +0.000 C 
ATOM     22  O   UNL     1       1.181  14.052  19.033  0.00  0.00    +0.000 OA
ENDBRANCH  13  14
ENDBRANCH   2  12
BRANCH   1  23
ATOM     23  C   UNL     1       5.226   6.586  17.510  0.00  0.00    +0.000 C 
BRANCH  23  24
ATOM     24  C   UNL     1       4.965   6.175  16.037  0.00  0.00    +0.000 C 
BRANCH  24  26
ATOM     25  C   UNL     1       7.225   5.289  16.262  0.00  0.00    +0.000 C 
ATOM     26  N   UNL     1       6.151   5.642  15.336  0.00  0.00    +0.000 NA
ATOM     27  C   UNL     1       5.779   4.474  14.534  0.00  0.00    +0.000 C 
ENDBRANCH  24  26
ENDBRANCH  23  24
ENDBRANCH   1  23
TORSDOF 5
ENDMDL
MODEL 3
REMARK VINA RESULT:      -7.8      1.143      1.418
REMARK  Name = 
REMARK  7 active torsions:
REMARK  status: ('A' for Active; 'I' for Inactive)
REMARK    1  A    between atoms: C_1  and  N_2
REMARK    2  A    between atoms: N_2  and  C_3
REMARK    3  A    between atoms: N_2  and  C_4
REMARK    4  A    between atoms: C_4  and  C_5
REMARK    5  A    between atoms: C_5  and  N_6
REMARK    6  A    between atoms: C_7  and  C_8
REMARK    7  A    between atoms: C_9  and  C_10
REMARK                            x       y       z     vdW  Elec       q    Type
REMARK                         _______ _______ _______ _____ _____    ______ ____
ROOT
ATOM      1  N   UNL     1       3.504   5.059  18.868  0.00  0.00    +0.000 N 
ATOM      2  C   UNL     1       3.519   6.358  18.389  0.00  0.00    +0.000 A 
ATOM      3  N   UNL     1       4.090   6.703  17.274  0.00  0.00    +0.000 NA
ATOM      4  C   UNL     1       4.773   5.731  16.534  0.00  0.00    +0.000 A 
ATOM      5  C   UNL     1       5.477   6.117  15.393  0.00  0.00    +0.000 A 
ATOM      6  C   UNL     1       6.197   5.173  14.652  0.00  0.00    +0.000 A 
ATOM      7  C   UNL     1       6.205   3.832  15.043  0.00  0.00    +0.000 A 
ATOM      8  C   UNL     1       5.477   3.435  16.161  0.00  0.00    +0.000 A 
ATOM      9  C   UNL     1       4.765   4.391  16.895  0.00  0.00    +0.000 A 
ATOM     10  C   UNL     1       3.999   4.015  18.085  0.00  0.00    +0.000 A 
ATOM     11  O   UNL     1       3.820   2.823  18.330  0.00  0.00    +0.000 OA
ENDROOT
BRANCH   2  12
ATOM     12  C   UNL     1       2.729   7.385  19.124  0.00  0.00    +0.000 C 
ATOM     13  C   UNL     1       2.105   8.373  18.460  0.00  0.00    +0.000 C 
BRANCH  13  14
ATOM     14  C   UNL     1       0.986   9.132  19.041  0.00  0.00    +0.000 A 
ATOM     15  C   UNL     1       0.799   9.186  20.442  0.00  0.00    +0.000 A 
ATOM     16  C   UNL     1      -0.066  10.129  21.018  0.00  0.00    +0.000 A 
ATOM     17  C   UNL     1      -0.686  11.024  20.173  0.00  0.00    +0.000 A 
ATOM     18  C   UNL     1      -0.545  10.943  18.808  0.00  0.00    +0.000 A 
ATOM     19  C   UNL     1       0.255   9.998  18.213  0.00  0.00    +0.000 A 
ATOM     20  O   UNL     1      -1.177  11.956  18.156  0.00  0.00    +0.000 OA
ATOM     21  C   UNL     1      -1.455  12.818  19.276  0.00  0.00    +0.000 C 
ATOM     22  O   UNL     1      -1.412  12.115  20.538  0.00  0.00    +0.000 OA
ENDBRANCH  13  14
ENDBRANCH   2  12
BRANCH   1  23
ATOM     23  C   UNL     1       2.992   4.656  20.185  0.00  0.00    +0.000 C 
BRANCH  23  24
ATOM     24  C   UNL     1       1.442   4.619  20.238  0.00  0.00    +0.000 C 
BRANCH  24  26
ATOM     25  C   UNL     1       0.692   2.490  19.318  0.00  0.00    +0.000 C 
ATOM     26  N   UNL     1       0.875   3.287  20.529  0.00  0.00    +0.000 NA
ATOM     27  C   UNL     1       1.733   2.570  21.474  0.00  0.00    +0.000 C 
ENDBRANCH  24  26
ENDBRANCH  23  24
ENDBRANCH   1  23
TORSDOF 5
ENDMDL
MODEL 4
REMARK VINA RESULT:      -7.8      1.582      1.686
REMARK  Name = 
REMARK  7 active torsions:
REMARK  status: ('A' for Active; 'I' for Inactive)
REMARK    1  A    between atoms: C_1  and  N_2
REMARK    2  A    between atoms: N_2  and  C_3
REMARK    3  A    between atoms: N_2  and  C_4
REMARK    4  A    between atoms: C_4  and  C_5
REMARK    5  A    between atoms: C_5  and  N_6
REMARK    6  A    between atoms: C_7  and  C_8
REMARK    7  A    between atoms: C_9  and  C_10
REMARK                            x       y       z     vdW  Elec       q    Type
REMARK                         _______ _______ _______ _____ _____    ______ ____
ROOT
ATOM      1  N   UNL     1       2.610   5.292  18.147  0.00  0.00    +0.000 N 
ATOM      2  C   UNL     1       2.908   6.638  18.263  0.00  0.00    +0.000 A 
ATOM      3  N   UNL     1       4.039   7.155  17.886  0.00  0.00    +0.000 NA
ATOM      4  C   UNL     1       5.035   6.311  17.382  0.00  0.00    +0.000 A 
ATOM      5  C   UNL     1       6.287   6.846  17.076  0.00  0.00    +0.000 A 
ATOM      6  C   UNL     1       7.313   6.020  16.603  0.00  0.00    +0.000 A 
ATOM      7  C   UNL     1       7.086   4.654  16.420  0.00  0.00    +0.000 A 
ATOM      8  C   UNL     1       5.829   4.121  16.691  0.00  0.00    +0.000 A 
ATOM      9  C   UNL     1       4.814   4.958  17.168  0.00  0.00    +0.000 A 
ATOM     10  C   UNL     1       3.483   4.432  17.479  0.00  0.00    +0.000 A 
ATOM     11  O   UNL     1       3.196   3.287  17.134  0.00  0.00    +0.000 OA
ENDROOT
BRANCH   2  12
ATOM     12  C   UNL     1       1.830   7.558  18.722  0.00  0.00    +0.000 C 
ATOM     13  C   UNL     1       1.834   8.045  19.974  0.00  0.00    +0.000 C 
BRANCH  13  14
ATOM     14  C   UNL     1       1.090   9.258  20.353  0.00  0.00    +0.000 A 
ATOM     15  C   UNL     1       0.345   9.979  19.391  0.00  0.00    +0.000 A 
ATOM     16  C   UNL     1      -0.594  10.946  19.784  0.00  0.00    +0.000 A 
ATOM     17  C   UNL     1      -0.791  11.130  21.135  0.00  0.00    +0.000 A 
ATOM     18  C   UNL     1      -0.033  10.467  22.071  0.00  0.00    +0.000 A 
ATOM     19  C   UNL     1       0.927   9.552  21.716  0.00  0.00    +0.000 A 
ATOM     20  O   UNL     1      -0.429  10.732  23.346  0.00  0.00    +0.000 OA
ATOM     21  C   UNL     1      -1.685  11.380  23.072  0.00  0.00    +0.000 C 
ATOM     22  O   UNL     1      -1.767  11.879  21.718  0.00  0.00    +0.000 OA
ENDBRANCH  13  14
ENDBRANCH   2  12
BRANCH   1  23
ATOM     23  C   UNL     1       1.403   4.650  18.687  0.00  0.00    +0.000 C 
BRANCH  23  24
ATOM     24  C   UNL     1       1.484   4.417  20.219  0.00  0.00    +0.000 C 
BRANCH  24  26
ATOM     25  C   UNL     1       1.045   2.128  19.508  0.00  0.00    +0.000 C 
ATOM     26  N   UNL     1       1.157   3.041  20.643  0.00  0.00    +0.000 NA
ATOM     27  C   UNL     1       2.167   2.550  21.582  0.00  0.00    +0.000 C 
ENDBRANCH  24  26
ENDBRANCH  23  24
ENDBRANCH   1  23
TORSDOF 5
ENDMDL
MODEL 5
REMARK VINA RESULT:      -7.7      1.008      1.742
REMARK  Name = 
REMARK  7 active torsions:
REMARK  status: ('A' for Active; 'I' for Inactive)
REMARK    1  A    between atoms: C_1  and  N_2
REMARK    2  A    between atoms: N_2  and  C_3
REMARK    3  A    between atoms: N_2  and  C_4
REMARK    4  A    between atoms: C_4  and  C_5
REMARK    5  A    between atoms: C_5  and  N_6
REMARK    6  A    between atoms: C_7  and  C_8
REMARK    7  A    between atoms: C_9  and  C_10
REMARK                            x       y       z     vdW  Elec       q    Type
REMARK                         _______ _______ _______ _____ _____    ______ ____
ROOT
ATOM      1  N   UNL     1       2.868   5.344  18.035  0.00  0.00    +0.000 N 
ATOM      2  C   UNL     1       3.382   6.621  17.899  0.00  0.00    +0.000 A 
ATOM      3  N   UNL     1       4.417   6.902  17.164  0.00  0.00    +0.000 NA
ATOM      4  C   UNL     1       5.085   5.860  16.510  0.00  0.00    +0.000 A 
ATOM      5  C   UNL     1       6.258   6.141  15.807  0.00  0.00    +0.000 A 
ATOM      6  C   UNL     1       6.966   5.115  15.173  0.00  0.00    +0.000 A 
ATOM      7  C   UNL     1       6.497   3.801  15.228  0.00  0.00    +0.000 A 
ATOM      8  C   UNL     1       5.310   3.519  15.899  0.00  0.00    +0.000 A 
ATOM      9  C   UNL     1       4.615   4.555  16.532  0.00  0.00    +0.000 A 
ATOM     10  C   UNL     1       3.370   4.296  17.261  0.00  0.00    +0.000 A 
ATOM     11  O   UNL     1       2.830   3.197  17.152  0.00  0.00    +0.000 OA
ENDROOT
BRANCH   2  12
ATOM     12  C   UNL     1       2.634   7.748  18.522  0.00  0.00    +0.000 C 
ATOM     13  C   UNL     1       2.161   8.755  17.769  0.00  0.00    +0.000 C 
BRANCH  13  14
ATOM     14  C   UNL     1       1.073   9.637  18.222  0.00  0.00    +0.000 A 
ATOM     15  C   UNL     1       1.353  10.922  18.743  0.00  0.00    +0.000 A 
ATOM     16  C   UNL     1       0.334  11.875  18.898  0.00  0.00    +0.000 A 
ATOM     17  C   UNL     1      -0.933  11.526  18.482  0.00  0.00    +0.000 A 
ATOM     18  C   UNL     1      -1.218  10.262  18.023  0.00  0.00    +0.000 A 
ATOM     19  C   UNL     1      -0.251   9.294  17.907  0.00  0.00    +0.000 A 
ATOM     20  O   UNL     1      -2.505  10.139  17.596  0.00  0.00    +0.000 OA
ATOM     21  C   UNL     1      -2.875  11.530  17.565  0.00  0.00    +0.000 C 
ATOM     22  O   UNL     1      -2.009  12.352  18.381  0.00  0.00    +0.000 OA
ENDBRANCH  13  14
ENDBRANCH   2  12
BRANCH   1  23
ATOM     23  C   UNL     1       1.792   4.966  18.962  0.00  0.00    +0.000 C 
BRANCH  23  24
ATOM     24  C   UNL     1       2.328   4.486  20.337  0.00  0.00    +0.000 C 
BRANCH  24  26
ATOM     25  C   UNL     1       3.712   2.491  20.545  0.00  0.00    +0.000 C 
ATOM     26  N   UNL     1       2.350   3.018  20.502  0.00  0.00    +0.000 NA
ATOM     27  C   UNL     1       1.627   2.638  21.717  0.00  0.00    +0.000 C 
ENDBRANCH  24  26
ENDBRANCH  23  24
ENDBRANCH   1  23
TORSDOF 5
ENDMDL
MODEL 6
REMARK VINA RESULT:      -7.6      1.617      1.941
REMARK  Name = 
REMARK  7 active torsions:
REMARK  status: ('A' for Active; 'I' for Inactive)
REMARK    1  A    between atoms: C_1  and  N_2
REMARK    2  A    between atoms: N_2  and  C_3
REMARK    3  A    between atoms: N_2  and  C_4
REMARK    4  A    between atoms: C_4  and  C_5
REMARK    5  A    between atoms: C_5  and  N_6
REMARK    6  A    between atoms: C_7  and  C_8
REMARK    7  A    between atoms: C_9  and  C_10
REMARK                            x       y       z     vdW  Elec       q    Type
REMARK                         _______ _______ _______ _____ _____    ______ ____
ROOT
ATOM      1  N   UNL     1       2.520   4.702  18.434  0.00  0.00    +0.000 N 
ATOM      2  C   UNL     1       3.123   5.880  18.843  0.00  0.00    +0.000 A 
ATOM      3  N   UNL     1       4.209   6.351  18.305  0.00  0.00    +0.000 NA
ATOM      4  C   UNL     1       4.838   5.616  17.295  0.00  0.00    +0.000 A 
ATOM      5  C   UNL     1       6.059   6.064  16.789  0.00  0.00    +0.000 A 
ATOM      6  C   UNL     1       6.729   5.333  15.803  0.00  0.00    +0.000 A 
ATOM      7  C   UNL     1       6.172   4.152  15.306  0.00  0.00    +0.000 A 
ATOM      8  C   UNL     1       4.938   3.717  15.782  0.00  0.00    +0.000 A 
ATOM      9  C   UNL     1       4.282   4.457  16.772  0.00  0.00    +0.000 A 
ATOM     10  C   UNL     1       2.990   4.025  17.308  0.00  0.00    +0.000 A 
ATOM     11  O   UNL     1       2.384   3.113  16.748  0.00  0.00    +0.000 OA
ENDROOT
BRANCH   2  12
ATOM     12  C   UNL     1       2.421   6.711  19.860  0.00  0.00    +0.000 C 
ATOM     13  C   UNL     1       2.085   7.983  19.590  0.00  0.00    +0.000 C 
BRANCH  13  14
ATOM     14  C   UNL     1       1.039   8.700  20.338  0.00  0.00    +0.000 A 
ATOM     15  C   UNL     1       0.803   8.418  21.703  0.00  0.00    +0.000 A 
ATOM     16  C   UNL     1       0.032   9.282  22.495  0.00  0.00    +0.000 A 
ATOM     17  C   UNL     1      -0.446  10.432  21.904  0.00  0.00    +0.000 A 
ATOM     18  C   UNL     1      -0.261  10.684  20.566  0.00  0.00    +0.000 A 
ATOM     19  C   UNL     1       0.447   9.832  19.755  0.00  0.00    +0.000 A 
ATOM     20  O   UNL     1      -0.745  11.900  20.192  0.00  0.00    +0.000 OA
ATOM     21  C   UNL     1      -0.965  12.475  21.494  0.00  0.00    +0.000 C 
ATOM     22  O   UNL     1      -1.055  11.474  22.532  0.00  0.00    +0.000 OA
ENDBRANCH  13  14
ENDBRANCH   2  12
BRANCH   1  23
ATOM     23  C   UNL     1       1.377   4.068  19.106  0.00  0.00    +0.000 C 
BRANCH  23  24
ATOM     24  C   UNL     1       1.659   2.594  19.501  0.00  0.00    +0.000 C 
BRANCH  24  26
ATOM     25  C   UNL     1       3.867   2.431  20.522  0.00  0.00    +0.000 C 
ATOM     26  N   UNL     1       2.424   2.437  20.755  0.00  0.00    +0.000 NA
ATOM     27  C   UNL     1       2.073   3.503  21.696  0.00  0.00    +0.000 C 
ENDBRANCH  24  26
ENDBRANCH  23  24
ENDBRANCH   1  23
TORSDOF 5
ENDMDL
MODEL 7
REMARK VINA RESULT:      -7.6      2.979      8.559
REMARK  Name = 
REMARK  7 active torsions:
REMARK  status: ('A' for Active; 'I' for Inactive)
REMARK    1  A    between atoms: C_1  and  N_2
REMARK    2  A    between atoms: N_2  and  C_3
REMARK    3  A    between atoms: N_2  and  C_4
REMARK    4  A    between atoms: C_4  and  C_5
REMARK    5  A    between atoms: C_5  and  N_6
REMARK    6  A    between atoms: C_7  and  C_8
REMARK    7  A    between atoms: C_9  and  C_10
REMARK                            x       y       z     vdW  Elec       q    Type
REMARK                         _______ _______ _______ _____ _____    ______ ____
ROOT
ATOM      1  N   UNL     1      -0.072  11.193  18.789  0.00  0.00    +0.000 N 
ATOM      2  C   UNL     1       1.205  10.748  18.492  0.00  0.00    +0.000 A 
ATOM      3  N   UNL     1       2.227  11.540  18.363  0.00  0.00    +0.000 NA
ATOM      4  C   UNL     1       2.032  12.921  18.478  0.00  0.00    +0.000 A 
ATOM      5  C   UNL     1       3.104  13.781  18.234  0.00  0.00    +0.000 A 
ATOM      6  C   UNL     1       2.931  15.167  18.308  0.00  0.00    +0.000 A 
ATOM      7  C   UNL     1       1.684  15.701  18.640  0.00  0.00    +0.000 A 
ATOM      8  C   UNL     1       0.619  14.849  18.916  0.00  0.00    +0.000 A 
ATOM      9  C   UNL     1       0.806  13.464  18.834  0.00  0.00    +0.000 A 
ATOM     10  C   UNL     1      -0.294  12.535  19.104  0.00  0.00    +0.000 A 
ATOM     11  O   UNL     1      -1.335  12.966  19.595  0.00  0.00    +0.000 OA
ENDROOT
BRANCH   2  12
ATOM     12  C   UNL     1       1.442   9.278  18.447  0.00  0.00    +0.000 C 
ATOM     13  C   UNL     1       2.393   8.763  17.650  0.00  0.00    +0.000 C 
BRANCH  13  14
ATOM     14  C   UNL     1       2.970   7.426  17.870  0.00  0.00    +0.000 A 
ATOM     15  C   UNL     1       2.204   6.397  18.465  0.00  0.00    +0.000 A 
ATOM     16  C   UNL     1       2.628   5.060  18.411  0.00  0.00    +0.000 A 
ATOM     17  C   UNL     1       3.789   4.788  17.720  0.00  0.00    +0.000 A 
ATOM     18  C   UNL     1       4.561   5.791  17.184  0.00  0.00    +0.000 A 
ATOM     19  C   UNL     1       4.197   7.112  17.265  0.00  0.00    +0.000 A 
ATOM     20  O   UNL     1       5.625   5.313  16.483  0.00  0.00    +0.000 OA
ATOM     21  C   UNL     1       5.247   3.927  16.399  0.00  0.00    +0.000 C 
ATOM     22  O   UNL     1       4.273   3.557  17.400  0.00  0.00    +0.000 OA
ENDBRANCH  13  14
ENDBRANCH   2  12
BRANCH   1  23
ATOM     23  C   UNL     1      -1.273  10.347  18.805  0.00  0.00    +0.000 C 
BRANCH  23  24
ATOM     24  C   UNL     1      -1.793  10.021  17.380  0.00  0.00    +0.000 C 
BRANCH  24  26
ATOM     25  C   UNL     1      -2.926  10.803  15.368  0.00  0.00    +0.000 C 
ATOM     26  N   UNL     1      -2.570  11.109  16.752  0.00  0.00    +0.000 NA
ATOM     27  C   UNL     1      -3.779  11.379  17.532  0.00  0.00    +0.000 C 
ENDBRANCH  24  26
ENDBRANCH  23  24
ENDBRANCH   1  23
TORSDOF 5
ENDMDL
MODEL 8
REMARK VINA RESULT:      -7.5      4.838      6.254
REMARK  Name = 
REMARK  7 active torsions:
REMARK  status: ('A' for Active; 'I' for Inactive)
REMARK    1  A    between atoms: C_1  and  N_2
REMARK    2  A    between atoms: N_2  and  C_3
REMARK    3  A    between atoms: N_2  and  C_4
REMARK    4  A    between atoms: C_4  and  C_5
REMARK    5  A    between atoms: C_5  and  N_6
REMARK    6  A    between atoms: C_7  and  C_8
REMARK    7  A    between atoms: C_9  and  C_10
REMARK                            x       y       z     vdW  Elec       q    Type
REMARK                         _______ _______ _______ _____ _____    ______ ____
ROOT
ATOM      1  N   UNL     1       5.776   5.598  17.221  0.00  0.00    +0.000 N 
ATOM      2  C   UNL     1       6.931   6.274  16.868  0.00  0.00    +0.000 A 
ATOM      3  N   UNL     1       7.496   6.165  15.702  0.00  0.00    +0.000 NA
ATOM      4  C   UNL     1       6.946   5.285  14.764  0.00  0.00    +0.000 A 
ATOM      5  C   UNL     1       7.609   5.086  13.552  0.00  0.00    +0.000 A 
ATOM      6  C   UNL     1       7.102   4.186  12.608  0.00  0.00    +0.000 A 
ATOM      7  C   UNL     1       5.920   3.490  12.866  0.00  0.00    +0.000 A 
ATOM      8  C   UNL     1       5.236   3.709  14.059  0.00  0.00    +0.000 A 
ATOM      9  C   UNL     1       5.758   4.609  14.996  0.00  0.00    +0.000 A 
ATOM     10  C   UNL     1       5.076   4.856  16.269  0.00  0.00    +0.000 A 
ATOM     11  O   UNL     1       3.938   4.419  16.433  0.00  0.00    +0.000 OA
ENDROOT
BRANCH   2  12
ATOM     12  C   UNL     1       7.479   7.273  17.827  0.00  0.00    +0.000 C 
ATOM     13  C   UNL     1       8.240   8.292  17.393  0.00  0.00    +0.000 C 
BRANCH  13  14
ATOM     14  C   UNL     1       8.440   9.520  18.180  0.00  0.00    +0.000 A 
ATOM     15  C   UNL     1       9.064   9.474  19.448  0.00  0.00    +0.000 A 
ATOM     16  C   UNL     1       9.524  10.646  20.068  0.00  0.00    +0.000 A 
ATOM     17  C   UNL     1       9.385  11.829  19.375  0.00  0.00    +0.000 A 
ATOM     18  C   UNL     1       8.735  11.885  18.166  0.00  0.00    +0.000 A 
ATOM     19  C   UNL     1       8.230  10.761  17.558  0.00  0.00    +0.000 A 
ATOM     20  O   UNL     1       8.765  13.128  17.612  0.00  0.00    +0.000 OA
ATOM     21  C   UNL     1       9.754  13.738  18.463  0.00  0.00    +0.000 C 
ATOM     22  O   UNL     1       9.917  13.035  19.715  0.00  0.00    +0.000 OA
ENDBRANCH  13  14
ENDBRANCH   2  12
BRANCH   1  23
ATOM     23  C   UNL     1       5.188   5.586  18.568  0.00  0.00    +0.000 C 
BRANCH  23  24
ATOM     24  C   UNL     1       5.223   4.180  19.223  0.00  0.00    +0.000 C 
BRANCH  24  26
ATOM     25  C   UNL     1       2.928   4.809  19.749  0.00  0.00    +0.000 C 
ATOM     26  N   UNL     1       3.960   3.783  19.878  0.00  0.00    +0.000 NA
ATOM     27  C   UNL     1       3.479   2.517  19.321  0.00  0.00    +0.000 C 
ENDBRANCH  24  26
ENDBRANCH  23  24
ENDBRANCH   1  23
TORSDOF 5
ENDMDL
MODEL 9
REMARK VINA RESULT:      -7.4      1.956      4.175
REMARK  Name = 
REMARK  7 active torsions:
REMARK  status: ('A' for Active; 'I' for Inactive)
REMARK    1  A    between atoms: C_1  and  N_2
REMARK    2  A    between atoms: N_2  and  C_3
REMARK    3  A    between atoms: N_2  and  C_4
REMARK    4  A    between atoms: C_4  and  C_5
REMARK    5  A    between atoms: C_5  and  N_6
REMARK    6  A    between atoms: C_7  and  C_8
REMARK    7  A    between atoms: C_9  and  C_10
REMARK                            x       y       z     vdW  Elec       q    Type
REMARK                         _______ _______ _______ _____ _____    ______ ____
ROOT
ATOM      1  N   UNL     1       4.113   5.910  17.213  0.00  0.00    +0.000 N 
ATOM      2  C   UNL     1       3.072   6.447  17.950  0.00  0.00    +0.000 A 
ATOM      3  N   UNL     1       2.238   5.726  18.639  0.00  0.00    +0.000 NA
ATOM      4  C   UNL     1       2.357   4.332  18.602  0.00  0.00    +0.000 A 
ATOM      5  C   UNL     1       1.400   3.552  19.253  0.00  0.00    +0.000 A 
ATOM      6  C   UNL     1       1.474   2.156  19.205  0.00  0.00    +0.000 A 
ATOM      7  C   UNL     1       2.515   1.531  18.514  0.00  0.00    +0.000 A 
ATOM      8  C   UNL     1       3.491   2.304  17.891  0.00  0.00    +0.000 A 
ATOM      9  C   UNL     1       3.402   3.700  17.944  0.00  0.00    +0.000 A 
ATOM     10  C   UNL     1       4.401   4.547  17.289  0.00  0.00    +0.000 A 
ATOM     11  O   UNL     1       5.431   4.033  16.855  0.00  0.00    +0.000 OA
ENDROOT
BRANCH   2  12
ATOM     12  C   UNL     1       2.983   7.929  18.063  0.00  0.00    +0.000 C 
ATOM     13  C   UNL     1       1.826   8.566  17.816  0.00  0.00    +0.000 C 
BRANCH  13  14
ATOM     14  C   UNL     1       1.547   9.921  18.318  0.00  0.00    +0.000 A 
ATOM     15  C   UNL     1       0.757  10.116  19.475  0.00  0.00    +0.000 A 
ATOM     16  C   UNL     1       0.729  11.357  20.128  0.00  0.00    +0.000 A 
ATOM     17  C   UNL     1       1.532  12.359  19.628  0.00  0.00    +0.000 A 
ATOM     18  C   UNL     1       2.262  12.189  18.475  0.00  0.00    +0.000 A 
ATOM     19  C   UNL     1       2.270  11.001  17.787  0.00  0.00    +0.000 A 
ATOM     20  O   UNL     1       3.042  13.266  18.187  0.00  0.00    +0.000 OA
ATOM     21  C   UNL     1       2.936  13.973  19.437  0.00  0.00    +0.000 C 
ATOM     22  O   UNL     1       1.784  13.563  20.208  0.00  0.00    +0.000 OA
ENDBRANCH  13  14
ENDBRANCH   2  12
BRANCH   1  23
ATOM     23  C   UNL     1       4.987   6.677  16.314  0.00  0.00    +0.000 C 
BRANCH  23  24
ATOM     24  C   UNL     1       6.493   6.469  16.624  0.00  0.00    +0.000 C 
BRANCH  24  26
ATOM     25  C   UNL     1       7.666   6.114  18.731  0.00  0.00    +0.000 C 
ATOM     26  N   UNL     1       6.940   7.070  17.898  0.00  0.00    +0.000 NA
ATOM     27  C   UNL     1       7.778   8.241  17.635  0.00  0.00    +0.000 C 
ENDBRANCH  24  26
ENDBRANCH  23  24
ENDBRANCH   1  23
TORSDOF 5
ENDMDL
