MODEL 1
REMARK VINA RESULT:      -7.2      0.000      0.000
REMARK  Name = 
REMARK  15 active torsions:
REMARK  status: ('A' for Active; 'I' for Inactive)
REMARK    1  A    between atoms: C_1  and  C_2
REMARK    2  A    between atoms: C_2  and  C_3
REMARK    3  A    between atoms: C_3  and  C_4
REMARK    4  A    between atoms: C_4  and  C_5
REMARK    5  A    between atoms: C_5  and  C_6
REMARK    6  A    between atoms: C_6  and  C_7
REMARK    7  A    between atoms: C_7  and  O_8
REMARK    8  A    between atoms: O_8  and  N_9
REMARK    9  A    between atoms: C_10  and  C_11
REMARK   10  A    between atoms: C_11  and  C_12
REMARK   11  A    between atoms: C_12  and  C_13
REMARK   12  A    between atoms: C_13  and  C_14
REMARK   13  A    between atoms: C_14  and  C_15
REMARK   14  A    between atoms: C_15  and  C_16
REMARK   15  A    between atoms: C_19  and  C_20
REMARK                            x       y       z     vdW  Elec       q    Type
REMARK                         _______ _______ _______ _____ _____    ______ ____
ROOT
ATOM      1  N   UNL     1       5.776   5.151  16.649  0.00  0.00    +0.000 N 
ATOM      2  C   UNL     1       6.141   6.378  17.172  0.00  0.00    +0.000 A 
ATOM      3  N   UNL     1       5.161   6.872  17.909  0.00  0.00    +0.000 NA
ATOM      4  C   UNL     1       4.142   5.944  17.868  0.00  0.00    +0.000 A 
ATOM      5  C   UNL     1       2.897   5.955  18.525  0.00  0.00    +0.000 A 
ATOM      6  C   UNL     1       2.485   7.025  19.491  0.00  0.00    +0.000 C 
ATOM      7  C   UNL     1       2.002   4.897  18.271  0.00  0.00    +0.000 A 
ATOM      8  C   UNL     1       2.345   3.845  17.429  0.00  0.00    +0.000 A 
ATOM      9  C   UNL     1       3.599   3.798  16.829  0.00  0.00    +0.000 A 
ATOM     10  C   UNL     1       4.489   4.861  17.057  0.00  0.00    +0.000 A 
ENDROOT
BRANCH   1  11
ATOM     11  O   UNL     1       6.672   4.302  15.961  0.00  0.00    +0.000 OA
BRANCH  11  12
ATOM     12  C   UNL     1       6.832   4.706  14.604  0.00  0.00    +0.000 C 
BRANCH  12  13
ATOM     13  C   UNL     1       5.888   3.914  13.719  0.00  0.00    +0.000 C 
BRANCH  13  14
ATOM     14  C   UNL     1       6.631   3.354  12.507  0.00  0.00    +0.000 C 
BRANCH  14  15
ATOM     15  C   UNL     1       5.642   2.907  11.436  0.00  0.00    +0.000 C 
BRANCH  15  16
ATOM     16  C   UNL     1       4.230   3.396  11.750  0.00  0.00    +0.000 C 
BRANCH  16  18
ATOM     17  C   UNL     1       3.110   4.154   9.631  0.00  0.00    +0.000 C 
ATOM     18  C   UNL     1       3.258   3.021  10.633  0.00  0.00    +0.000 C 
ENDBRANCH  16  18
ENDBRANCH  15  16
ENDBRANCH  14  15
ENDBRANCH  13  14
ENDBRANCH  12  13
ENDBRANCH  11  12
ENDBRANCH   1  11
BRANCH   2  19
ATOM     19  C   UNL     1       7.490   7.013  17.015  0.00  0.00    +0.000 C 
BRANCH  19  20
ATOM     20  C   UNL     1       7.581   8.417  17.613  0.00  0.00    +0.000 C 
BRANCH  20  21
ATOM     21  C   UNL     1       8.774   8.580  18.568  0.00  0.00    +0.000 C 
BRANCH  21  22
ATOM     22  C   UNL     1       8.873  10.037  19.028  0.00  0.00    +0.000 C 
BRANCH  22  23
ATOM     23  C   UNL     1       9.510  10.945  17.976  0.00  0.00    +0.000 C 
ATOM     24  C   UNL     1       8.779  12.279  17.902  0.00  0.00    +0.000 C 
ENDBRANCH  22  23
ENDBRANCH  21  22
ENDBRANCH  20  21
ENDBRANCH  19  20
ENDBRANCH   2  19
TORSDOF 12
ENDMDL
MODEL 2
REMARK VINA RESULT:      -7.0      3.709      6.910
REMARK  Name = 
REMARK  15 active torsions:
REMARK  status: ('A' for Active; 'I' for Inactive)
REMARK    1  A    between atoms: C_1  and  C_2
REMARK    2  A    between atoms: C_2  and  C_3
REMARK    3  A    between atoms: C_3  and  C_4
REMARK    4  A    between atoms: C_4  and  C_5
REMARK    5  A    between atoms: C_5  and  C_6
REMARK    6  A    between atoms: C_6  and  C_7
REMARK    7  A    between atoms: C_7  and  O_8
REMARK    8  A    between atoms: O_8  and  N_9
REMARK    9  A    between atoms: C_10  and  C_11
REMARK   10  A    between atoms: C_11  and  C_12
REMARK   11  A    between atoms: C_12  and  C_13
REMARK   12  A    between atoms: C_13  and  C_14
REMARK   13  A    between atoms: C_14  and  C_15
REMARK   14  A    between atoms: C_15  and  C_16
REMARK   15  A    between atoms: C_19  and  C_20
REMARK                            x       y       z     vdW  Elec       q    Type
REMARK                         _______ _______ _______ _____ _____    ______ ____
ROOT
ATOM      1  N   UNL     1       2.524   7.044  18.837  0.00  0.00    +0.000 N 
ATOM      2  C   UNL     1       2.229   6.420  20.036  0.00  0.00    +0.000 A 
ATOM      3  N   UNL     1       1.520   7.225  20.809  0.00  0.00    +0.000 NA
ATOM      4  C   UNL     1       1.346   8.391  20.095  0.00  0.00    +0.000 A 
ATOM      5  C   UNL     1       0.622   9.549  20.437  0.00  0.00    +0.000 A 
ATOM      6  C   UNL     1      -0.185   9.675  21.695  0.00  0.00    +0.000 C 
ATOM      7  C   UNL     1       0.645  10.637  19.541  0.00  0.00    +0.000 A 
ATOM      8  C   UNL     1       1.326  10.565  18.332  0.00  0.00    +0.000 A 
ATOM      9  C   UNL     1       1.990   9.400  17.962  0.00  0.00    +0.000 A 
ATOM     10  C   UNL     1       1.993   8.319  18.858  0.00  0.00    +0.000 A 
ENDROOT
BRANCH   1  11
ATOM     11  O   UNL     1       3.122   6.380  17.743  0.00  0.00    +0.000 OA
BRANCH  11  12
ATOM     12  C   UNL     1       4.276   7.076  17.280  0.00  0.00    +0.000 C 
BRANCH  12  13
ATOM     13  C   UNL     1       4.954   6.273  16.185  0.00  0.00    +0.000 C 
BRANCH  13  14
ATOM     14  C   UNL     1       4.745   4.776  16.408  0.00  0.00    +0.000 C 
BRANCH  14  15
ATOM     15  C   UNL     1       6.005   4.003  16.039  0.00  0.00    +0.000 C 
BRANCH  15  16
ATOM     16  C   UNL     1       7.262   4.810  16.356  0.00  0.00    +0.000 C 
BRANCH  16  18
ATOM     17  C   UNL     1       7.621   5.855  18.614  0.00  0.00    +0.000 C 
ATOM     18  C   UNL     1       7.714   4.578  17.797  0.00  0.00    +0.000 C 
ENDBRANCH  16  18
ENDBRANCH  15  16
ENDBRANCH  14  15
ENDBRANCH  13  14
ENDBRANCH  12  13
ENDBRANCH  11  12
ENDBRANCH   1  11
BRANCH   2  19
ATOM     19  C   UNL     1       2.572   5.001  20.375  0.00  0.00    +0.000 C 
BRANCH  19  20
ATOM     20  C   UNL     1       1.356   4.140  20.717  0.00  0.00    +0.000 C 
BRANCH  20  21
ATOM     21  C   UNL     1       1.471   2.707  20.175  0.00  0.00    +0.000 C 
BRANCH  21  22
ATOM     22  C   UNL     1       1.078   2.681  18.696  0.00  0.00    +0.000 C 
BRANCH  22  23
ATOM     23  C   UNL     1       2.259   2.368  17.777  0.00  0.00    +0.000 C 
ATOM     24  C   UNL     1       3.421   1.787  18.571  0.00  0.00    +0.000 C 
ENDBRANCH  22  23
ENDBRANCH  21  22
ENDBRANCH  20  21
ENDBRANCH  19  20
ENDBRANCH   2  19
TORSDOF 12
ENDMDL
MODEL 3
REMARK VINA RESULT:      -6.9      3.314      6.487
REMARK  Name = 
REMARK  15 active torsions:
REMARK  status: ('A' for Active; 'I' for Inactive)
REMARK    1  A    between atoms: C_1  and  C_2
REMARK    2  A    between atoms: C_2  and  C_3
REMARK    3  A    between atoms: C_3  and  C_4
REMARK    4  A    between atoms: C_4  and  C_5
REMARK    5  A    between atoms: C_5  and  C_6
REMARK    6  A    between atoms: C_6  and  C_7
REMARK    7  A    between atoms: C_7  and  O_8
REMARK    8  A    between atoms: O_8  and  N_9
REMARK    9  A    between atoms: C_10  and  C_11
REMARK   10  A    between atoms: C_11  and  C_12
REMARK   11  A    between atoms: C_12  and  C_13
REMARK   12  A    between atoms: C_13  and  C_14
REMARK   13  A    between atoms: C_14  and  C_15
REMARK   14  A    between atoms: C_15  and  C_16
REMARK   15  A    between atoms: C_19  and  C_20
REMARK                            x       y       z     vdW  Elec       q    Type
REMARK                         _______ _______ _______ _____ _____    ______ ____
ROOT
ATOM      1  N   UNL     1       2.623   6.982  18.784  0.00  0.00    +0.000 N 
ATOM      2  C   UNL     1       2.442   6.326  19.989  0.00  0.00    +0.000 A 
ATOM      3  N   UNL     1       1.741   7.079  20.820  0.00  0.00    +0.000 NA
ATOM      4  C   UNL     1       1.456   8.243  20.138  0.00  0.00    +0.000 A 
ATOM      5  C   UNL     1       0.693   9.353  20.546  0.00  0.00    +0.000 A 
ATOM      6  C   UNL     1      -0.036   9.415  21.855  0.00  0.00    +0.000 C 
ATOM      7  C   UNL     1       0.597  10.453  19.670  0.00  0.00    +0.000 A 
ATOM      8  C   UNL     1       1.202  10.436  18.418  0.00  0.00    +0.000 A 
ATOM      9  C   UNL     1       1.903   9.316  17.986  0.00  0.00    +0.000 A 
ATOM     10  C   UNL     1       2.025   8.224  18.862  0.00  0.00    +0.000 A 
ENDROOT
BRANCH   1  11
ATOM     11  O   UNL     1       3.184   6.367  17.642  0.00  0.00    +0.000 OA
BRANCH  11  12
ATOM     12  C   UNL     1       4.426   6.969  17.287  0.00  0.00    +0.000 C 
BRANCH  12  13
ATOM     13  C   UNL     1       5.542   5.947  17.402  0.00  0.00    +0.000 C 
BRANCH  13  14
ATOM     14  C   UNL     1       5.005   4.536  17.169  0.00  0.00    +0.000 C 
BRANCH  14  15
ATOM     15  C   UNL     1       5.683   3.902  15.960  0.00  0.00    +0.000 C 
BRANCH  15  16
ATOM     16  C   UNL     1       6.884   4.727  15.504  0.00  0.00    +0.000 C 
BRANCH  16  18
ATOM     17  C   UNL     1       5.993   3.795  13.346  0.00  0.00    +0.000 C 
ATOM     18  C   UNL     1       6.979   4.760  13.980  0.00  0.00    +0.000 C 
ENDBRANCH  16  18
ENDBRANCH  15  16
ENDBRANCH  14  15
ENDBRANCH  13  14
ENDBRANCH  12  13
ENDBRANCH  11  12
ENDBRANCH   1  11
BRANCH   2  19
ATOM     19  C   UNL     1       2.884   4.924  20.280  0.00  0.00    +0.000 C 
BRANCH  19  20
ATOM     20  C   UNL     1       1.750   4.003  20.730  0.00  0.00    +0.000 C 
BRANCH  20  21
ATOM     21  C   UNL     1       0.835   3.577  19.572  0.00  0.00    +0.000 C 
BRANCH  21  22
ATOM     22  C   UNL     1       1.218   2.172  19.100  0.00  0.00    +0.000 C 
BRANCH  22  23
ATOM     23  C   UNL     1       2.251   2.189  17.973  0.00  0.00    +0.000 C 
ATOM     24  C   UNL     1       3.524   1.469  18.397  0.00  0.00    +0.000 C 
ENDBRANCH  22  23
ENDBRANCH  21  22
ENDBRANCH  20  21
ENDBRANCH  19  20
ENDBRANCH   2  19
TORSDOF 12
ENDMDL
MODEL 4
REMARK VINA RESULT:      -6.9      1.443      7.247
REMARK  Name = 
REMARK  15 active torsions:
REMARK  status: ('A' for Active; 'I' for Inactive)
REMARK    1  A    between atoms: C_1  and  C_2
REMARK    2  A    between atoms: C_2  and  C_3
REMARK    3  A    between atoms: C_3  and  C_4
REMARK    4  A    between atoms: C_4  and  C_5
REMARK    5  A    between atoms: C_5  and  C_6
REMARK    6  A    between atoms: C_6  and  C_7
REMARK    7  A    between atoms: C_7  and  O_8
REMARK    8  A    between atoms: O_8  and  N_9
REMARK    9  A    between atoms: C_10  and  C_11
REMARK   10  A    between atoms: C_11  and  C_12
REMARK   11  A    between atoms: C_12  and  C_13
REMARK   12  A    between atoms: C_13  and  C_14
REMARK   13  A    between atoms: C_14  and  C_15
REMARK   14  A    between atoms: C_15  and  C_16
REMARK   15  A    between atoms: C_19  and  C_20
REMARK                            x       y       z     vdW  Elec       q    Type
REMARK                         _______ _______ _______ _____ _____    ______ ____
ROOT
ATOM      1  N   UNL     1       4.867   5.502  17.611  0.00  0.00    +0.000 N 
ATOM      2  C   UNL     1       4.977   4.366  16.828  0.00  0.00    +0.000 A 
ATOM      3  N   UNL     1       4.008   3.514  17.117  0.00  0.00    +0.000 NA
ATOM      4  C   UNL     1       3.252   4.111  18.104  0.00  0.00    +0.000 A 
ATOM      5  C   UNL     1       2.076   3.653  18.728  0.00  0.00    +0.000 A 
ATOM      6  C   UNL     1       1.379   2.384  18.341  0.00  0.00    +0.000 C 
ATOM      7  C   UNL     1       1.521   4.439  19.758  0.00  0.00    +0.000 A 
ATOM      8  C   UNL     1       2.087   5.655  20.127  0.00  0.00    +0.000 A 
ATOM      9  C   UNL     1       3.211   6.140  19.469  0.00  0.00    +0.000 A 
ATOM     10  C   UNL     1       3.787   5.353  18.458  0.00  0.00    +0.000 A 
ENDROOT
BRANCH   1  11
ATOM     11  O   UNL     1       5.654   6.659  17.415  0.00  0.00    +0.000 OA
BRANCH  11  12
ATOM     12  C   UNL     1       6.845   6.615  18.195  0.00  0.00    +0.000 C 
BRANCH  12  13
ATOM     13  C   UNL     1       7.935   7.419  17.511  0.00  0.00    +0.000 C 
BRANCH  13  14
ATOM     14  C   UNL     1       7.666   8.917  17.649  0.00  0.00    +0.000 C 
BRANCH  14  15
ATOM     15  C   UNL     1       8.644   9.544  18.635  0.00  0.00    +0.000 C 
BRANCH  15  16
ATOM     16  C   UNL     1       9.534  10.577  17.948  0.00  0.00    +0.000 C 
BRANCH  16  18
ATOM     17  C   UNL     1       8.151  12.607  17.414  0.00  0.00    +0.000 C 
ATOM     18  C   UNL     1       9.158  11.995  18.373  0.00  0.00    +0.000 C 
ENDBRANCH  16  18
ENDBRANCH  15  16
ENDBRANCH  14  15
ENDBRANCH  13  14
ENDBRANCH  12  13
ENDBRANCH  11  12
ENDBRANCH   1  11
BRANCH   2  19
ATOM     19  C   UNL     1       5.983   4.170  15.734  0.00  0.00    +0.000 C 
BRANCH  19  20
ATOM     20  C   UNL     1       5.395   4.297  14.329  0.00  0.00    +0.000 C 
BRANCH  20  21
ATOM     21  C   UNL     1       6.289   3.662  13.251  0.00  0.00    +0.000 C 
BRANCH  21  22
ATOM     22  C   UNL     1       5.455   3.348  12.007  0.00  0.00    +0.000 C 
BRANCH  22  23
ATOM     23  C   UNL     1       5.709   1.940  11.466  0.00  0.00    +0.000 C 
ATOM     24  C   UNL     1       7.158   1.786  11.026  0.00  0.00    +0.000 C 
ENDBRANCH  22  23
ENDBRANCH  21  22
ENDBRANCH  20  21
ENDBRANCH  19  20
ENDBRANCH   2  19
TORSDOF 12
ENDMDL
MODEL 5
REMARK VINA RESULT:      -6.9      3.023      4.670
REMARK  Name = 
REMARK  15 active torsions:
REMARK  status: ('A' for Active; 'I' for Inactive)
REMARK    1  A    between atoms: C_1  and  C_2
REMARK    2  A    between atoms: C_2  and  C_3
REMARK    3  A    between atoms: C_3  and  C_4
REMARK    4  A    between atoms: C_4  and  C_5
REMARK    5  A    between atoms: C_5  and  C_6
REMARK    6  A    between atoms: C_6  and  C_7
REMARK    7  A    between atoms: C_7  and  O_8
REMARK    8  A    between atoms: O_8  and  N_9
REMARK    9  A    between atoms: C_10  and  C_11
REMARK   10  A    between atoms: C_11  and  C_12
REMARK   11  A    between atoms: C_12  and  C_13
REMARK   12  A    between atoms: C_13  and  C_14
REMARK   13  A    between atoms: C_14  and  C_15
REMARK   14  A    between atoms: C_15  and  C_16
REMARK   15  A    between atoms: C_19  and  C_20
REMARK                            x       y       z     vdW  Elec       q    Type
REMARK                         _______ _______ _______ _____ _____    ______ ____
ROOT
ATOM      1  N   UNL     1       3.738   5.284  17.331  0.00  0.00    +0.000 N 
ATOM      2  C   UNL     1       3.045   6.231  18.065  0.00  0.00    +0.000 A 
ATOM      3  N   UNL     1       2.359   5.649  19.033  0.00  0.00    +0.000 NA
ATOM      4  C   UNL     1       2.616   4.298  18.930  0.00  0.00    +0.000 A 
ATOM      5  C   UNL     1       2.176   3.240  19.748  0.00  0.00    +0.000 A 
ATOM      6  C   UNL     1       1.355   3.442  20.986  0.00  0.00    +0.000 C 
ATOM      7  C   UNL     1       2.543   1.927  19.390  0.00  0.00    +0.000 A 
ATOM      8  C   UNL     1       3.349   1.675  18.287  0.00  0.00    +0.000 A 
ATOM      9  C   UNL     1       3.838   2.723  17.513  0.00  0.00    +0.000 A 
ATOM     10  C   UNL     1       3.458   4.034  17.847  0.00  0.00    +0.000 A 
ENDROOT
BRANCH   1  11
ATOM     11  O   UNL     1       4.690   5.612  16.341  0.00  0.00    +0.000 OA
BRANCH  11  12
ATOM     12  C   UNL     1       6.020   5.452  16.826  0.00  0.00    +0.000 C 
BRANCH  12  13
ATOM     13  C   UNL     1       6.721   4.355  16.047  0.00  0.00    +0.000 C 
BRANCH  13  14
ATOM     14  C   UNL     1       6.836   4.733  14.571  0.00  0.00    +0.000 C 
BRANCH  14  15
ATOM     15  C   UNL     1       5.868   3.907  13.733  0.00  0.00    +0.000 C 
BRANCH  15  16
ATOM     16  C   UNL     1       6.489   3.519  12.393  0.00  0.00    +0.000 C 
BRANCH  16  18
ATOM     17  C   UNL     1       6.608   1.391  11.060  0.00  0.00    +0.000 C 
ATOM     18  C   UNL     1       5.689   2.405  11.719  0.00  0.00    +0.000 C 
ENDBRANCH  16  18
ENDBRANCH  15  16
ENDBRANCH  14  15
ENDBRANCH  13  14
ENDBRANCH  12  13
ENDBRANCH  11  12
ENDBRANCH   1  11
BRANCH   2  19
ATOM     19  C   UNL     1       3.139   7.713  17.861  0.00  0.00    +0.000 C 
BRANCH  19  20
ATOM     20  C   UNL     1       2.073   8.505  18.617  0.00  0.00    +0.000 C 
BRANCH  20  21
ATOM     21  C   UNL     1       1.562   9.720  17.826  0.00  0.00    +0.000 C 
BRANCH  21  22
ATOM     22  C   UNL     1       0.120  10.033  18.233  0.00  0.00    +0.000 C 
BRANCH  22  23
ATOM     23  C   UNL     1      -0.049  11.459  18.758  0.00  0.00    +0.000 C 
ATOM     24  C   UNL     1      -1.422  12.008  18.393  0.00  0.00    +0.000 C 
ENDBRANCH  22  23
ENDBRANCH  21  22
ENDBRANCH  20  21
ENDBRANCH  19  20
ENDBRANCH   2  19
TORSDOF 12
ENDMDL
MODEL 6
REMARK VINA RESULT:      -6.8      2.904      4.618
REMARK  Name = 
REMARK  15 active torsions:
REMARK  status: ('A' for Active; 'I' for Inactive)
REMARK    1  A    between atoms: C_1  and  C_2
REMARK    2  A    between atoms: C_2  and  C_3
REMARK    3  A    between atoms: C_3  and  C_4
REMARK    4  A    between atoms: C_4  and  C_5
REMARK    5  A    between atoms: C_5  and  C_6
REMARK    6  A    between atoms: C_6  and  C_7
REMARK    7  A    between atoms: C_7  and  O_8
REMARK    8  A    between atoms: O_8  and  N_9
REMARK    9  A    between atoms: C_10  and  C_11
REMARK   10  A    between atoms: C_11  and  C_12
REMARK   11  A    between atoms: C_12  and  C_13
REMARK   12  A    between atoms: C_13  and  C_14
REMARK   13  A    between atoms: C_14  and  C_15
REMARK   14  A    between atoms: C_15  and  C_16
REMARK   15  A    between atoms: C_19  and  C_20
REMARK                            x       y       z     vdW  Elec       q    Type
REMARK                         _______ _______ _______ _____ _____    ______ ____
ROOT
ATOM      1  N   UNL     1       4.332   6.028  18.139  0.00  0.00    +0.000 N 
ATOM      2  C   UNL     1       3.169   6.766  18.272  0.00  0.00    +0.000 A 
ATOM      3  N   UNL     1       2.273   6.089  18.969  0.00  0.00    +0.000 NA
ATOM      4  C   UNL     1       2.868   4.890  19.301  0.00  0.00    +0.000 A 
ATOM      5  C   UNL     1       2.369   3.830  20.081  0.00  0.00    +0.000 A 
ATOM      6  C   UNL     1       1.041   3.873  20.776  0.00  0.00    +0.000 C 
ATOM      7  C   UNL     1       3.168   2.678  20.227  0.00  0.00    +0.000 A 
ATOM      8  C   UNL     1       4.433   2.597  19.656  0.00  0.00    +0.000 A 
ATOM      9  C   UNL     1       4.955   3.667  18.938  0.00  0.00    +0.000 A 
ATOM     10  C   UNL     1       4.157   4.810  18.766  0.00  0.00    +0.000 A 
ENDROOT
BRANCH   1  11
ATOM     11  O   UNL     1       5.525   6.551  17.593  0.00  0.00    +0.000 OA
BRANCH  11  12
ATOM     12  C   UNL     1       5.547   6.421  16.174  0.00  0.00    +0.000 C 
BRANCH  12  13
ATOM     13  C   UNL     1       6.513   5.321  15.776  0.00  0.00    +0.000 C 
BRANCH  13  14
ATOM     14  C   UNL     1       5.753   4.053  15.388  0.00  0.00    +0.000 C 
BRANCH  14  15
ATOM     15  C   UNL     1       5.322   4.118  13.927  0.00  0.00    +0.000 C 
BRANCH  15  16
ATOM     16  C   UNL     1       6.389   3.525  13.009  0.00  0.00    +0.000 C 
BRANCH  16  18
ATOM     17  C   UNL     1       4.345   3.390  11.553  0.00  0.00    +0.000 C 
ATOM     18  C   UNL     1       5.756   2.877  11.779  0.00  0.00    +0.000 C 
ENDBRANCH  16  18
ENDBRANCH  15  16
ENDBRANCH  14  15
ENDBRANCH  13  14
ENDBRANCH  12  13
ENDBRANCH  11  12
ENDBRANCH   1  11
BRANCH   2  19
ATOM     19  C   UNL     1       2.982   8.172  17.787  0.00  0.00    +0.000 C 
BRANCH  19  20
ATOM     20  C   UNL     1       1.555   8.695  17.952  0.00  0.00    +0.000 C 
BRANCH  20  21
ATOM     21  C   UNL     1       1.464   9.876  18.930  0.00  0.00    +0.000 C 
BRANCH  21  22
ATOM     22  C   UNL     1       0.467   9.549  20.045  0.00  0.00    +0.000 C 
BRANCH  22  23
ATOM     23  C   UNL     1       1.111   8.797  21.210  0.00  0.00    +0.000 C 
ATOM     24  C   UNL     1       0.502   9.234  22.535  0.00  0.00    +0.000 C 
ENDBRANCH  22  23
ENDBRANCH  21  22
ENDBRANCH  20  21
ENDBRANCH  19  20
ENDBRANCH   2  19
TORSDOF 12
ENDMDL
MODEL 7
REMARK VINA RESULT:      -6.8      3.715      7.349
REMARK  Name = 
REMARK  15 active torsions:
REMARK  status: ('A' for Active; 'I' for Inactive)
REMARK    1  A    between atoms: C_1  and  C_2
REMARK    2  A    between atoms: C_2  and  C_3
REMARK    3  A    between atoms: C_3  and  C_4
REMARK    4  A    between atoms: C_4  and  C_5
REMARK    5  A    between atoms: C_5  and  C_6
REMARK    6  A    between atoms: C_6  and  C_7
REMARK    7  A    between atoms: C_7  and  O_8
REMARK    8  A    between atoms: O_8  and  N_9
REMARK    9  A    between atoms: C_10  and  C_11
REMARK   10  A    between atoms: C_11  and  C_12
REMARK   11  A    between atoms: C_12  and  C_13
REMARK   12  A    between atoms: C_13  and  C_14
REMARK   13  A    between atoms: C_14  and  C_15
REMARK   14  A    between atoms: C_15  and  C_16
REMARK   15  A    between atoms: C_19  and  C_20
REMARK                            x       y       z     vdW  Elec       q    Type
REMARK                         _______ _______ _______ _____ _____    ______ ____
ROOT
ATOM      1  N   UNL     1       2.204   7.140  19.090  0.00  0.00    +0.000 N 
ATOM      2  C   UNL     1       1.964   6.658  20.365  0.00  0.00    +0.000 A 
ATOM      3  N   UNL     1       1.426   7.602  21.118  0.00  0.00    +0.000 NA
ATOM      4  C   UNL     1       1.310   8.717  20.314  0.00  0.00    +0.000 A 
ATOM      5  C   UNL     1       0.753   9.976  20.608  0.00  0.00    +0.000 A 
ATOM      6  C   UNL     1       0.094  10.300  21.915  0.00  0.00    +0.000 C 
ATOM      7  C   UNL     1       0.805  10.974  19.615  0.00  0.00    +0.000 A 
ATOM      8  C   UNL     1       1.352  10.722  18.362  0.00  0.00    +0.000 A 
ATOM      9  C   UNL     1       1.845   9.460  18.047  0.00  0.00    +0.000 A 
ATOM     10  C   UNL     1       1.820   8.465  19.038  0.00  0.00    +0.000 A 
ENDROOT
BRANCH   1  11
ATOM     11  O   UNL     1       2.615   6.321  18.015  0.00  0.00    +0.000 OA
BRANCH  11  12
ATOM     12  C   UNL     1       4.016   6.435  17.781  0.00  0.00    +0.000 C 
BRANCH  12  13
ATOM     13  C   UNL     1       4.510   5.219  17.020  0.00  0.00    +0.000 C 
BRANCH  13  14
ATOM     14  C   UNL     1       5.760   4.642  17.682  0.00  0.00    +0.000 C 
BRANCH  14  15
ATOM     15  C   UNL     1       6.181   5.505  18.866  0.00  0.00    +0.000 C 
BRANCH  15  16
ATOM     16  C   UNL     1       7.571   6.097  18.651  0.00  0.00    +0.000 C 
BRANCH  16  18
ATOM     17  C   UNL     1       8.084   8.435  17.883  0.00  0.00    +0.000 C 
ATOM     18  C   UNL     1       7.579   7.065  17.468  0.00  0.00    +0.000 C 
ENDBRANCH  16  18
ENDBRANCH  15  16
ENDBRANCH  14  15
ENDBRANCH  13  14
ENDBRANCH  12  13
ENDBRANCH  11  12
ENDBRANCH   1  11
BRANCH   2  19
ATOM     19  C   UNL     1       2.182   5.242  20.804  0.00  0.00    +0.000 C 
BRANCH  19  20
ATOM     20  C   UNL     1       1.016   4.310  20.475  0.00  0.00    +0.000 C 
BRANCH  20  21
ATOM     21  C   UNL     1       1.259   2.866  20.943  0.00  0.00    +0.000 C 
BRANCH  21  22
ATOM     22  C   UNL     1       1.832   2.038  19.790  0.00  0.00    +0.000 C 
BRANCH  22  23
ATOM     23  C   UNL     1       1.664   2.721  18.432  0.00  0.00    +0.000 C 
ATOM     24  C   UNL     1       2.683   2.193  17.433  0.00  0.00    +0.000 C 
ENDBRANCH  22  23
ENDBRANCH  21  22
ENDBRANCH  20  21
ENDBRANCH  19  20
ENDBRANCH   2  19
TORSDOF 12
ENDMDL
MODEL 8
REMARK VINA RESULT:      -6.8      1.612      2.138
REMARK  Name = 
REMARK  15 active torsions:
REMARK  status: ('A' for Active; 'I' for Inactive)
REMARK    1  A    between atoms: C_1  and  C_2
REMARK    2  A    between atoms: C_2  and  C_3
REMARK    3  A    between atoms: C_3  and  C_4
REMARK    4  A    between atoms: C_4  and  C_5
REMARK    5  A    between atoms: C_5  and  C_6
REMARK    6  A    between atoms: C_6  and  C_7
REMARK    7  A    between atoms: C_7  and  O_8
REMARK    8  A    between atoms: O_8  and  N_9
REMARK    9  A    between atoms: C_10  and  C_11
REMARK   10  A    between atoms: C_11  and  C_12
REMARK   11  A    between atoms: C_12  and  C_13
REMARK   12  A    between atoms: C_13  and  C_14
REMARK   13  A    between atoms: C_14  and  C_15
REMARK   14  A    between atoms: C_15  and  C_16
REMARK   15  A    between atoms: C_19  and  C_20
REMARK                            x       y       z     vdW  Elec       q    Type
REMARK                         _______ _______ _______ _____ _____    ______ ____
ROOT
ATOM      1  N   UNL     1       5.318   4.366  17.608  0.00  0.00    +0.000 N 
ATOM      2  C   UNL     1       5.579   5.334  18.562  0.00  0.00    +0.000 A 
ATOM      3  N   UNL     1       4.629   5.340  19.481  0.00  0.00    +0.000 NA
ATOM      4  C   UNL     1       3.737   4.353  19.120  0.00  0.00    +0.000 A 
ATOM      5  C   UNL     1       2.576   3.910  19.783  0.00  0.00    +0.000 A 
ATOM      6  C   UNL     1       2.138   4.439  21.116  0.00  0.00    +0.000 C 
ATOM      7  C   UNL     1       1.800   2.908  19.168  0.00  0.00    +0.000 A 
ATOM      8  C   UNL     1       2.181   2.336  17.959  0.00  0.00    +0.000 A 
ATOM      9  C   UNL     1       3.360   2.726  17.333  0.00  0.00    +0.000 A 
ATOM     10  C   UNL     1       4.129   3.741  17.926  0.00  0.00    +0.000 A 
ENDROOT
BRANCH   1  11
ATOM     11  O   UNL     1       6.236   4.006  16.596  0.00  0.00    +0.000 OA
BRANCH  11  12
ATOM     12  C   UNL     1       5.904   4.618  15.353  0.00  0.00    +0.000 C 
BRANCH  12  13
ATOM     13  C   UNL     1       6.002   3.595  14.236  0.00  0.00    +0.000 C 
BRANCH  13  14
ATOM     14  C   UNL     1       5.186   4.043  13.025  0.00  0.00    +0.000 C 
BRANCH  14  15
ATOM     15  C   UNL     1       5.459   3.132  11.833  0.00  0.00    +0.000 C 
BRANCH  15  16
ATOM     16  C   UNL     1       6.958   2.938  11.619  0.00  0.00    +0.000 C 
BRANCH  16  18
ATOM     17  C   UNL     1       6.124   0.607  11.182  0.00  0.00    +0.000 C 
ATOM     18  C   UNL     1       7.246   1.601  10.938  0.00  0.00    +0.000 C 
ENDBRANCH  16  18
ENDBRANCH  15  16
ENDBRANCH  14  15
ENDBRANCH  13  14
ENDBRANCH  12  13
ENDBRANCH  11  12
ENDBRANCH   1  11
BRANCH   2  19
ATOM     19  C   UNL     1       6.813   6.184  18.610  0.00  0.00    +0.000 C 
BRANCH  19  20
ATOM     20  C   UNL     1       6.788   7.358  17.633  0.00  0.00    +0.000 C 
BRANCH  20  21
ATOM     21  C   UNL     1       8.149   8.062  17.513  0.00  0.00    +0.000 C 
BRANCH  21  22
ATOM     22  C   UNL     1       8.020   9.518  17.967  0.00  0.00    +0.000 C 
BRANCH  22  23
ATOM     23  C   UNL     1       9.153   9.949  18.899  0.00  0.00    +0.000 C 
ATOM     24  C   UNL     1       9.765  11.263  18.432  0.00  0.00    +0.000 C 
ENDBRANCH  22  23
ENDBRANCH  21  22
ENDBRANCH  20  21
ENDBRANCH  19  20
ENDBRANCH   2  19
TORSDOF 12
ENDMDL
MODEL 9
REMARK VINA RESULT:      -6.8      2.824      4.641
REMARK  Name = 
REMARK  15 active torsions:
REMARK  status: ('A' for Active; 'I' for Inactive)
REMARK    1  A    between atoms: C_1  and  C_2
REMARK    2  A    between atoms: C_2  and  C_3
REMARK    3  A    between atoms: C_3  and  C_4
REMARK    4  A    between atoms: C_4  and  C_5
REMARK    5  A    between atoms: C_5  and  C_6
REMARK    6  A    between atoms: C_6  and  C_7
REMARK    7  A    between atoms: C_7  and  O_8
REMARK    8  A    between atoms: O_8  and  N_9
REMARK    9  A    between atoms: C_10  and  C_11
REMARK   10  A    between atoms: C_11  and  C_12
REMARK   11  A    between atoms: C_12  and  C_13
REMARK   12  A    between atoms: C_13  and  C_14
REMARK   13  A    between atoms: C_14  and  C_15
REMARK   14  A    between atoms: C_15  and  C_16
REMARK   15  A    between atoms: C_19  and  C_20
REMARK                            x       y       z     vdW  Elec       q    Type
REMARK                         _______ _______ _______ _____ _____    ______ ____
ROOT
ATOM      1  N   UNL     1       3.720   5.537  17.425  0.00  0.00    +0.000 N 
ATOM      2  C   UNL     1       2.904   6.403  18.130  0.00  0.00    +0.000 A 
ATOM      3  N   UNL     1       2.123   5.727  18.956  0.00  0.00    +0.000 NA
ATOM      4  C   UNL     1       2.444   4.396  18.787  0.00  0.00    +0.000 A 
ATOM      5  C   UNL     1       1.946   3.265  19.461  0.00  0.00    +0.000 A 
ATOM      6  C   UNL     1       0.968   3.345  20.594  0.00  0.00    +0.000 C 
ATOM      7  C   UNL     1       2.406   1.995  19.058  0.00  0.00    +0.000 A 
ATOM      8  C   UNL     1       3.356   1.855  18.052  0.00  0.00    +0.000 A 
ATOM      9  C   UNL     1       3.897   2.973  17.428  0.00  0.00    +0.000 A 
ATOM     10  C   UNL     1       3.427   4.242  17.806  0.00  0.00    +0.000 A 
ENDROOT
BRANCH   1  11
ATOM     11  O   UNL     1       4.777   5.970  16.593  0.00  0.00    +0.000 OA
BRANCH  11  12
ATOM     12  C   UNL     1       6.015   5.995  17.297  0.00  0.00    +0.000 C 
BRANCH  12  13
ATOM     13  C   UNL     1       7.097   5.348  16.452  0.00  0.00    +0.000 C 
BRANCH  13  14
ATOM     14  C   UNL     1       6.642   5.221  15.000  0.00  0.00    +0.000 C 
BRANCH  14  15
ATOM     15  C   UNL     1       6.184   3.797  14.708  0.00  0.00    +0.000 C 
BRANCH  15  16
ATOM     16  C   UNL     1       5.358   3.733  13.426  0.00  0.00    +0.000 C 
BRANCH  16  18
ATOM     17  C   UNL     1       5.615   2.178  11.468  0.00  0.00    +0.000 C 
ATOM     18  C   UNL     1       6.226   3.340  12.232  0.00  0.00    +0.000 C 
ENDBRANCH  16  18
ENDBRANCH  15  16
ENDBRANCH  14  15
ENDBRANCH  13  14
ENDBRANCH  12  13
ENDBRANCH  11  12
ENDBRANCH   1  11
BRANCH   2  19
ATOM     19  C   UNL     1       2.964   7.898  18.051  0.00  0.00    +0.000 C 
BRANCH  19  20
ATOM     20  C   UNL     1       1.639   8.546  17.649  0.00  0.00    +0.000 C 
BRANCH  20  21
ATOM     21  C   UNL     1       1.257   9.728  18.553  0.00  0.00    +0.000 C 
BRANCH  21  22
ATOM     22  C   UNL     1       1.011   9.230  19.979  0.00  0.00    +0.000 C 
BRANCH  22  23
ATOM     23  C   UNL     1       0.762  10.370  20.968  0.00  0.00    +0.000 C 
ATOM     24  C   UNL     1      -0.557  11.067  20.666  0.00  0.00    +0.000 C 
ENDBRANCH  22  23
ENDBRANCH  21  22
ENDBRANCH  20  21
ENDBRANCH  19  20
ENDBRANCH   2  19
TORSDOF 12
ENDMDL
