MODEL 1
REMARK VINA RESULT:      -8.0      0.000      0.000
REMARK  Name = 
REMARK  8 active torsions:
REMARK  status: ('A' for Active; 'I' for Inactive)
REMARK    1  A    between atoms: C_1  and  C_20
REMARK    2  A    between atoms: C_2  and  C_3
REMARK    3  A    between atoms: C_8  and  O_9
REMARK    4  A    between atoms: O_9  and  C_10
REMARK    5  A    between atoms: C_10  and  C_11
REMARK    6  A    between atoms: C_11  and  C_12
REMARK    7  A    between atoms: C_12  and  C_13
REMARK    8  A    between atoms: C_13  and  N_14
REMARK                            x       y       z     vdW  Elec       q    Type
REMARK                         _______ _______ _______ _____ _____    ______ ____
ROOT
ATOM      1  C   UNL     1       5.324   4.540  15.983  0.00  0.00    +0.000 A 
ATOM      2  C   UNL     1       5.294   3.810  14.772  0.00  0.00    +0.000 A 
ATOM      3  C   UNL     1       6.260   3.986  13.787  0.00  0.00    +0.000 A 
ATOM      4  C   UNL     1       7.281   4.898  13.979  0.00  0.00    +0.000 A 
ATOM      5  C   UNL     1       7.336   5.650  15.152  0.00  0.00    +0.000 A 
ATOM      6  C   UNL     1       6.374   5.491  16.186  0.00  0.00    +0.000 A 
ENDROOT
BRANCH   1   8
ATOM      7  C   UNL     1       3.449   4.971  17.659  0.00  0.00    +0.000 C 
ATOM      8  C   UNL     1       4.245   4.159  16.944  0.00  0.00    +0.000 C 
BRANCH   7   9
ATOM      9  C   UNL     1       2.549   4.454  18.738  0.00  0.00    +0.000 A 
ATOM     10  C   UNL     1       2.731   4.960  20.033  0.00  0.00    +0.000 A 
ATOM     11  C   UNL     1       2.016   4.438  21.116  0.00  0.00    +0.000 A 
ATOM     12  C   UNL     1       1.089   3.413  20.916  0.00  0.00    +0.000 A 
ATOM     13  C   UNL     1       0.863   2.921  19.631  0.00  0.00    +0.000 A 
ATOM     14  C   UNL     1       1.583   3.433  18.544  0.00  0.00    +0.000 A 
ENDBRANCH   7   9
ENDBRANCH   1   8
BRANCH   6  15
ATOM     15  O   UNL     1       6.480   6.227  17.336  0.00  0.00    +0.000 OA
BRANCH  15  16
ATOM     16  C   UNL     1       7.656   6.832  17.782  0.00  0.00    +0.000 C 
BRANCH  16  17
ATOM     17  C   UNL     1       7.661   8.351  17.579  0.00  0.00    +0.000 C 
BRANCH  17  18
ATOM     18  C   UNL     1       8.723   9.019  18.466  0.00  0.00    +0.000 C 
BRANCH  18  19
ATOM     19  C   UNL     1       8.763  10.552  18.299  0.00  0.00    +0.000 C 
BRANCH  19  20
ATOM     20  N   UNL     1      10.125  11.129  18.389  0.00  0.00    +0.000 NA
ATOM     21  C   UNL     1      10.256  12.372  17.595  0.00  0.00    +0.000 C 
ATOM     22  C   UNL     1      11.688  12.909  17.678  0.00  0.00    +0.000 C 
ATOM     23  C   UNL     1      12.048  13.198  19.133  0.00  0.00    +0.000 C 
ATOM     24  C   UNL     1      11.878  11.922  19.959  0.00  0.00    +0.000 C 
ATOM     25  C   UNL     1      10.445  11.395  19.812  0.00  0.00    +0.000 C 
ENDBRANCH  19  20
ENDBRANCH  18  19
ENDBRANCH  17  18
ENDBRANCH  16  17
ENDBRANCH  15  16
ENDBRANCH   6  15
TORSDOF 8
ENDMDL
MODEL 2
REMARK VINA RESULT:      -7.7      1.243      1.577
REMARK  Name = 
REMARK  8 active torsions:
REMARK  status: ('A' for Active; 'I' for Inactive)
REMARK    1  A    between atoms: C_1  and  C_20
REMARK    2  A    between atoms: C_2  and  C_3
REMARK    3  A    between atoms: C_8  and  O_9
REMARK    4  A    between atoms: O_9  and  C_10
REMARK    5  A    between atoms: C_10  and  C_11
REMARK    6  A    between atoms: C_11  and  C_12
REMARK    7  A    between atoms: C_12  and  C_13
REMARK    8  A    between atoms: C_13  and  N_14
REMARK                            x       y       z     vdW  Elec       q    Type
REMARK                         _______ _______ _______ _____ _____    ______ ____
ROOT
ATOM      1  C   UNL     1       5.551   4.455  16.916  0.00  0.00    +0.000 A 
ATOM      2  C   UNL     1       5.007   4.094  15.661  0.00  0.00    +0.000 A 
ATOM      3  C   UNL     1       5.706   4.294  14.476  0.00  0.00    +0.000 A 
ATOM      4  C   UNL     1       6.965   4.863  14.506  0.00  0.00    +0.000 A 
ATOM      5  C   UNL     1       7.529   5.249  15.721  0.00  0.00    +0.000 A 
ATOM      6  C   UNL     1       6.852   5.051  16.955  0.00  0.00    +0.000 A 
ENDROOT
BRANCH   1   8
ATOM      7  C   UNL     1       3.928   2.994  18.236  0.00  0.00    +0.000 C 
ATOM      8  C   UNL     1       4.681   4.094  18.077  0.00  0.00    +0.000 C 
BRANCH   7   9
ATOM      9  C   UNL     1       2.946   2.857  19.358  0.00  0.00    +0.000 A 
ATOM     10  C   UNL     1       1.592   3.069  19.065  0.00  0.00    +0.000 A 
ATOM     11  C   UNL     1       0.630   3.083  20.080  0.00  0.00    +0.000 A 
ATOM     12  C   UNL     1       1.007   2.862  21.407  0.00  0.00    +0.000 A 
ATOM     13  C   UNL     1       2.343   2.611  21.718  0.00  0.00    +0.000 A 
ATOM     14  C   UNL     1       3.312   2.605  20.705  0.00  0.00    +0.000 A 
ENDBRANCH   7   9
ENDBRANCH   1   8
BRANCH   6  15
ATOM     15  O   UNL     1       7.452   5.417  18.130  0.00  0.00    +0.000 OA
BRANCH  15  16
ATOM     16  C   UNL     1       7.962   6.688  18.395  0.00  0.00    +0.000 C 
BRANCH  16  17
ATOM     17  C   UNL     1       7.446   7.754  17.423  0.00  0.00    +0.000 C 
BRANCH  17  18
ATOM     18  C   UNL     1       7.878   9.159  17.871  0.00  0.00    +0.000 C 
BRANCH  18  19
ATOM     19  C   UNL     1       8.959   9.132  18.970  0.00  0.00    +0.000 C 
BRANCH  19  20
ATOM     20  N   UNL     1       9.704  10.405  19.111  0.00  0.00    +0.000 NA
ATOM     21  C   UNL     1       9.411  11.346  18.006  0.00  0.00    +0.000 C 
ATOM     22  C   UNL     1      10.235  12.627  18.164  0.00  0.00    +0.000 C 
ATOM     23  C   UNL     1       9.902  13.293  19.497  0.00  0.00    +0.000 C 
ATOM     24  C   UNL     1      10.170  12.308  20.635  0.00  0.00    +0.000 C 
ATOM     25  C   UNL     1       9.362  11.024  20.414  0.00  0.00    +0.000 C 
ENDBRANCH  19  20
ENDBRANCH  18  19
ENDBRANCH  17  18
ENDBRANCH  16  17
ENDBRANCH  15  16
ENDBRANCH   6  15
TORSDOF 8
ENDMDL
MODEL 3
REMARK VINA RESULT:      -7.6      0.916      1.503
REMARK  Name = 
REMARK  8 active torsions:
REMARK  status: ('A' for Active; 'I' for Inactive)
REMARK    1  A    between atoms: C_1  and  C_20
REMARK    2  A    between atoms: C_2  and  C_3
REMARK    3  A    between atoms: C_8  and  O_9
REMARK    4  A    between atoms: O_9  and  C_10
REMARK    5  A    between atoms: C_10  and  C_11
REMARK    6  A    between atoms: C_11  and  C_12
REMARK    7  A    between atoms: C_12  and  C_13
REMARK    8  A    between atoms: C_13  and  N_14
REMARK                            x       y       z     vdW  Elec       q    Type
REMARK                         _______ _______ _______ _____ _____    ______ ____
ROOT
ATOM      1  C   UNL     1       5.233   4.727  16.311  0.00  0.00    +0.000 A 
ATOM      2  C   UNL     1       5.209   3.685  15.356  0.00  0.00    +0.000 A 
ATOM      3  C   UNL     1       6.046   3.690  14.246  0.00  0.00    +0.000 A 
ATOM      4  C   UNL     1       6.929   4.737  14.054  0.00  0.00    +0.000 A 
ATOM      5  C   UNL     1       6.970   5.792  14.963  0.00  0.00    +0.000 A 
ATOM      6  C   UNL     1       6.139   5.818  16.115  0.00  0.00    +0.000 A 
ENDROOT
BRANCH   1   8
ATOM      7  C   UNL     1       4.285   3.464  18.315  0.00  0.00    +0.000 C 
ATOM      8  C   UNL     1       4.313   4.506  17.469  0.00  0.00    +0.000 C 
BRANCH   7   9
ATOM      9  C   UNL     1       3.178   3.274  19.305  0.00  0.00    +0.000 A 
ATOM     10  C   UNL     1       1.917   3.789  18.975  0.00  0.00    +0.000 A 
ATOM     11  C   UNL     1       0.865   3.761  19.898  0.00  0.00    +0.000 A 
ATOM     12  C   UNL     1       1.055   3.197  21.161  0.00  0.00    +0.000 A 
ATOM     13  C   UNL     1       2.290   2.643  21.497  0.00  0.00    +0.000 A 
ATOM     14  C   UNL     1       3.349   2.677  20.580  0.00  0.00    +0.000 A 
ENDBRANCH   7   9
ENDBRANCH   1   8
BRANCH   6  15
ATOM     15  O   UNL     1       6.231   6.859  17.001  0.00  0.00    +0.000 OA
BRANCH  15  16
ATOM     16  C   UNL     1       7.293   7.054  17.884  0.00  0.00    +0.000 C 
BRANCH  16  17
ATOM     17  C   UNL     1       8.242   8.172  17.441  0.00  0.00    +0.000 C 
BRANCH  17  18
ATOM     18  C   UNL     1       8.363   9.252  18.528  0.00  0.00    +0.000 C 
BRANCH  18  19
ATOM     19  C   UNL     1       8.474  10.676  17.947  0.00  0.00    +0.000 C 
BRANCH  19  20
ATOM     20  N   UNL     1       9.482  11.523  18.625  0.00  0.00    +0.000 NA
ATOM     21  C   UNL     1       9.763  11.059  20.003  0.00  0.00    +0.000 C 
ATOM     22  C   UNL     1      10.773  11.988  20.682  0.00  0.00    +0.000 C 
ATOM     23  C   UNL     1      12.073  12.012  19.882  0.00  0.00    +0.000 C 
ATOM     24  C   UNL     1      11.776  12.457  18.450  0.00  0.00    +0.000 C 
ATOM     25  C   UNL     1      10.729  11.529  17.823  0.00  0.00    +0.000 C 
ENDBRANCH  19  20
ENDBRANCH  18  19
ENDBRANCH  17  18
ENDBRANCH  16  17
ENDBRANCH  15  16
ENDBRANCH   6  15
TORSDOF 8
ENDMDL
MODEL 4
REMARK VINA RESULT:      -7.6      5.215      8.123
REMARK  Name = 
REMARK  8 active torsions:
REMARK  status: ('A' for Active; 'I' for Inactive)
REMARK    1  A    between atoms: C_1  and  C_20
REMARK    2  A    between atoms: C_2  and  C_3
REMARK    3  A    between atoms: C_8  and  O_9
REMARK    4  A    between atoms: O_9  and  C_10
REMARK    5  A    between atoms: C_10  and  C_11
REMARK    6  A    between atoms: C_11  and  C_12
REMARK    7  A    between atoms: C_12  and  C_13
REMARK    8  A    between atoms: C_13  and  N_14
REMARK                            x       y       z     vdW  Elec       q    Type
REMARK                         _______ _______ _______ _____ _____    ______ ____
ROOT
ATOM      1  C   UNL     1       2.936   3.758  17.906  0.00  0.00    +0.000 A 
ATOM      2  C   UNL     1       2.839   2.472  18.484  0.00  0.00    +0.000 A 
ATOM      3  C   UNL     1       2.064   2.233  19.614  0.00  0.00    +0.000 A 
ATOM      4  C   UNL     1       1.366   3.272  20.202  0.00  0.00    +0.000 A 
ATOM      5  C   UNL     1       1.450   4.558  19.673  0.00  0.00    +0.000 A 
ATOM      6  C   UNL     1       2.222   4.840  18.514  0.00  0.00    +0.000 A 
ENDROOT
BRANCH   1   8
ATOM      7  C   UNL     1       5.078   4.006  16.542  0.00  0.00    +0.000 C 
ATOM      8  C   UNL     1       3.756   3.798  16.657  0.00  0.00    +0.000 C 
BRANCH   7   9
ATOM      9  C   UNL     1       5.736   4.224  15.215  0.00  0.00    +0.000 A 
ATOM     10  C   UNL     1       5.189   3.568  14.104  0.00  0.00    +0.000 A 
ATOM     11  C   UNL     1       5.819   3.622  12.856  0.00  0.00    +0.000 A 
ATOM     12  C   UNL     1       6.998   4.352  12.696  0.00  0.00    +0.000 A 
ATOM     13  C   UNL     1       7.540   5.045  13.778  0.00  0.00    +0.000 A 
ATOM     14  C   UNL     1       6.918   4.987  15.033  0.00  0.00    +0.000 A 
ENDBRANCH   7   9
ENDBRANCH   1   8
BRANCH   6  15
ATOM     15  O   UNL     1       2.255   6.112  18.007  0.00  0.00    +0.000 OA
BRANCH  15  16
ATOM     16  C   UNL     1       3.006   7.158  18.545  0.00  0.00    +0.000 C 
BRANCH  16  17
ATOM     17  C   UNL     1       2.744   8.499  17.852  0.00  0.00    +0.000 C 
BRANCH  17  18
ATOM     18  C   UNL     1       1.288   8.947  18.055  0.00  0.00    +0.000 C 
BRANCH  18  19
ATOM     19  C   UNL     1       1.166  10.199  18.948  0.00  0.00    +0.000 C 
BRANCH  19  20
ATOM     20  N   UNL     1       0.268  10.019  20.113  0.00  0.00    +0.000 NA
ATOM     21  C   UNL     1       0.631   8.829  20.916  0.00  0.00    +0.000 C 
ATOM     22  C   UNL     1      -0.347   8.654  22.081  0.00  0.00    +0.000 C 
ATOM     23  C   UNL     1      -0.317   9.894  22.971  0.00  0.00    +0.000 C 
ATOM     24  C   UNL     1      -0.656  11.126  22.134  0.00  0.00    +0.000 C 
ATOM     25  C   UNL     1       0.318  11.239  20.955  0.00  0.00    +0.000 C 
ENDBRANCH  19  20
ENDBRANCH  18  19
ENDBRANCH  17  18
ENDBRANCH  16  17
ENDBRANCH  15  16
ENDBRANCH   6  15
TORSDOF 8
ENDMDL
MODEL 5
REMARK VINA RESULT:      -7.6      1.008      1.615
REMARK  Name = 
REMARK  8 active torsions:
REMARK  status: ('A' for Active; 'I' for Inactive)
REMARK    1  A    between atoms: C_1  and  C_20
REMARK    2  A    between atoms: C_2  and  C_3
REMARK    3  A    between atoms: C_8  and  O_9
REMARK    4  A    between atoms: O_9  and  C_10
REMARK    5  A    between atoms: C_10  and  C_11
REMARK    6  A    between atoms: C_11  and  C_12
REMARK    7  A    between atoms: C_12  and  C_13
REMARK    8  A    between atoms: C_13  and  N_14
REMARK                            x       y       z     vdW  Elec       q    Type
REMARK                         _______ _______ _______ _____ _____    ______ ____
ROOT
ATOM      1  C   UNL     1       5.499   4.292  16.302  0.00  0.00    +0.000 A 
ATOM      2  C   UNL     1       5.157   4.020  14.957  0.00  0.00    +0.000 A 
ATOM      3  C   UNL     1       6.020   4.320  13.907  0.00  0.00    +0.000 A 
ATOM      4  C   UNL     1       7.246   4.901  14.169  0.00  0.00    +0.000 A 
ATOM      5  C   UNL     1       7.613   5.201  15.480  0.00  0.00    +0.000 A 
ATOM      6  C   UNL     1       6.765   4.901  16.580  0.00  0.00    +0.000 A 
ENDROOT
BRANCH   1   8
ATOM      7  C   UNL     1       3.845   4.559  18.226  0.00  0.00    +0.000 C 
ATOM      8  C   UNL     1       4.475   3.832  17.289  0.00  0.00    +0.000 C 
BRANCH   7   9
ATOM      9  C   UNL     1       2.993   3.928  19.283  0.00  0.00    +0.000 A 
ATOM     10  C   UNL     1       1.638   4.284  19.323  0.00  0.00    +0.000 A 
ATOM     11  C   UNL     1       0.806   3.835  20.354  0.00  0.00    +0.000 A 
ATOM     12  C   UNL     1       1.315   3.002  21.353  0.00  0.00    +0.000 A 
ATOM     13  C   UNL     1       2.651   2.603  21.313  0.00  0.00    +0.000 A 
ATOM     14  C   UNL     1       3.491   3.058  20.287  0.00  0.00    +0.000 A 
ENDBRANCH   7   9
ENDBRANCH   1   8
BRANCH   6  15
ATOM     15  O   UNL     1       7.174   5.183  17.856  0.00  0.00    +0.000 OA
BRANCH  15  16
ATOM     16  C   UNL     1       7.685   6.414  18.268  0.00  0.00    +0.000 C 
BRANCH  16  17
ATOM     17  C   UNL     1       7.043   7.600  17.542  0.00  0.00    +0.000 C 
BRANCH  17  18
ATOM     18  C   UNL     1       8.011   8.793  17.478  0.00  0.00    +0.000 C 
BRANCH  18  19
ATOM     19  C   UNL     1       8.670   9.102  18.837  0.00  0.00    +0.000 C 
BRANCH  19  20
ATOM     20  N   UNL     1       8.989  10.535  19.037  0.00  0.00    +0.000 NA
ATOM     21  C   UNL     1       9.598  10.790  20.362  0.00  0.00    +0.000 C 
ATOM     22  C   UNL     1       9.868  12.287  20.545  0.00  0.00    +0.000 C 
ATOM     23  C   UNL     1      10.812  12.779  19.451  0.00  0.00    +0.000 C 
ATOM     24  C   UNL     1      10.199  12.482  18.083  0.00  0.00    +0.000 C 
ATOM     25  C   UNL     1       9.904  10.983  17.959  0.00  0.00    +0.000 C 
ENDBRANCH  19  20
ENDBRANCH  18  19
ENDBRANCH  17  18
ENDBRANCH  16  17
ENDBRANCH  15  16
ENDBRANCH   6  15
TORSDOF 8
ENDMDL
MODEL 6
REMARK VINA RESULT:      -7.5      2.603      8.716
REMARK  Name = 
REMARK  8 active torsions:
REMARK  status: ('A' for Active; 'I' for Inactive)
REMARK    1  A    between atoms: C_1  and  C_20
REMARK    2  A    between atoms: C_2  and  C_3
REMARK    3  A    between atoms: C_8  and  O_9
REMARK    4  A    between atoms: O_9  and  C_10
REMARK    5  A    between atoms: C_10  and  C_11
REMARK    6  A    between atoms: C_11  and  C_12
REMARK    7  A    between atoms: C_12  and  C_13
REMARK    8  A    between atoms: C_13  and  N_14
REMARK                            x       y       z     vdW  Elec       q    Type
REMARK                         _______ _______ _______ _____ _____    ______ ____
ROOT
ATOM      1  C   UNL     1       6.605   6.851  17.157  0.00  0.00    +0.000 A 
ATOM      2  C   UNL     1       7.443   5.850  16.613  0.00  0.00    +0.000 A 
ATOM      3  C   UNL     1       6.956   4.591  16.276  0.00  0.00    +0.000 A 
ATOM      4  C   UNL     1       5.622   4.293  16.477  0.00  0.00    +0.000 A 
ATOM      5  C   UNL     1       4.767   5.246  17.027  0.00  0.00    +0.000 A 
ATOM      6  C   UNL     1       5.223   6.546  17.374  0.00  0.00    +0.000 A 
ENDROOT
BRANCH   1   8
ATOM      7  C   UNL     1       8.305   8.423  18.228  0.00  0.00    +0.000 C 
ATOM      8  C   UNL     1       7.295   8.157  17.385  0.00  0.00    +0.000 C 
BRANCH   7   9
ATOM      9  C   UNL     1       8.764   9.821  18.504  0.00  0.00    +0.000 A 
ATOM     10  C   UNL     1       9.430  10.059  19.714  0.00  0.00    +0.000 A 
ATOM     11  C   UNL     1       9.779  11.358  20.100  0.00  0.00    +0.000 A 
ATOM     12  C   UNL     1       9.483  12.440  19.268  0.00  0.00    +0.000 A 
ATOM     13  C   UNL     1       8.855  12.224  18.042  0.00  0.00    +0.000 A 
ATOM     14  C   UNL     1       8.496  10.926  17.654  0.00  0.00    +0.000 A 
ENDBRANCH   7   9
ENDBRANCH   1   8
BRANCH   6  15
ATOM     15  O   UNL     1       4.345   7.465  17.886  0.00  0.00    +0.000 OA
BRANCH  15  16
ATOM     16  C   UNL     1       3.079   7.725  17.361  0.00  0.00    +0.000 C 
BRANCH  16  17
ATOM     17  C   UNL     1       1.948   7.414  18.346  0.00  0.00    +0.000 C 
BRANCH  17  18
ATOM     18  C   UNL     1       2.508   6.885  19.676  0.00  0.00    +0.000 C 
BRANCH  18  19
ATOM     19  C   UNL     1       1.991   5.474  20.024  0.00  0.00    +0.000 C 
BRANCH  19  20
ATOM     20  N   UNL     1       2.671   4.387  19.283  0.00  0.00    +0.000 NA
ATOM     21  C   UNL     1       3.363   3.443  20.190  0.00  0.00    +0.000 C 
ATOM     22  C   UNL     1       4.090   2.364  19.382  0.00  0.00    +0.000 C 
ATOM     23  C   UNL     1       3.086   1.596  18.525  0.00  0.00    +0.000 C 
ATOM     24  C   UNL     1       2.345   2.576  17.615  0.00  0.00    +0.000 C 
ATOM     25  C   UNL     1       1.671   3.664  18.459  0.00  0.00    +0.000 C 
ENDBRANCH  19  20
ENDBRANCH  18  19
ENDBRANCH  17  18
ENDBRANCH  16  17
ENDBRANCH  15  16
ENDBRANCH   6  15
TORSDOF 8
ENDMDL
MODEL 7
REMARK VINA RESULT:      -7.5      5.164      8.095
REMARK  Name = 
REMARK  8 active torsions:
REMARK  status: ('A' for Active; 'I' for Inactive)
REMARK    1  A    between atoms: C_1  and  C_20
REMARK    2  A    between atoms: C_2  and  C_3
REMARK    3  A    between atoms: C_8  and  O_9
REMARK    4  A    between atoms: O_9  and  C_10
REMARK    5  A    between atoms: C_10  and  C_11
REMARK    6  A    between atoms: C_11  and  C_12
REMARK    7  A    between atoms: C_12  and  C_13
REMARK    8  A    between atoms: C_13  and  N_14
REMARK                            x       y       z     vdW  Elec       q    Type
REMARK                         _______ _______ _______ _____ _____    ______ ____
ROOT
ATOM      1  C   UNL     1       3.511   3.943  18.518  0.00  0.00    +0.000 A 
ATOM      2  C   UNL     1       3.682   2.885  19.441  0.00  0.00    +0.000 A 
ATOM      3  C   UNL     1       2.989   2.845  20.646  0.00  0.00    +0.000 A 
ATOM      4  C   UNL     1       2.107   3.860  20.967  0.00  0.00    +0.000 A 
ATOM      5  C   UNL     1       1.922   4.929  20.092  0.00  0.00    +0.000 A 
ATOM      6  C   UNL     1       2.604   5.001  18.847  0.00  0.00    +0.000 A 
ENDROOT
BRANCH   1   8
ATOM      7  C   UNL     1       5.307   4.516  16.799  0.00  0.00    +0.000 C 
ATOM      8  C   UNL     1       4.286   3.771  17.252  0.00  0.00    +0.000 C 
BRANCH   7   9
ATOM      9  C   UNL     1       5.858   4.355  15.417  0.00  0.00    +0.000 A 
ATOM     10  C   UNL     1       7.034   5.049  15.102  0.00  0.00    +0.000 A 
ATOM     11  C   UNL     1       7.542   5.050  13.798  0.00  0.00    +0.000 A 
ATOM     12  C   UNL     1       6.889   4.336  12.791  0.00  0.00    +0.000 A 
ATOM     13  C   UNL     1       5.739   3.607  13.089  0.00  0.00    +0.000 A 
ATOM     14  C   UNL     1       5.221   3.611  14.391  0.00  0.00    +0.000 A 
ENDBRANCH   7   9
ENDBRANCH   1   8
BRANCH   6  15
ATOM     15  O   UNL     1       2.373   6.053  18.001  0.00  0.00    +0.000 OA
BRANCH  15  16
ATOM     16  C   UNL     1       3.104   7.241  17.999  0.00  0.00    +0.000 C 
BRANCH  16  17
ATOM     17  C   UNL     1       2.219   8.488  17.911  0.00  0.00    +0.000 C 
BRANCH  17  18
ATOM     18  C   UNL     1       1.445   8.705  19.221  0.00  0.00    +0.000 C 
BRANCH  18  19
ATOM     19  C   UNL     1       1.052  10.180  19.446  0.00  0.00    +0.000 C 
BRANCH  19  20
ATOM     20  N   UNL     1       0.708  10.500  20.851  0.00  0.00    +0.000 NA
ATOM     21  C   UNL     1      -0.450  11.418  20.945  0.00  0.00    +0.000 C 
ATOM     22  C   UNL     1      -0.742  11.760  22.409  0.00  0.00    +0.000 C 
ATOM     23  C   UNL     1      -1.045  10.482  23.187  0.00  0.00    +0.000 C 
ATOM     24  C   UNL     1       0.137   9.520  23.060  0.00  0.00    +0.000 C 
ATOM     25  C   UNL     1       0.423   9.240  21.580  0.00  0.00    +0.000 C 
ENDBRANCH  19  20
ENDBRANCH  18  19
ENDBRANCH  17  18
ENDBRANCH  16  17
ENDBRANCH  15  16
ENDBRANCH   6  15
TORSDOF 8
ENDMDL
MODEL 8
REMARK VINA RESULT:      -7.4      4.196      7.365
REMARK  Name = 
REMARK  8 active torsions:
REMARK  status: ('A' for Active; 'I' for Inactive)
REMARK    1  A    between atoms: C_1  and  C_20
REMARK    2  A    between atoms: C_2  and  C_3
REMARK    3  A    between atoms: C_8  and  O_9
REMARK    4  A    between atoms: O_9  and  C_10
REMARK    5  A    between atoms: C_10  and  C_11
REMARK    6  A    between atoms: C_11  and  C_12
REMARK    7  A    between atoms: C_12  and  C_13
REMARK    8  A    between atoms: C_13  and  N_14
REMARK                            x       y       z     vdW  Elec       q    Type
REMARK                         _______ _______ _______ _____ _____    ______ ____
ROOT
ATOM      1  C   UNL     1       0.395   8.564  21.197  0.00  0.00    +0.000 A 
ATOM      2  C   UNL     1       0.021   8.909  22.516  0.00  0.00    +0.000 A 
ATOM      3  C   UNL     1      -0.286  10.218  22.873  0.00  0.00    +0.000 A 
ATOM      4  C   UNL     1      -0.225  11.221  21.924  0.00  0.00    +0.000 A 
ATOM      5  C   UNL     1       0.157  10.926  20.616  0.00  0.00    +0.000 A 
ATOM      6  C   UNL     1       0.467   9.600  20.211  0.00  0.00    +0.000 A 
ENDROOT
BRANCH   1   8
ATOM      7  C   UNL     1       1.756   6.470  20.679  0.00  0.00    +0.000 C 
ATOM      8  C   UNL     1       0.613   7.100  20.995  0.00  0.00    +0.000 C 
BRANCH   7   9
ATOM      9  C   UNL     1       1.789   5.020  20.306  0.00  0.00    +0.000 A 
ATOM     10  C   UNL     1       1.753   4.701  18.941  0.00  0.00    +0.000 A 
ATOM     11  C   UNL     1       1.654   3.371  18.516  0.00  0.00    +0.000 A 
ATOM     12  C   UNL     1       1.612   2.337  19.454  0.00  0.00    +0.000 A 
ATOM     13  C   UNL     1       1.686   2.628  20.815  0.00  0.00    +0.000 A 
ATOM     14  C   UNL     1       1.776   3.959  21.246  0.00  0.00    +0.000 A 
ENDBRANCH   7   9
ENDBRANCH   1   8
BRANCH   6  15
ATOM     15  O   UNL     1       0.809   9.345  18.909  0.00  0.00    +0.000 OA
BRANCH  15  16
ATOM     16  C   UNL     1       2.118   9.302  18.430  0.00  0.00    +0.000 C 
BRANCH  16  17
ATOM     17  C   UNL     1       2.351   8.165  17.430  0.00  0.00    +0.000 C 
BRANCH  17  18
ATOM     18  C   UNL     1       3.718   7.501  17.662  0.00  0.00    +0.000 C 
BRANCH  18  19
ATOM     19  C   UNL     1       4.426   7.114  16.348  0.00  0.00    +0.000 C 
BRANCH  19  20
ATOM     20  N   UNL     1       5.773   6.528  16.543  0.00  0.00    +0.000 NA
ATOM     21  C   UNL     1       6.196   6.564  17.961  0.00  0.00    +0.000 C 
ATOM     22  C   UNL     1       7.608   5.993  18.111  0.00  0.00    +0.000 C 
ATOM     23  C   UNL     1       7.638   4.551  17.611  0.00  0.00    +0.000 C 
ATOM     24  C   UNL     1       7.167   4.510  16.157  0.00  0.00    +0.000 C 
ATOM     25  C   UNL     1       5.770   5.131  16.046  0.00  0.00    +0.000 C 
ENDBRANCH  19  20
ENDBRANCH  18  19
ENDBRANCH  17  18
ENDBRANCH  16  17
ENDBRANCH  15  16
ENDBRANCH   6  15
TORSDOF 8
ENDMDL
MODEL 9
REMARK VINA RESULT:      -7.4      2.634      3.266
REMARK  Name = 
REMARK  8 active torsions:
REMARK  status: ('A' for Active; 'I' for Inactive)
REMARK    1  A    between atoms: C_1  and  C_20
REMARK    2  A    between atoms: C_2  and  C_3
REMARK    3  A    between atoms: C_8  and  O_9
REMARK    4  A    between atoms: O_9  and  C_10
REMARK    5  A    between atoms: C_10  and  C_11
REMARK    6  A    between atoms: C_11  and  C_12
REMARK    7  A    between atoms: C_12  and  C_13
REMARK    8  A    between atoms: C_13  and  N_14
REMARK                            x       y       z     vdW  Elec       q    Type
REMARK                         _______ _______ _______ _____ _____    ______ ____
ROOT
ATOM      1  C   UNL     1       4.769   5.859  17.200  0.00  0.00    +0.000 A 
ATOM      2  C   UNL     1       4.420   4.570  16.735  0.00  0.00    +0.000 A 
ATOM      3  C   UNL     1       5.325   3.770  16.045  0.00  0.00    +0.000 A 
ATOM      4  C   UNL     1       6.603   4.234  15.797  0.00  0.00    +0.000 A 
ATOM      5  C   UNL     1       6.981   5.506  16.224  0.00  0.00    +0.000 A 
ATOM      6  C   UNL     1       6.089   6.349  16.940  0.00  0.00    +0.000 A 
ENDROOT
BRANCH   1   8
ATOM      7  C   UNL     1       3.035   7.668  17.680  0.00  0.00    +0.000 C 
ATOM      8  C   UNL     1       3.686   6.532  17.980  0.00  0.00    +0.000 C 
BRANCH   7   9
ATOM      9  C   UNL     1       2.116   8.339  18.654  0.00  0.00    +0.000 A 
ATOM     10  C   UNL     1       2.009   7.780  19.935  0.00  0.00    +0.000 A 
ATOM     11  C   UNL     1       1.081   8.273  20.859  0.00  0.00    +0.000 A 
ATOM     12  C   UNL     1       0.258   9.349  20.520  0.00  0.00    +0.000 A 
ATOM     13  C   UNL     1       0.374   9.945  19.265  0.00  0.00    +0.000 A 
ATOM     14  C   UNL     1       1.295   9.450  18.333  0.00  0.00    +0.000 A 
ENDBRANCH   7   9
ENDBRANCH   1   8
BRANCH   6  15
ATOM     15  O   UNL     1       6.507   7.580  17.368  0.00  0.00    +0.000 OA
BRANCH  15  16
ATOM     16  C   UNL     1       7.828   7.899  17.687  0.00  0.00    +0.000 C 
BRANCH  16  17
ATOM     17  C   UNL     1       8.081   9.409  17.745  0.00  0.00    +0.000 C 
BRANCH  17  18
ATOM     18  C   UNL     1       9.009   9.766  18.917  0.00  0.00    +0.000 C 
BRANCH  18  19
ATOM     19  C   UNL     1       9.872  11.014  18.638  0.00  0.00    +0.000 C 
BRANCH  19  20
ATOM     20  N   UNL     1       9.537  12.177  19.493  0.00  0.00    +0.000 NA
ATOM     21  C   UNL     1       9.383  11.796  20.915  0.00  0.00    +0.000 C 
ATOM     22  C   UNL     1       8.992  13.016  21.754  0.00  0.00    +0.000 C 
ATOM     23  C   UNL     1      10.068  14.093  21.632  0.00  0.00    +0.000 C 
ATOM     24  C   UNL     1      10.252  14.459  20.159  0.00  0.00    +0.000 C 
ATOM     25  C   UNL     1      10.597  13.204  19.350  0.00  0.00    +0.000 C 
ENDBRANCH  19  20
ENDBRANCH  18  19
ENDBRANCH  17  18
ENDBRANCH  16  17
ENDBRANCH  15  16
ENDBRANCH   6  15
TORSDOF 8
ENDMDL
