MODEL 1
REMARK VINA RESULT:      -8.1      0.000      0.000
REMARK  Name = 
REMARK  8 active torsions:
REMARK  status: ('A' for Active; 'I' for Inactive)
REMARK    1  A    between atoms: C_1  and  O_2
REMARK    2  A    between atoms: O_2  and  C_3
REMARK    3  A    between atoms: C_3  and  C_4
REMARK    4  A    between atoms: C_10  and  C_12
REMARK    5  A    between atoms: C_15  and  C_16
REMARK    6  A    between atoms: C_16  and  N_17
REMARK    7  A    between atoms: C_24  and  O_25
REMARK    8  A    between atoms: O_25  and  C_26
REMARK                            x       y       z     vdW  Elec       q    Type
REMARK                         _______ _______ _______ _____ _____    ______ ____
ROOT
ATOM      1  C   UNL     1       1.178   9.735  19.216  0.00  0.00    +0.000 C 
ATOM      2  C   UNL     1       0.765   8.756  20.320  0.00  0.00    +0.000 C 
ATOM      3  C   UNL     1       1.890   7.762  20.602  0.00  0.00    +0.000 C 
ATOM      4  C   UNL     1       2.217   6.942  19.345  0.00  0.00    +0.000 C 
ATOM      5  C   UNL     1       2.601   7.891  18.195  0.00  0.00    +0.000 C 
ATOM      6  C   UNL     1       1.522   8.950  17.940  0.00  0.00    +0.000 C 
ENDROOT
BRANCH   1  13
ATOM      7  C   UNL     1       1.242  16.066  19.447  0.00  0.00    +0.000 C 
ATOM      8  O   UNL     1       0.419  16.928  19.135  0.00  0.00    +0.000 OA
ATOM      9  N   UNL     1       0.894  14.740  19.664  0.00  0.00    +0.000 N 
ATOM     10  C   UNL     1      -0.483  14.289  19.397  0.00  0.00    +0.000 C 
ATOM     11  C   UNL     1      -0.517  13.118  18.388  0.00  0.00    +0.000 C 
ATOM     12  N   UNL     1       0.489  12.086  18.702  0.00  0.00    +0.000 N 
ATOM     13  C   UNL     1       0.086  10.784  18.968  0.00  0.00    +0.000 C 
ATOM     14  O   UNL     1      -1.105  10.473  19.013  0.00  0.00    +0.000 OA
ATOM     15  C   UNL     1       1.846  12.622  18.879  0.00  0.00    +0.000 C 
ATOM     16  C   UNL     1       1.827  13.664  20.007  0.00  0.00    +0.000 C 
BRANCH   7  17
ATOM     17  C   UNL     1       2.731  16.437  19.576  0.00  0.00    +0.000 C 
BRANCH  17  19
ATOM     18  C   UNL     1       3.400  16.135  17.325  0.00  0.00    +0.000 C 
ATOM     19  O   UNL     1       3.316  17.039  18.422  0.00  0.00    +0.000 OA
ENDBRANCH  17  19
ENDBRANCH   7  17
ENDBRANCH   1  13
BRANCH   4  20
ATOM     20  C   UNL     1       3.327   5.894  19.596  0.00  0.00    +0.000 C 
BRANCH  20  21
ATOM     21  N   UNL     1       3.835   5.295  18.360  0.00  0.00    +0.000 N 
ATOM     22  C   UNL     1       3.083   4.290  17.771  0.00  0.00    +0.000 A 
ATOM     23  O   UNL     1       1.975   3.931  18.168  0.00  0.00    +0.000 OA
ATOM     24  N   UNL     1       3.626   3.672  16.681  0.00  0.00    +0.000 N 
ATOM     25  C   UNL     1       4.810   4.073  16.072  0.00  0.00    +0.000 A 
ATOM     26  C   UNL     1       5.245   3.442  14.908  0.00  0.00    +0.000 A 
ATOM     27  C   UNL     1       6.376   3.923  14.239  0.00  0.00    +0.000 A 
ATOM     28  C   UNL     1       7.080   5.021  14.742  0.00  0.00    +0.000 A 
ATOM     29  C   UNL     1       6.668   5.609  15.942  0.00  0.00    +0.000 A 
ATOM     30  C   UNL     1       5.529   5.135  16.602  0.00  0.00    +0.000 A 
ATOM     31  C   UNL     1       5.053   5.753  17.855  0.00  0.00    +0.000 A 
ATOM     32  O   UNL     1       5.742   6.616  18.395  0.00  0.00    +0.000 OA
ATOM     33  H   UNL     1       3.063   2.933  16.277  0.00  0.00    +0.000 HD
BRANCH  28  34
ATOM     34  O   UNL     1       8.172   5.603  14.161  0.00  0.00    +0.000 OA
ATOM     35  C   UNL     1       8.223   5.598  12.739  0.00  0.00    +0.000 C 
ENDBRANCH  28  34
ENDBRANCH  20  21
ENDBRANCH   4  20
TORSDOF 6
ENDMDL
MODEL 2
REMARK VINA RESULT:      -7.8      3.382     11.216
REMARK  Name = 
REMARK  8 active torsions:
REMARK  status: ('A' for Active; 'I' for Inactive)
REMARK    1  A    between atoms: C_1  and  O_2
REMARK    2  A    between atoms: O_2  and  C_3
REMARK    3  A    between atoms: C_3  and  C_4
REMARK    4  A    between atoms: C_10  and  C_12
REMARK    5  A    between atoms: C_15  and  C_16
REMARK    6  A    between atoms: C_16  and  N_17
REMARK    7  A    between atoms: C_24  and  O_25
REMARK    8  A    between atoms: O_25  and  C_26
REMARK                            x       y       z     vdW  Elec       q    Type
REMARK                         _______ _______ _______ _____ _____    ______ ____
ROOT
ATOM      1  C   UNL     1       2.027   7.717  20.153  0.00  0.00    +0.000 C 
ATOM      2  C   UNL     1       1.501   8.386  18.878  0.00  0.00    +0.000 C 
ATOM      3  C   UNL     1       1.348   9.891  19.088  0.00  0.00    +0.000 C 
ATOM      4  C   UNL     1       0.349  10.183  20.218  0.00  0.00    +0.000 C 
ATOM      5  C   UNL     1       0.819   9.495  21.513  0.00  0.00    +0.000 C 
ATOM      6  C   UNL     1       1.055   7.993  21.312  0.00  0.00    +0.000 C 
ENDROOT
BRANCH   1  13
ATOM      7  C   UNL     1       5.613   4.507  16.034  0.00  0.00    +0.000 C 
ATOM      8  O   UNL     1       5.903   3.314  15.922  0.00  0.00    +0.000 OA
ATOM      9  N   UNL     1       4.525   4.947  16.775  0.00  0.00    +0.000 N 
ATOM     10  C   UNL     1       3.742   3.985  17.572  0.00  0.00    +0.000 C 
ATOM     11  C   UNL     1       3.684   4.391  19.062  0.00  0.00    +0.000 C 
ATOM     12  N   UNL     1       3.384   5.824  19.236  0.00  0.00    +0.000 N 
ATOM     13  C   UNL     1       2.251   6.214  19.939  0.00  0.00    +0.000 C 
ATOM     14  O   UNL     1       1.444   5.391  20.371  0.00  0.00    +0.000 OA
ATOM     15  C   UNL     1       4.265   6.708  18.460  0.00  0.00    +0.000 C 
ATOM     16  C   UNL     1       4.144   6.347  16.972  0.00  0.00    +0.000 C 
BRANCH   7  17
ATOM     17  C   UNL     1       6.494   5.578  15.365  0.00  0.00    +0.000 C 
BRANCH  17  19
ATOM     18  C   UNL     1       7.471   4.965  13.299  0.00  0.00    +0.000 C 
ATOM     19  O   UNL     1       7.660   5.089  14.705  0.00  0.00    +0.000 OA
ENDBRANCH  17  19
ENDBRANCH   7  17
ENDBRANCH   1  13
BRANCH   4  20
ATOM     20  C   UNL     1       0.134  11.699  20.439  0.00  0.00    +0.000 C 
BRANCH  20  21
ATOM     21  N   UNL     1      -1.282  12.071  20.487  0.00  0.00    +0.000 N 
ATOM     22  C   UNL     1      -1.944  12.256  19.283  0.00  0.00    +0.000 A 
ATOM     23  O   UNL     1      -1.446  12.040  18.179  0.00  0.00    +0.000 OA
ATOM     24  N   UNL     1      -3.231  12.708  19.350  0.00  0.00    +0.000 N 
ATOM     25  C   UNL     1      -3.935  12.869  20.537  0.00  0.00    +0.000 A 
ATOM     26  C   UNL     1      -5.276  13.248  20.508  0.00  0.00    +0.000 A 
ATOM     27  C   UNL     1      -6.008  13.300  21.699  0.00  0.00    +0.000 A 
ATOM     28  C   UNL     1      -5.397  12.991  22.918  0.00  0.00    +0.000 A 
ATOM     29  C   UNL     1      -4.037  12.669  22.941  0.00  0.00    +0.000 A 
ATOM     30  C   UNL     1      -3.310  12.604  21.748  0.00  0.00    +0.000 A 
ATOM     31  C   UNL     1      -1.880  12.239  21.737  0.00  0.00    +0.000 A 
ATOM     32  O   UNL     1      -1.287  12.115  22.807  0.00  0.00    +0.000 OA
ATOM     33  H   UNL     1      -3.688  12.846  18.456  0.00  0.00    +0.000 HD
BRANCH  28  34
ATOM     34  O   UNL     1      -6.015  12.970  24.137  0.00  0.00    +0.000 OA
ATOM     35  C   UNL     1      -7.394  13.320  24.166  0.00  0.00    +0.000 C 
ENDBRANCH  28  34
ENDBRANCH  20  21
ENDBRANCH   4  20
TORSDOF 6
ENDMDL
MODEL 3
REMARK VINA RESULT:      -7.6      2.243      2.737
REMARK  Name = 
REMARK  8 active torsions:
REMARK  status: ('A' for Active; 'I' for Inactive)
REMARK    1  A    between atoms: C_1  and  O_2
REMARK    2  A    between atoms: O_2  and  C_3
REMARK    3  A    between atoms: C_3  and  C_4
REMARK    4  A    between atoms: C_10  and  C_12
REMARK    5  A    between atoms: C_15  and  C_16
REMARK    6  A    between atoms: C_16  and  N_17
REMARK    7  A    between atoms: C_24  and  O_25
REMARK    8  A    between atoms: O_25  and  C_26
REMARK                            x       y       z     vdW  Elec       q    Type
REMARK                         _______ _______ _______ _____ _____    ______ ____
ROOT
ATOM      1  C   UNL     1       0.788   9.794  19.188  0.00  0.00    +0.000 C 
ATOM      2  C   UNL     1       0.492   8.725  20.246  0.00  0.00    +0.000 C 
ATOM      3  C   UNL     1       1.748   7.912  20.550  0.00  0.00    +0.000 C 
ATOM      4  C   UNL     1       2.250   7.195  19.287  0.00  0.00    +0.000 C 
ATOM      5  C   UNL     1       2.523   8.230  18.180  0.00  0.00    +0.000 C 
ATOM      6  C   UNL     1       1.300   9.115  17.907  0.00  0.00    +0.000 C 
ENDROOT
BRANCH   1  13
ATOM      7  C   UNL     1      -1.655  14.754  22.279  0.00  0.00    +0.000 C 
ATOM      8  O   UNL     1      -2.567  15.542  22.020  0.00  0.00    +0.000 OA
ATOM      9  N   UNL     1      -1.525  13.525  21.650  0.00  0.00    +0.000 N 
ATOM     10  C   UNL     1      -2.422  13.172  20.535  0.00  0.00    +0.000 C 
ATOM     11  C   UNL     1      -1.633  12.816  19.255  0.00  0.00    +0.000 C 
ATOM     12  N   UNL     1      -0.503  11.911  19.532  0.00  0.00    +0.000 N 
ATOM     13  C   UNL     1      -0.446  10.666  18.920  0.00  0.00    +0.000 C 
ATOM     14  O   UNL     1      -1.354  10.263  18.192  0.00  0.00    +0.000 OA
ATOM     15  C   UNL     1       0.379  12.383  20.610  0.00  0.00    +0.000 C 
ATOM     16  C   UNL     1      -0.451  12.558  21.890  0.00  0.00    +0.000 C 
BRANCH   7  17
ATOM     17  C   UNL     1      -0.582  15.136  23.315  0.00  0.00    +0.000 C 
BRANCH  17  19
ATOM     18  C   UNL     1      -1.663  15.753  25.328  0.00  0.00    +0.000 C 
ATOM     19  O   UNL     1      -0.872  14.773  24.663  0.00  0.00    +0.000 OA
ENDBRANCH  17  19
ENDBRANCH   7  17
ENDBRANCH   1  13
BRANCH   4  20
ATOM     20  C   UNL     1       3.500   6.326  19.558  0.00  0.00    +0.000 C 
BRANCH  20  21
ATOM     21  N   UNL     1       3.961   5.606  18.369  0.00  0.00    +0.000 N 
ATOM     22  C   UNL     1       3.206   4.530  17.931  0.00  0.00    +0.000 A 
ATOM     23  O   UNL     1       2.128   4.195  18.421  0.00  0.00    +0.000 OA
ATOM     24  N   UNL     1       3.710   3.806  16.888  0.00  0.00    +0.000 N 
ATOM     25  C   UNL     1       4.852   4.160  16.180  0.00  0.00    +0.000 A 
ATOM     26  C   UNL     1       5.245   3.414  15.070  0.00  0.00    +0.000 A 
ATOM     27  C   UNL     1       6.330   3.840  14.296  0.00  0.00    +0.000 A 
ATOM     28  C   UNL     1       7.032   4.999  14.642  0.00  0.00    +0.000 A 
ATOM     29  C   UNL     1       6.665   5.706  15.790  0.00  0.00    +0.000 A 
ATOM     30  C   UNL     1       5.572   5.286  16.555  0.00  0.00    +0.000 A 
ATOM     31  C   UNL     1       5.143   6.028  17.757  0.00  0.00    +0.000 A 
ATOM     32  O   UNL     1       5.836   6.958  18.164  0.00  0.00    +0.000 OA
ATOM     33  H   UNL     1       3.145   3.018  16.596  0.00  0.00    +0.000 HD
BRANCH  28  34
ATOM     34  O   UNL     1       8.080   5.534  13.946  0.00  0.00    +0.000 OA
ATOM     35  C   UNL     1       8.008   5.473  12.526  0.00  0.00    +0.000 C 
ENDBRANCH  28  34
ENDBRANCH  20  21
ENDBRANCH   4  20
TORSDOF 6
ENDMDL
MODEL 4
REMARK VINA RESULT:      -7.5      3.380     10.942
REMARK  Name = 
REMARK  8 active torsions:
REMARK  status: ('A' for Active; 'I' for Inactive)
REMARK    1  A    between atoms: C_1  and  O_2
REMARK    2  A    between atoms: O_2  and  C_3
REMARK    3  A    between atoms: C_3  and  C_4
REMARK    4  A    between atoms: C_10  and  C_12
REMARK    5  A    between atoms: C_15  and  C_16
REMARK    6  A    between atoms: C_16  and  N_17
REMARK    7  A    between atoms: C_24  and  O_25
REMARK    8  A    between atoms: O_25  and  C_26
REMARK                            x       y       z     vdW  Elec       q    Type
REMARK                         _______ _______ _______ _____ _____    ______ ____
ROOT
ATOM      1  C   UNL     1       1.871   7.877  20.284  0.00  0.00    +0.000 C 
ATOM      2  C   UNL     1       1.284   8.490  19.008  0.00  0.00    +0.000 C 
ATOM      3  C   UNL     1       1.127  10.001  19.164  0.00  0.00    +0.000 C 
ATOM      4  C   UNL     1       0.174  10.331  20.323  0.00  0.00    +0.000 C 
ATOM      5  C   UNL     1       0.706   9.699  21.624  0.00  0.00    +0.000 C 
ATOM      6  C   UNL     1       0.947   8.192  21.473  0.00  0.00    +0.000 C 
ENDROOT
BRANCH   1  13
ATOM      7  C   UNL     1       5.396   4.537  16.217  0.00  0.00    +0.000 C 
ATOM      8  O   UNL     1       5.691   3.343  16.143  0.00  0.00    +0.000 OA
ATOM      9  N   UNL     1       4.320   4.998  16.962  0.00  0.00    +0.000 N 
ATOM     10  C   UNL     1       3.558   4.062  17.809  0.00  0.00    +0.000 C 
ATOM     11  C   UNL     1       3.526   4.522  19.284  0.00  0.00    +0.000 C 
ATOM     12  N   UNL     1       3.222   5.958  19.412  0.00  0.00    +0.000 N 
ATOM     13  C   UNL     1       2.101   6.369  20.121  0.00  0.00    +0.000 C 
ATOM     14  O   UNL     1       1.307   5.557  20.599  0.00  0.00    +0.000 OA
ATOM     15  C   UNL     1       4.082   6.818  18.586  0.00  0.00    +0.000 C 
ATOM     16  C   UNL     1       3.935   6.402  17.115  0.00  0.00    +0.000 C 
BRANCH   7  17
ATOM     17  C   UNL     1       6.257   5.587  15.492  0.00  0.00    +0.000 C 
BRANCH  17  19
ATOM     18  C   UNL     1       7.458   6.793  17.138  0.00  0.00    +0.000 C 
ATOM     19  O   UNL     1       7.532   5.846  16.077  0.00  0.00    +0.000 OA
ENDBRANCH  17  19
ENDBRANCH   7  17
ENDBRANCH   1  13
BRANCH   4  20
ATOM     20  C   UNL     1      -0.046  11.852  20.492  0.00  0.00    +0.000 C 
BRANCH  20  21
ATOM     21  N   UNL     1      -1.393  12.184  20.963  0.00  0.00    +0.000 N 
ATOM     22  C   UNL     1      -1.561  12.443  22.314  0.00  0.00    +0.000 A 
ATOM     23  O   UNL     1      -0.640  12.502  23.127  0.00  0.00    +0.000 OA
ATOM     24  N   UNL     1      -2.840  12.643  22.749  0.00  0.00    +0.000 N 
ATOM     25  C   UNL     1      -3.942  12.721  21.906  0.00  0.00    +0.000 A 
ATOM     26  C   UNL     1      -5.200  13.018  22.427  0.00  0.00    +0.000 A 
ATOM     27  C   UNL     1      -6.283  13.205  21.561  0.00  0.00    +0.000 A 
ATOM     28  C   UNL     1      -6.113  13.077  20.180  0.00  0.00    +0.000 A 
ATOM     29  C   UNL     1      -4.859  12.721  19.673  0.00  0.00    +0.000 A 
ATOM     30  C   UNL     1      -3.775  12.548  20.539  0.00  0.00    +0.000 A 
ATOM     31  C   UNL     1      -2.433  12.200  20.032  0.00  0.00    +0.000 A 
ATOM     32  O   UNL     1      -2.296  11.932  18.840  0.00  0.00    +0.000 OA
ATOM     33  H   UNL     1      -2.936  12.818  23.742  0.00  0.00    +0.000 HD
BRANCH  28  34
ATOM     34  O   UNL     1      -7.082  13.272  19.235  0.00  0.00    +0.000 OA
ATOM     35  C   UNL     1      -7.113  12.356  18.146  0.00  0.00    +0.000 C 
ENDBRANCH  28  34
ENDBRANCH  20  21
ENDBRANCH   4  20
TORSDOF 6
ENDMDL
MODEL 5
REMARK VINA RESULT:      -7.5      1.707      2.463
REMARK  Name = 
REMARK  8 active torsions:
REMARK  status: ('A' for Active; 'I' for Inactive)
REMARK    1  A    between atoms: C_1  and  O_2
REMARK    2  A    between atoms: O_2  and  C_3
REMARK    3  A    between atoms: C_3  and  C_4
REMARK    4  A    between atoms: C_10  and  C_12
REMARK    5  A    between atoms: C_15  and  C_16
REMARK    6  A    between atoms: C_16  and  N_17
REMARK    7  A    between atoms: C_24  and  O_25
REMARK    8  A    between atoms: O_25  and  C_26
REMARK                            x       y       z     vdW  Elec       q    Type
REMARK                         _______ _______ _______ _____ _____    ______ ____
ROOT
ATOM      1  C   UNL     1       1.905   8.816  19.065  0.00  0.00    +0.000 C 
ATOM      2  C   UNL     1       1.593   7.527  19.833  0.00  0.00    +0.000 C 
ATOM      3  C   UNL     1       2.846   6.666  19.963  0.00  0.00    +0.000 C 
ATOM      4  C   UNL     1       3.379   6.269  18.578  0.00  0.00    +0.000 C 
ATOM      5  C   UNL     1       3.670   7.537  17.754  0.00  0.00    +0.000 C 
ATOM      6  C   UNL     1       2.448   8.461  17.671  0.00  0.00    +0.000 C 
ENDROOT
BRANCH   1  13
ATOM      7  C   UNL     1       1.283  15.120  18.978  0.00  0.00    +0.000 C 
ATOM      8  O   UNL     1       0.322  15.869  18.792  0.00  0.00    +0.000 OA
ATOM      9  N   UNL     1       1.137  13.783  19.321  0.00  0.00    +0.000 N 
ATOM     10  C   UNL     1      -0.205  13.175  19.349  0.00  0.00    +0.000 C 
ATOM     11  C   UNL     1      -0.293  11.940  18.423  0.00  0.00    +0.000 C 
ATOM     12  N   UNL     1       0.865  11.043  18.584  0.00  0.00    +0.000 N 
ATOM     13  C   UNL     1       0.672   9.727  18.984  0.00  0.00    +0.000 C 
ATOM     14  O   UNL     1      -0.445   9.298  19.275  0.00  0.00    +0.000 OA
ATOM     15  C   UNL     1       2.161  11.727  18.467  0.00  0.00    +0.000 C 
ATOM     16  C   UNL     1       2.235  12.836  19.526  0.00  0.00    +0.000 C 
BRANCH   7  17
ATOM     17  C   UNL     1       2.717  15.651  18.796  0.00  0.00    +0.000 C 
BRANCH  17  19
ATOM     18  C   UNL     1       4.739  15.047  17.725  0.00  0.00    +0.000 C 
ATOM     19  O   UNL     1       3.348  15.306  17.564  0.00  0.00    +0.000 OA
ENDBRANCH  17  19
ENDBRANCH   7  17
ENDBRANCH   1  13
BRANCH   4  20
ATOM     20  C   UNL     1       4.628   5.361  18.663  0.00  0.00    +0.000 C 
BRANCH  20  21
ATOM     21  N   UNL     1       5.366   5.289  17.399  0.00  0.00    +0.000 N 
ATOM     22  C   UNL     1       6.562   5.982  17.309  0.00  0.00    +0.000 A 
ATOM     23  O   UNL     1       7.089   6.580  18.246  0.00  0.00    +0.000 OA
ATOM     24  N   UNL     1       7.180   5.991  16.090  0.00  0.00    +0.000 N 
ATOM     25  C   UNL     1       6.743   5.254  14.995  0.00  0.00    +0.000 A 
ATOM     26  C   UNL     1       7.486   5.250  13.816  0.00  0.00    +0.000 A 
ATOM     27  C   UNL     1       7.101   4.419  12.757  0.00  0.00    +0.000 A 
ATOM     28  C   UNL     1       5.969   3.609  12.871  0.00  0.00    +0.000 A 
ATOM     29  C   UNL     1       5.199   3.665  14.037  0.00  0.00    +0.000 A 
ATOM     30  C   UNL     1       5.592   4.485  15.099  0.00  0.00    +0.000 A 
ATOM     31  C   UNL     1       4.816   4.545  16.353  0.00  0.00    +0.000 A 
ATOM     32  O   UNL     1       3.737   3.960  16.417  0.00  0.00    +0.000 OA
ATOM     33  H   UNL     1       8.045   6.515  16.047  0.00  0.00    +0.000 HD
BRANCH  28  34
ATOM     34  O   UNL     1       5.517   2.732  11.924  0.00  0.00    +0.000 OA
ATOM     35  C   UNL     1       4.280   3.046  11.294  0.00  0.00    +0.000 C 
ENDBRANCH  28  34
ENDBRANCH  20  21
ENDBRANCH   4  20
TORSDOF 6
ENDMDL
MODEL 6
REMARK VINA RESULT:      -7.4      3.509      4.857
REMARK  Name = 
REMARK  8 active torsions:
REMARK  status: ('A' for Active; 'I' for Inactive)
REMARK    1  A    between atoms: C_1  and  O_2
REMARK    2  A    between atoms: O_2  and  C_3
REMARK    3  A    between atoms: C_3  and  C_4
REMARK    4  A    between atoms: C_10  and  C_12
REMARK    5  A    between atoms: C_15  and  C_16
REMARK    6  A    between atoms: C_16  and  N_17
REMARK    7  A    between atoms: C_24  and  O_25
REMARK    8  A    between atoms: O_25  and  C_26
REMARK                            x       y       z     vdW  Elec       q    Type
REMARK                         _______ _______ _______ _____ _____    ______ ____
ROOT
ATOM      1  C   UNL     1       0.250  11.286  20.630  0.00  0.00    +0.000 C 
ATOM      2  C   UNL     1       1.004  11.380  19.300  0.00  0.00    +0.000 C 
ATOM      3  C   UNL     1       0.886  10.071  18.524  0.00  0.00    +0.000 C 
ATOM      4  C   UNL     1       1.492   8.908  19.326  0.00  0.00    +0.000 C 
ATOM      5  C   UNL     1       0.788   8.801  20.691  0.00  0.00    +0.000 C 
ATOM      6  C   UNL     1       0.824  10.127  21.462  0.00  0.00    +0.000 C 
ENDROOT
BRANCH   1  13
ATOM      7  C   UNL     1      -4.301  14.938  23.098  0.00  0.00    +0.000 C 
ATOM      8  O   UNL     1      -4.280  15.940  23.815  0.00  0.00    +0.000 OA
ATOM      9  N   UNL     1      -3.198  14.513  22.371  0.00  0.00    +0.000 N 
ATOM     10  C   UNL     1      -1.901  15.193  22.538  0.00  0.00    +0.000 C 
ATOM     11  C   UNL     1      -0.787  14.206  22.954  0.00  0.00    +0.000 C 
ATOM     12  N   UNL     1      -0.810  12.971  22.149  0.00  0.00    +0.000 N 
ATOM     13  C   UNL     1       0.300  12.617  21.392  0.00  0.00    +0.000 C 
ATOM     14  O   UNL     1       1.292  13.344  21.322  0.00  0.00    +0.000 OA
ATOM     15  C   UNL     1      -2.128  12.324  22.100  0.00  0.00    +0.000 C 
ATOM     16  C   UNL     1      -3.149  13.317  21.526  0.00  0.00    +0.000 C 
BRANCH   7  17
ATOM     17  C   UNL     1      -5.578  14.082  23.012  0.00  0.00    +0.000 C 
BRANCH  17  19
ATOM     18  C   UNL     1      -7.709  13.520  23.876  0.00  0.00    +0.000 C 
ATOM     19  O   UNL     1      -6.610  14.424  23.936  0.00  0.00    +0.000 OA
ENDBRANCH  17  19
ENDBRANCH   7  17
ENDBRANCH   1  13
BRANCH   4  20
ATOM     20  C   UNL     1       1.429   7.566  18.560  0.00  0.00    +0.000 C 
BRANCH  20  21
ATOM     21  N   UNL     1       2.701   6.840  18.578  0.00  0.00    +0.000 N 
ATOM     22  C   UNL     1       2.967   6.029  19.670  0.00  0.00    +0.000 A 
ATOM     23  O   UNL     1       2.169   5.808  20.579  0.00  0.00    +0.000 OA
ATOM     24  N   UNL     1       4.202   5.447  19.720  0.00  0.00    +0.000 N 
ATOM     25  C   UNL     1       5.138   5.525  18.695  0.00  0.00    +0.000 A 
ATOM     26  C   UNL     1       6.339   4.825  18.791  0.00  0.00    +0.000 A 
ATOM     27  C   UNL     1       7.227   4.818  17.710  0.00  0.00    +0.000 A 
ATOM     28  C   UNL     1       6.922   5.525  16.543  0.00  0.00    +0.000 A 
ATOM     29  C   UNL     1       5.742   6.271  16.480  0.00  0.00    +0.000 A 
ATOM     30  C   UNL     1       4.850   6.265  17.557  0.00  0.00    +0.000 A 
ATOM     31  C   UNL     1       3.582   7.021  17.510  0.00  0.00    +0.000 A 
ATOM     32  O   UNL     1       3.368   7.770  16.559  0.00  0.00    +0.000 OA
ATOM     33  H   UNL     1       4.375   4.869  20.534  0.00  0.00    +0.000 HD
BRANCH  28  34
ATOM     34  O   UNL     1       7.689   5.563  15.411  0.00  0.00    +0.000 OA
ATOM     35  C   UNL     1       7.119   5.012  14.229  0.00  0.00    +0.000 C 
ENDBRANCH  28  34
ENDBRANCH  20  21
ENDBRANCH   4  20
TORSDOF 6
ENDMDL
MODEL 7
REMARK VINA RESULT:      -7.3      1.402      1.648
REMARK  Name = 
REMARK  8 active torsions:
REMARK  status: ('A' for Active; 'I' for Inactive)
REMARK    1  A    between atoms: C_1  and  O_2
REMARK    2  A    between atoms: O_2  and  C_3
REMARK    3  A    between atoms: C_3  and  C_4
REMARK    4  A    between atoms: C_10  and  C_12
REMARK    5  A    between atoms: C_15  and  C_16
REMARK    6  A    between atoms: C_16  and  N_17
REMARK    7  A    between atoms: C_24  and  O_25
REMARK    8  A    between atoms: O_25  and  C_26
REMARK                            x       y       z     vdW  Elec       q    Type
REMARK                         _______ _______ _______ _____ _____    ______ ____
ROOT
ATOM      1  C   UNL     1       1.010   9.780  19.256  0.00  0.00    +0.000 C 
ATOM      2  C   UNL     1       0.609   8.760  20.328  0.00  0.00    +0.000 C 
ATOM      3  C   UNL     1       1.770   7.813  20.626  0.00  0.00    +0.000 C 
ATOM      4  C   UNL     1       2.174   7.035  19.364  0.00  0.00    +0.000 C 
ATOM      5  C   UNL     1       2.548   8.025  18.244  0.00  0.00    +0.000 C 
ATOM      6  C   UNL     1       1.428   9.038  17.976  0.00  0.00    +0.000 C 
ENDROOT
BRANCH   1  13
ATOM      7  C   UNL     1       0.133  15.772  21.116  0.00  0.00    +0.000 C 
ATOM      8  O   UNL     1      -0.700  16.631  20.821  0.00  0.00    +0.000 OA
ATOM      9  N   UNL     1      -0.070  14.420  20.879  0.00  0.00    +0.000 N 
ATOM     10  C   UNL     1      -1.262  13.975  20.135  0.00  0.00    +0.000 C 
ATOM     11  C   UNL     1      -0.881  13.140  18.891  0.00  0.00    +0.000 C 
ATOM     12  N   UNL     1       0.149  12.130  19.194  0.00  0.00    +0.000 N 
ATOM     13  C   UNL     1      -0.122  10.782  18.994  0.00  0.00    +0.000 C 
ATOM     14  O   UNL     1      -1.232  10.394  18.627  0.00  0.00    +0.000 OA
ATOM     15  C   UNL     1       1.332  12.680  19.871  0.00  0.00    +0.000 C 
ATOM     16  C   UNL     1       0.889  13.354  21.178  0.00  0.00    +0.000 C 
BRANCH   7  17
ATOM     17  C   UNL     1       1.477  16.187  21.741  0.00  0.00    +0.000 C 
BRANCH  17  19
ATOM     18  C   UNL     1       2.423  17.106  23.707  0.00  0.00    +0.000 C 
ATOM     19  O   UNL     1       1.534  16.134  23.165  0.00  0.00    +0.000 OA
ENDBRANCH  17  19
ENDBRANCH   7  17
ENDBRANCH   1  13
BRANCH   4  20
ATOM     20  C   UNL     1       3.322   6.034  19.629  0.00  0.00    +0.000 C 
BRANCH  20  21
ATOM     21  N   UNL     1       3.821   5.403  18.405  0.00  0.00    +0.000 N 
ATOM     22  C   UNL     1       3.060   4.391  17.842  0.00  0.00    +0.000 A 
ATOM     23  O   UNL     1       1.951   4.049  18.251  0.00  0.00    +0.000 OA
ATOM     24  N   UNL     1       3.595   3.743  16.765  0.00  0.00    +0.000 N 
ATOM     25  C   UNL     1       4.779   4.120  16.143  0.00  0.00    +0.000 A 
ATOM     26  C   UNL     1       5.205   3.459  14.993  0.00  0.00    +0.000 A 
ATOM     27  C   UNL     1       6.338   3.916  14.309  0.00  0.00    +0.000 A 
ATOM     28  C   UNL     1       7.052   5.019  14.784  0.00  0.00    +0.000 A 
ATOM     29  C   UNL     1       6.648   5.638  15.971  0.00  0.00    +0.000 A 
ATOM     30  C   UNL     1       5.509   5.189  16.646  0.00  0.00    +0.000 A 
ATOM     31  C   UNL     1       5.042   5.839  17.886  0.00  0.00    +0.000 A 
ATOM     32  O   UNL     1       5.739   6.709  18.403  0.00  0.00    +0.000 OA
ATOM     33  H   UNL     1       3.024   2.999  16.381  0.00  0.00    +0.000 HD
BRANCH  28  34
ATOM     34  O   UNL     1       8.146   5.579  14.186  0.00  0.00    +0.000 OA
ATOM     35  C   UNL     1       8.200   5.526  12.765  0.00  0.00    +0.000 C 
ENDBRANCH  28  34
ENDBRANCH  20  21
ENDBRANCH   4  20
TORSDOF 6
ENDMDL
MODEL 8
REMARK VINA RESULT:      -7.3      3.193     11.086
REMARK  Name = 
REMARK  8 active torsions:
REMARK  status: ('A' for Active; 'I' for Inactive)
REMARK    1  A    between atoms: C_1  and  O_2
REMARK    2  A    between atoms: O_2  and  C_3
REMARK    3  A    between atoms: C_3  and  C_4
REMARK    4  A    between atoms: C_10  and  C_12
REMARK    5  A    between atoms: C_15  and  C_16
REMARK    6  A    between atoms: C_16  and  N_17
REMARK    7  A    between atoms: C_24  and  O_25
REMARK    8  A    between atoms: O_25  and  C_26
REMARK                            x       y       z     vdW  Elec       q    Type
REMARK                         _______ _______ _______ _____ _____    ______ ____
ROOT
ATOM      1  C   UNL     1       2.130   7.895  19.672  0.00  0.00    +0.000 C 
ATOM      2  C   UNL     1       1.523   8.227  18.305  0.00  0.00    +0.000 C 
ATOM      3  C   UNL     1       1.213   9.718  18.205  0.00  0.00    +0.000 C 
ATOM      4  C   UNL     1       0.200  10.135  19.283  0.00  0.00    +0.000 C 
ATOM      5  C   UNL     1       0.753   9.784  20.676  0.00  0.00    +0.000 C 
ATOM      6  C   UNL     1       1.146   8.305  20.781  0.00  0.00    +0.000 C 
ENDROOT
BRANCH   1  13
ATOM      7  C   UNL     1       5.625   4.171  15.924  0.00  0.00    +0.000 C 
ATOM      8  O   UNL     1       6.045   3.018  16.039  0.00  0.00    +0.000 OA
ATOM      9  N   UNL     1       4.576   4.666  16.686  0.00  0.00    +0.000 N 
ATOM     10  C   UNL     1       4.004   3.846  17.769  0.00  0.00    +0.000 C 
ATOM     11  C   UNL     1       4.054   4.578  19.129  0.00  0.00    +0.000 C 
ATOM     12  N   UNL     1       3.603   5.977  19.023  0.00  0.00    +0.000 N 
ATOM     13  C   UNL     1       2.512   6.412  19.765  0.00  0.00    +0.000 C 
ATOM     14  O   UNL     1       1.861   5.638  20.469  0.00  0.00    +0.000 OA
ATOM     15  C   UNL     1       4.283   6.737  17.964  0.00  0.00    +0.000 C 
ATOM     16  C   UNL     1       4.051   6.031  16.620  0.00  0.00    +0.000 C 
BRANCH   7  17
ATOM     17  C   UNL     1       6.294   5.136  14.929  0.00  0.00    +0.000 C 
BRANCH  17  19
ATOM     18  C   UNL     1       6.348   3.879  12.923  0.00  0.00    +0.000 C 
ATOM     19  O   UNL     1       7.114   4.523  13.936  0.00  0.00    +0.000 OA
ENDBRANCH  17  19
ENDBRANCH   7  17
ENDBRANCH   1  13
BRANCH   4  20
ATOM     20  C   UNL     1      -0.174  11.634  19.194  0.00  0.00    +0.000 C 
BRANCH  20  21
ATOM     21  N   UNL     1      -1.617  11.867  19.291  0.00  0.00    +0.000 N 
ATOM     22  C   UNL     1      -2.374  11.727  18.138  0.00  0.00    +0.000 A 
ATOM     23  O   UNL     1      -1.929  11.333  17.061  0.00  0.00    +0.000 OA
ATOM     24  N   UNL     1      -3.698  12.054  18.226  0.00  0.00    +0.000 N 
ATOM     25  C   UNL     1      -4.335  12.393  19.413  0.00  0.00    +0.000 A 
ATOM     26  C   UNL     1      -5.709  12.624  19.427  0.00  0.00    +0.000 A 
ATOM     27  C   UNL     1      -6.362  12.854  20.643  0.00  0.00    +0.000 A 
ATOM     28  C   UNL     1      -5.640  12.871  21.839  0.00  0.00    +0.000 A 
ATOM     29  C   UNL     1      -4.254  12.696  21.807  0.00  0.00    +0.000 A 
ATOM     30  C   UNL     1      -3.605  12.453  20.592  0.00  0.00    +0.000 A 
ATOM     31  C   UNL     1      -2.146  12.236  20.529  0.00  0.00    +0.000 A 
ATOM     32  O   UNL     1      -1.473  12.400  21.545  0.00  0.00    +0.000 OA
ATOM     33  H   UNL     1      -4.225  11.955  17.367  0.00  0.00    +0.000 HD
BRANCH  28  34
ATOM     34  O   UNL     1      -6.169  13.048  23.088  0.00  0.00    +0.000 OA
ATOM     35  C   UNL     1      -5.251  13.114  24.173  0.00  0.00    +0.000 C 
ENDBRANCH  28  34
ENDBRANCH  20  21
ENDBRANCH   4  20
TORSDOF 6
ENDMDL
MODEL 9
REMARK VINA RESULT:      -7.2      2.928     10.823
REMARK  Name = 
REMARK  8 active torsions:
REMARK  status: ('A' for Active; 'I' for Inactive)
REMARK    1  A    between atoms: C_1  and  O_2
REMARK    2  A    between atoms: O_2  and  C_3
REMARK    3  A    between atoms: C_3  and  C_4
REMARK    4  A    between atoms: C_10  and  C_12
REMARK    5  A    between atoms: C_15  and  C_16
REMARK    6  A    between atoms: C_16  and  N_17
REMARK    7  A    between atoms: C_24  and  O_25
REMARK    8  A    between atoms: O_25  and  C_26
REMARK                            x       y       z     vdW  Elec       q    Type
REMARK                         _______ _______ _______ _____ _____    ______ ____
ROOT
ATOM      1  C   UNL     1       2.235   7.589  19.645  0.00  0.00    +0.000 C 
ATOM      2  C   UNL     1       1.706   8.237  18.362  0.00  0.00    +0.000 C 
ATOM      3  C   UNL     1       1.587   9.750  18.537  0.00  0.00    +0.000 C 
ATOM      4  C   UNL     1       0.609  10.089  19.673  0.00  0.00    +0.000 C 
ATOM      5  C   UNL     1       1.083   9.423  20.978  0.00  0.00    +0.000 C 
ATOM      6  C   UNL     1       1.285   7.912  20.810  0.00  0.00    +0.000 C 
ENDROOT
BRANCH   1  13
ATOM      7  C   UNL     1       5.999   4.213  15.828  0.00  0.00    +0.000 C 
ATOM      8  O   UNL     1       6.259   3.011  15.750  0.00  0.00    +0.000 OA
ATOM      9  N   UNL     1       4.877   4.697  16.485  0.00  0.00    +0.000 N 
ATOM     10  C   UNL     1       4.009   3.771  17.235  0.00  0.00    +0.000 C 
ATOM     11  C   UNL     1       3.858   4.198  18.713  0.00  0.00    +0.000 C 
ATOM     12  N   UNL     1       3.593   5.642  18.849  0.00  0.00    +0.000 N 
ATOM     13  C   UNL     1       2.427   6.077  19.465  0.00  0.00    +0.000 C 
ATOM     14  O   UNL     1       1.565   5.284  19.848  0.00  0.00    +0.000 OA
ATOM     15  C   UNL     1       4.554   6.488  18.127  0.00  0.00    +0.000 C 
ATOM     16  C   UNL     1       4.528   6.111  16.639  0.00  0.00    +0.000 C 
BRANCH   7  17
ATOM     17  C   UNL     1       6.959   5.247  15.212  0.00  0.00    +0.000 C 
BRANCH  17  19
ATOM     18  C   UNL     1       7.968   5.274  13.071  0.00  0.00    +0.000 C 
ATOM     19  O   UNL     1       6.778   5.500  13.819  0.00  0.00    +0.000 OA
ENDBRANCH  17  19
ENDBRANCH   7  17
ENDBRANCH   1  13
BRANCH   4  20
ATOM     20  C   UNL     1       0.428  11.614  19.860  0.00  0.00    +0.000 C 
BRANCH  20  21
ATOM     21  N   UNL     1      -0.917  11.976  20.313  0.00  0.00    +0.000 N 
ATOM     22  C   UNL     1      -1.073  12.365  21.634  0.00  0.00    +0.000 A 
ATOM     23  O   UNL     1      -0.143  12.512  22.426  0.00  0.00    +0.000 OA
ATOM     24  N   UNL     1      -2.349  12.593  22.064  0.00  0.00    +0.000 N 
ATOM     25  C   UNL     1      -3.462  12.576  21.231  0.00  0.00    +0.000 A 
ATOM     26  C   UNL     1      -4.717  12.909  21.736  0.00  0.00    +0.000 A 
ATOM     27  C   UNL     1      -5.813  12.999  20.870  0.00  0.00    +0.000 A 
ATOM     28  C   UNL     1      -5.657  12.738  19.506  0.00  0.00    +0.000 A 
ATOM     29  C   UNL     1      -4.405  12.347  19.020  0.00  0.00    +0.000 A 
ATOM     30  C   UNL     1      -3.309  12.272  19.885  0.00  0.00    +0.000 A 
ATOM     31  C   UNL     1      -1.969  11.889  19.398  0.00  0.00    +0.000 A 
ATOM     32  O   UNL     1      -1.842  11.508  18.236  0.00  0.00    +0.000 OA
ATOM     33  H   UNL     1      -2.436  12.863  23.036  0.00  0.00    +0.000 HD
BRANCH  28  34
ATOM     34  O   UNL     1      -6.639  12.829  18.559  0.00  0.00    +0.000 OA
ATOM     35  C   UNL     1      -6.223  12.831  17.198  0.00  0.00    +0.000 C 
ENDBRANCH  28  34
ENDBRANCH  20  21
ENDBRANCH   4  20
TORSDOF 6
ENDMDL
