MODEL 1
REMARK VINA RESULT:      -7.5      0.000      0.000
REMARK  Name = 
REMARK  2 active torsions:
REMARK  status: ('A' for Active; 'I' for Inactive)
REMARK    1  A    between atoms: C_2  and  C_9
REMARK    2  A    between atoms: N_3  and  C_4
REMARK                            x       y       z     vdW  Elec       q    Type
REMARK                         _______ _______ _______ _____ _____    ______ ____
ROOT
ATOM      1  C   UNL     1       4.318   5.101  17.392  0.00  0.00    +0.000 A 
ATOM      2  N   UNL     1       4.419   6.380  17.636  0.00  0.00    +0.000 NA
ATOM      3  N   UNL     1       3.514   6.936  18.494  0.00  0.00    +0.000 N 
ATOM      4  C   UNL     1       2.559   6.258  19.215  0.00  0.00    +0.000 A 
ATOM      5  O   UNL     1       1.860   6.809  20.058  0.00  0.00    +0.000 OA
ATOM      6  C   UNL     1       2.401   4.831  18.895  0.00  0.00    +0.000 A 
ATOM      7  C   UNL     1       1.391   4.081  19.518  0.00  0.00    +0.000 A 
ATOM      8  C   UNL     1       1.203   2.746  19.166  0.00  0.00    +0.000 A 
ATOM      9  C   UNL     1       2.013   2.168  18.189  0.00  0.00    +0.000 A 
ATOM     10  C   UNL     1       3.027   2.914  17.580  0.00  0.00    +0.000 A 
ATOM     11  C   UNL     1       3.241   4.248  17.950  0.00  0.00    +0.000 A 
ATOM     12  H   UNL     1       3.633   7.923  18.709  0.00  0.00    +0.000 HD
ENDROOT
BRANCH   1  14
ATOM     13  O   UNL     1       6.492   4.171  17.001  0.00  0.00    +0.000 OA
ATOM     14  C   UNL     1       5.419   4.493  16.514  0.00  0.00    +0.000 C 
ATOM     15  N   UNL     1       5.104   4.396  15.173  0.00  0.00    +0.000 N 
ATOM     16  H   UNL     1       4.281   4.911  14.871  0.00  0.00    +0.000 HD
BRANCH  15  17
ATOM     17  C   UNL     1       6.099   3.983  14.207  0.00  0.00    +0.000 C 
ATOM     18  C   UNL     1       5.510   3.548  12.872  0.00  0.00    +0.000 C 
ATOM     19  C   UNL     1       6.727   3.520  11.955  0.00  0.00    +0.000 C 
ATOM     20  C   UNL     1       7.644   4.635  12.461  0.00  0.00    +0.000 C 
ATOM     21  C   UNL     1       7.057   5.100  13.795  0.00  0.00    +0.000 C 
ENDBRANCH  15  17
ENDBRANCH   1  14
TORSDOF 2
ENDMDL
MODEL 2
REMARK VINA RESULT:      -7.3      2.046      2.466
REMARK  Name = 
REMARK  2 active torsions:
REMARK  status: ('A' for Active; 'I' for Inactive)
REMARK    1  A    between atoms: C_2  and  C_9
REMARK    2  A    between atoms: N_3  and  C_4
REMARK                            x       y       z     vdW  Elec       q    Type
REMARK                         _______ _______ _______ _____ _____    ______ ____
ROOT
ATOM      1  C   UNL     1       4.800   4.158  17.859  0.00  0.00    +0.000 A 
ATOM      2  N   UNL     1       5.806   3.911  18.656  0.00  0.00    +0.000 NA
ATOM      3  N   UNL     1       5.551   3.218  19.805  0.00  0.00    +0.000 N 
ATOM      4  C   UNL     1       4.347   2.659  20.163  0.00  0.00    +0.000 A 
ATOM      5  O   UNL     1       4.223   1.947  21.153  0.00  0.00    +0.000 OA
ATOM      6  C   UNL     1       3.200   2.989  19.302  0.00  0.00    +0.000 A 
ATOM      7  C   UNL     1       1.916   2.535  19.642  0.00  0.00    +0.000 A 
ATOM      8  C   UNL     1       0.823   2.902  18.860  0.00  0.00    +0.000 A 
ATOM      9  C   UNL     1       1.012   3.728  17.752  0.00  0.00    +0.000 A 
ATOM     10  C   UNL     1       2.294   4.167  17.409  0.00  0.00    +0.000 A 
ATOM     11  C   UNL     1       3.402   3.778  18.173  0.00  0.00    +0.000 A 
ATOM     12  H   UNL     1       6.351   2.995  20.391  0.00  0.00    +0.000 HD
ENDROOT
BRANCH   1  14
ATOM     13  O   UNL     1       4.823   5.998  16.323  0.00  0.00    +0.000 OA
ATOM     14  C   UNL     1       5.145   4.838  16.529  0.00  0.00    +0.000 C 
ATOM     15  N   UNL     1       5.786   4.027  15.613  0.00  0.00    +0.000 N 
ATOM     16  H   UNL     1       5.782   3.031  15.821  0.00  0.00    +0.000 HD
BRANCH  15  17
ATOM     17  C   UNL     1       6.038   4.488  14.265  0.00  0.00    +0.000 C 
ATOM     18  C   UNL     1       7.438   5.050  14.063  0.00  0.00    +0.000 C 
ATOM     19  C   UNL     1       7.565   5.116  12.546  0.00  0.00    +0.000 C 
ATOM     20  C   UNL     1       6.750   3.934  12.018  0.00  0.00    +0.000 C 
ATOM     21  C   UNL     1       5.975   3.379  13.214  0.00  0.00    +0.000 C 
ENDBRANCH  15  17
ENDBRANCH   1  14
TORSDOF 2
ENDMDL
MODEL 3
REMARK VINA RESULT:      -7.2      1.898      2.645
REMARK  Name = 
REMARK  2 active torsions:
REMARK  status: ('A' for Active; 'I' for Inactive)
REMARK    1  A    between atoms: C_2  and  C_9
REMARK    2  A    between atoms: N_3  and  C_4
REMARK                            x       y       z     vdW  Elec       q    Type
REMARK                         _______ _______ _______ _____ _____    ______ ____
ROOT
ATOM      1  C   UNL     1       5.134   4.460  18.134  0.00  0.00    +0.000 A 
ATOM      2  N   UNL     1       5.052   3.502  19.018  0.00  0.00    +0.000 NA
ATOM      3  N   UNL     1       4.081   3.601  19.974  0.00  0.00    +0.000 N 
ATOM      4  C   UNL     1       3.105   4.568  20.039  0.00  0.00    +0.000 A 
ATOM      5  O   UNL     1       2.193   4.524  20.856  0.00  0.00    +0.000 OA
ATOM      6  C   UNL     1       3.233   5.680  19.085  0.00  0.00    +0.000 A 
ATOM      7  C   UNL     1       2.332   6.756  19.138  0.00  0.00    +0.000 A 
ATOM      8  C   UNL     1       2.495   7.838  18.276  0.00  0.00    +0.000 A 
ATOM      9  C   UNL     1       3.558   7.849  17.373  0.00  0.00    +0.000 A 
ATOM     10  C   UNL     1       4.445   6.769  17.314  0.00  0.00    +0.000 A 
ATOM     11  C   UNL     1       4.271   5.665  18.158  0.00  0.00    +0.000 A 
ATOM     12  H   UNL     1       4.001   2.826  20.627  0.00  0.00    +0.000 HD
ENDROOT
BRANCH   1  14
ATOM     13  O   UNL     1       7.354   4.398  17.231  0.00  0.00    +0.000 OA
ATOM     14  C   UNL     1       6.160   4.256  17.013  0.00  0.00    +0.000 C 
ATOM     15  N   UNL     1       5.619   3.954  15.779  0.00  0.00    +0.000 N 
ATOM     16  H   UNL     1       4.616   4.097  15.686  0.00  0.00    +0.000 HD
BRANCH  15  17
ATOM     17  C   UNL     1       6.455   3.882  14.601  0.00  0.00    +0.000 C 
ATOM     18  C   UNL     1       5.685   3.584  13.321  0.00  0.00    +0.000 C 
ATOM     19  C   UNL     1       6.695   3.916  12.229  0.00  0.00    +0.000 C 
ATOM     20  C   UNL     1       7.532   5.070  12.786  0.00  0.00    +0.000 C 
ATOM     21  C   UNL     1       7.156   5.199  14.263  0.00  0.00    +0.000 C 
ENDBRANCH  15  17
ENDBRANCH   1  14
TORSDOF 2
ENDMDL
MODEL 4
REMARK VINA RESULT:      -7.0      2.386      3.112
REMARK  Name = 
REMARK  2 active torsions:
REMARK  status: ('A' for Active; 'I' for Inactive)
REMARK    1  A    between atoms: C_2  and  C_9
REMARK    2  A    between atoms: N_3  and  C_4
REMARK                            x       y       z     vdW  Elec       q    Type
REMARK                         _______ _______ _______ _____ _____    ______ ____
ROOT
ATOM      1  C   UNL     1       4.611   3.699  19.475  0.00  0.00    +0.000 A 
ATOM      2  N   UNL     1       4.654   2.538  20.074  0.00  0.00    +0.000 NA
ATOM      3  N   UNL     1       3.658   2.243  20.960  0.00  0.00    +0.000 N 
ATOM      4  C   UNL     1       2.545   3.012  21.213  0.00  0.00    +0.000 A 
ATOM      5  O   UNL     1       1.632   2.625  21.933  0.00  0.00    +0.000 OA
ATOM      6  C   UNL     1       2.526   4.344  20.591  0.00  0.00    +0.000 A 
ATOM      7  C   UNL     1       1.472   5.230  20.865  0.00  0.00    +0.000 A 
ATOM      8  C   UNL     1       1.490   6.514  20.325  0.00  0.00    +0.000 A 
ATOM      9  C   UNL     1       2.560   6.913  19.524  0.00  0.00    +0.000 A 
ATOM     10  C   UNL     1       3.601   6.024  19.241  0.00  0.00    +0.000 A 
ATOM     11  C   UNL     1       3.576   4.722  19.758  0.00  0.00    +0.000 A 
ATOM     12  H   UNL     1       3.680   1.319  21.383  0.00  0.00    +0.000 HD
ENDROOT
BRANCH   1  14
ATOM     13  O   UNL     1       6.768   4.412  18.712  0.00  0.00    +0.000 OA
ATOM     14  C   UNL     1       5.682   3.945  18.406  0.00  0.00    +0.000 C 
ATOM     15  N   UNL     1       5.293   3.643  17.115  0.00  0.00    +0.000 N 
ATOM     16  H   UNL     1       4.298   3.488  16.975  0.00  0.00    +0.000 HD
BRANCH  15  17
ATOM     17  C   UNL     1       6.145   3.964  15.991  0.00  0.00    +0.000 C 
ATOM     18  C   UNL     1       5.671   3.364  14.674  0.00  0.00    +0.000 C 
ATOM     19  C   UNL     1       6.490   4.123  13.638  0.00  0.00    +0.000 C 
ATOM     20  C   UNL     1       6.686   5.525  14.220  0.00  0.00    +0.000 C 
ATOM     21  C   UNL     1       6.200   5.458  15.669  0.00  0.00    +0.000 C 
ENDBRANCH  15  17
ENDBRANCH   1  14
TORSDOF 2
ENDMDL
MODEL 5
REMARK VINA RESULT:      -7.0      2.372      6.084
REMARK  Name = 
REMARK  2 active torsions:
REMARK  status: ('A' for Active; 'I' for Inactive)
REMARK    1  A    between atoms: C_2  and  C_9
REMARK    2  A    between atoms: N_3  and  C_4
REMARK                            x       y       z     vdW  Elec       q    Type
REMARK                         _______ _______ _______ _____ _____    ______ ____
ROOT
ATOM      1  C   UNL     1       5.926   4.753  18.440  0.00  0.00    +0.000 A 
ATOM      2  N   UNL     1       6.528   5.622  19.207  0.00  0.00    +0.000 NA
ATOM      3  N   UNL     1       7.356   6.530  18.611  0.00  0.00    +0.000 N 
ATOM      4  C   UNL     1       7.542   6.689  17.258  0.00  0.00    +0.000 A 
ATOM      5  O   UNL     1       8.209   7.605  16.791  0.00  0.00    +0.000 OA
ATOM      6  C   UNL     1       6.917   5.673  16.396  0.00  0.00    +0.000 A 
ATOM      7  C   UNL     1       7.128   5.706  15.009  0.00  0.00    +0.000 A 
ATOM      8  C   UNL     1       6.587   4.706  14.203  0.00  0.00    +0.000 A 
ATOM      9  C   UNL     1       5.849   3.675  14.783  0.00  0.00    +0.000 A 
ATOM     10  C   UNL     1       5.629   3.653  16.163  0.00  0.00    +0.000 A 
ATOM     11  C   UNL     1       6.145   4.670  16.976  0.00  0.00    +0.000 A 
ATOM     12  H   UNL     1       7.781   7.228  19.216  0.00  0.00    +0.000 HD
ENDROOT
BRANCH   1  14
ATOM     13  O   UNL     1       5.301   2.823  19.718  0.00  0.00    +0.000 OA
ATOM     14  C   UNL     1       4.920   3.826  19.133  0.00  0.00    +0.000 C 
ATOM     15  N   UNL     1       3.597   4.198  18.994  0.00  0.00    +0.000 N 
ATOM     16  H   UNL     1       3.407   4.910  18.294  0.00  0.00    +0.000 HD
BRANCH  15  17
ATOM     17  C   UNL     1       2.533   3.339  19.466  0.00  0.00    +0.000 C 
ATOM     18  C   UNL     1       1.367   4.096  20.088  0.00  0.00    +0.000 C 
ATOM     19  C   UNL     1       0.272   3.038  20.160  0.00  0.00    +0.000 C 
ATOM     20  C   UNL     1       0.497   2.136  18.945  0.00  0.00    +0.000 C 
ATOM     21  C   UNL     1       1.850   2.539  18.356  0.00  0.00    +0.000 C 
ENDBRANCH  15  17
ENDBRANCH   1  14
TORSDOF 2
ENDMDL
MODEL 6
REMARK VINA RESULT:      -6.9      1.939      2.845
REMARK  Name = 
REMARK  2 active torsions:
REMARK  status: ('A' for Active; 'I' for Inactive)
REMARK    1  A    between atoms: C_2  and  C_9
REMARK    2  A    between atoms: N_3  and  C_4
REMARK                            x       y       z     vdW  Elec       q    Type
REMARK                         _______ _______ _______ _____ _____    ______ ____
ROOT
ATOM      1  C   UNL     1       3.956   4.199  17.718  0.00  0.00    +0.000 A 
ATOM      2  N   UNL     1       4.051   2.896  17.764  0.00  0.00    +0.000 NA
ATOM      3  N   UNL     1       3.341   2.240  18.728  0.00  0.00    +0.000 N 
ATOM      4  C   UNL     1       2.446   2.811  19.603  0.00  0.00    +0.000 A 
ATOM      5  O   UNL     1       1.754   2.142  20.362  0.00  0.00    +0.000 OA
ATOM      6  C   UNL     1       2.384   4.281  19.598  0.00  0.00    +0.000 A 
ATOM      7  C   UNL     1       1.564   4.951  20.519  0.00  0.00    +0.000 A 
ATOM      8  C   UNL     1       1.557   6.344  20.554  0.00  0.00    +0.000 A 
ATOM      9  C   UNL     1       2.374   7.061  19.680  0.00  0.00    +0.000 A 
ATOM     10  C   UNL     1       3.179   6.390  18.755  0.00  0.00    +0.000 A 
ATOM     11  C   UNL     1       3.170   4.991  18.695  0.00  0.00    +0.000 A 
ATOM     12  H   UNL     1       3.389   1.225  18.722  0.00  0.00    +0.000 HD
ENDROOT
BRANCH   1  14
ATOM     13  O   UNL     1       4.746   6.105  16.500  0.00  0.00    +0.000 OA
ATOM     14  C   UNL     1       4.676   4.887  16.553  0.00  0.00    +0.000 C 
ATOM     15  N   UNL     1       5.174   4.029  15.591  0.00  0.00    +0.000 N 
ATOM     16  H   UNL     1       4.845   3.068  15.639  0.00  0.00    +0.000 HD
BRANCH  15  17
ATOM     17  C   UNL     1       5.744   4.543  14.365  0.00  0.00    +0.000 C 
ATOM     18  C   UNL     1       7.217   4.910  14.483  0.00  0.00    +0.000 C 
ATOM     19  C   UNL     1       7.649   5.064  13.030  0.00  0.00    +0.000 C 
ATOM     20  C   UNL     1       6.809   4.053  12.247  0.00  0.00    +0.000 C 
ATOM     21  C   UNL     1       5.749   3.532  13.219  0.00  0.00    +0.000 C 
ENDBRANCH  15  17
ENDBRANCH   1  14
TORSDOF 2
ENDMDL
MODEL 7
REMARK VINA RESULT:      -6.8      2.868      6.424
REMARK  Name = 
REMARK  2 active torsions:
REMARK  status: ('A' for Active; 'I' for Inactive)
REMARK    1  A    between atoms: C_2  and  C_9
REMARK    2  A    between atoms: N_3  and  C_4
REMARK                            x       y       z     vdW  Elec       q    Type
REMARK                         _______ _______ _______ _____ _____    ______ ____
ROOT
ATOM      1  C   UNL     1       3.071   6.595  18.295  0.00  0.00    +0.000 A 
ATOM      2  N   UNL     1       4.111   6.998  17.616  0.00  0.00    +0.000 NA
ATOM      3  N   UNL     1       4.787   6.070  16.876  0.00  0.00    +0.000 N 
ATOM      4  C   UNL     1       4.418   4.759  16.691  0.00  0.00    +0.000 A 
ATOM      5  O   UNL     1       5.007   4.015  15.915  0.00  0.00    +0.000 OA
ATOM      6  C   UNL     1       3.286   4.285  17.502  0.00  0.00    +0.000 A 
ATOM      7  C   UNL     1       2.897   2.937  17.444  0.00  0.00    +0.000 A 
ATOM      8  C   UNL     1       1.866   2.478  18.261  0.00  0.00    +0.000 A 
ATOM      9  C   UNL     1       1.236   3.359  19.140  0.00  0.00    +0.000 A 
ATOM     10  C   UNL     1       1.617   4.704  19.186  0.00  0.00    +0.000 A 
ATOM     11  C   UNL     1       2.632   5.179  18.347  0.00  0.00    +0.000 A 
ATOM     12  H   UNL     1       5.566   6.409  16.318  0.00  0.00    +0.000 HD
ENDROOT
BRANCH   1  14
ATOM     13  O   UNL     1       2.083   7.617  20.225  0.00  0.00    +0.000 OA
ATOM     14  C   UNL     1       2.274   7.686  19.021  0.00  0.00    +0.000 C 
ATOM     15  N   UNL     1       1.779   8.683  18.203  0.00  0.00    +0.000 N 
ATOM     16  H   UNL     1       1.810   8.495  17.204  0.00  0.00    +0.000 HD
BRANCH  15  17
ATOM     17  C   UNL     1       0.886   9.694  18.726  0.00  0.00    +0.000 C 
ATOM     18  C   UNL     1       1.449  11.106  18.646  0.00  0.00    +0.000 C 
ATOM     19  C   UNL     1       0.225  11.977  18.903  0.00  0.00    +0.000 C 
ATOM     20  C   UNL     1      -0.954  11.209  18.302  0.00  0.00    +0.000 C 
ATOM     21  C   UNL     1      -0.425   9.818  17.949  0.00  0.00    +0.000 C 
ENDBRANCH  15  17
ENDBRANCH   1  14
TORSDOF 2
ENDMDL
MODEL 8
REMARK VINA RESULT:      -6.7      3.225      3.803
REMARK  Name = 
REMARK  2 active torsions:
REMARK  status: ('A' for Active; 'I' for Inactive)
REMARK    1  A    between atoms: C_2  and  C_9
REMARK    2  A    between atoms: N_3  and  C_4
REMARK                            x       y       z     vdW  Elec       q    Type
REMARK                         _______ _______ _______ _____ _____    ______ ____
ROOT
ATOM      1  C   UNL     1       6.961   4.945  16.086  0.00  0.00    +0.000 A 
ATOM      2  N   UNL     1       7.910   4.366  16.773  0.00  0.00    +0.000 NA
ATOM      3  N   UNL     1       7.851   4.450  18.134  0.00  0.00    +0.000 N 
ATOM      4  C   UNL     1       6.828   5.002  18.868  0.00  0.00    +0.000 A 
ATOM      5  O   UNL     1       6.787   4.934  20.091  0.00  0.00    +0.000 OA
ATOM      6  C   UNL     1       5.791   5.710  18.100  0.00  0.00    +0.000 A 
ATOM      7  C   UNL     1       4.756   6.379  18.772  0.00  0.00    +0.000 A 
ATOM      8  C   UNL     1       3.813   7.101  18.044  0.00  0.00    +0.000 A 
ATOM      9  C   UNL     1       3.910   7.163  16.654  0.00  0.00    +0.000 A 
ATOM     10  C   UNL     1       4.935   6.484  15.988  0.00  0.00    +0.000 A 
ATOM     11  C   UNL     1       5.870   5.732  16.710  0.00  0.00    +0.000 A 
ATOM     12  H   UNL     1       8.572   3.957  18.655  0.00  0.00    +0.000 HD
ENDROOT
BRANCH   1  14
ATOM     13  O   UNL     1       7.668   5.466  13.856  0.00  0.00    +0.000 OA
ATOM     14  C   UNL     1       7.000   4.732  14.569  0.00  0.00    +0.000 C 
ATOM     15  N   UNL     1       6.205   3.701  14.107  0.00  0.00    +0.000 N 
ATOM     16  H   UNL     1       5.530   3.329  14.770  0.00  0.00    +0.000 HD
BRANCH  15  17
ATOM     17  C   UNL     1       6.028   3.481  12.688  0.00  0.00    +0.000 C 
ATOM     18  C   UNL     1       6.395   2.073  12.238  0.00  0.00    +0.000 C 
ATOM     19  C   UNL     1       5.793   1.994  10.840  0.00  0.00    +0.000 C 
ATOM     20  C   UNL     1       4.531   2.858  10.890  0.00  0.00    +0.000 C 
ATOM     21  C   UNL     1       4.577   3.607  12.222  0.00  0.00    +0.000 C 
ENDBRANCH  15  17
ENDBRANCH   1  14
TORSDOF 2
ENDMDL
MODEL 9
REMARK VINA RESULT:      -6.7      2.524      6.894
REMARK  Name = 
REMARK  2 active torsions:
REMARK  status: ('A' for Active; 'I' for Inactive)
REMARK    1  A    between atoms: C_2  and  C_9
REMARK    2  A    between atoms: N_3  and  C_4
REMARK                            x       y       z     vdW  Elec       q    Type
REMARK                         _______ _______ _______ _____ _____    ______ ____
ROOT
ATOM      1  C   UNL     1       3.131   6.623  18.227  0.00  0.00    +0.000 A 
ATOM      2  N   UNL     1       4.246   7.106  17.746  0.00  0.00    +0.000 NA
ATOM      3  N   UNL     1       5.095   6.239  17.120  0.00  0.00    +0.000 N 
ATOM      4  C   UNL     1       4.846   4.913  16.852  0.00  0.00    +0.000 A 
ATOM      5  O   UNL     1       5.606   4.227  16.178  0.00  0.00    +0.000 OA
ATOM      6  C   UNL     1       3.623   4.352  17.447  0.00  0.00    +0.000 A 
ATOM      7  C   UNL     1       3.335   2.987  17.300  0.00  0.00    +0.000 A 
ATOM      8  C   UNL     1       2.209   2.446  17.918  0.00  0.00    +0.000 A 
ATOM      9  C   UNL     1       1.383   3.265  18.688  0.00  0.00    +0.000 A 
ATOM     10  C   UNL     1       1.666   4.628  18.821  0.00  0.00    +0.000 A 
ATOM     11  C   UNL     1       2.780   5.184  18.179  0.00  0.00    +0.000 A 
ATOM     12  H   UNL     1       5.937   6.638  16.711  0.00  0.00    +0.000 HD
ENDROOT
BRANCH   1  14
ATOM     13  O   UNL     1       1.607   8.470  18.104  0.00  0.00    +0.000 OA
ATOM     14  C   UNL     1       2.155   7.646  18.821  0.00  0.00    +0.000 C 
ATOM     15  N   UNL     1       2.002   7.574  20.192  0.00  0.00    +0.000 N 
ATOM     16  H   UNL     1       2.685   7.007  20.686  0.00  0.00    +0.000 HD
BRANCH  15  17
ATOM     17  C   UNL     1       1.230   8.569  20.904  0.00  0.00    +0.000 C 
ATOM     18  C   UNL     1      -0.189   8.125  21.229  0.00  0.00    +0.000 C 
ATOM     19  C   UNL     1      -0.644   9.155  22.256  0.00  0.00    +0.000 C 
ATOM     20  C   UNL     1       0.615   9.533  23.038  0.00  0.00    +0.000 C 
ATOM     21  C   UNL     1       1.792   8.910  22.285  0.00  0.00    +0.000 C 
ENDBRANCH  15  17
ENDBRANCH   1  14
TORSDOF 2
ENDMDL
