MODEL 1
REMARK VINA RESULT:      -8.6      0.000      0.000
REMARK  Name = 
REMARK  6 active torsions:
REMARK  status: ('A' for Active; 'I' for Inactive)
REMARK    1  A    between atoms: C_1  and  C_2
REMARK    2  A    between atoms: C_2  and  N_3
REMARK    3  A    between atoms: C_5  and  C_6
REMARK    4  A    between atoms: C_11  and  C_12
REMARK    5  A    between atoms: C_16  and  N_17
REMARK    6  A    between atoms: C_28  and  C_29
REMARK                            x       y       z     vdW  Elec       q    Type
REMARK                         _______ _______ _______ _____ _____    ______ ____
ROOT
ATOM      1  C   UNL     1       4.150   4.273  18.956  0.00  0.00    +0.000 A 
ATOM      2  N   UNL     1       4.064   3.135  19.640  0.00  0.00    +0.000 NA
ATOM      3  N   UNL     1       3.040   3.257  20.575  0.00  0.00    +0.000 NA
ATOM      4  C   UNL     1       2.563   4.456  20.415  0.00  0.00    +0.000 A 
ATOM      5  S   UNL     1       1.409   5.449  21.179  0.00  0.00    +0.000 S 
ATOM      6  C   UNL     1       1.990   6.762  20.113  0.00  0.00    +0.000 A 
ATOM      7  N   UNL     1       2.919   6.465  19.241  0.00  0.00    +0.000 NA
ATOM      8  N   UNL     1       3.214   5.145  19.450  0.00  0.00    +0.000 N 
ENDROOT
BRANCH   1  11
ATOM      9  N   UNL     1       6.755   6.004  16.966  0.00  0.00    +0.000 N 
ATOM     10  C   UNL     1       5.909   5.597  17.985  0.00  0.00    +0.000 A 
ATOM     11  C   UNL     1       4.967   4.652  17.874  0.00  0.00    +0.000 A 
ATOM     12  C   UNL     1       4.826   3.964  16.568  0.00  0.00    +0.000 A 
ATOM     13  O   UNL     1       3.967   3.110  16.378  0.00  0.00    +0.000 OA
ATOM     14  C   UNL     1       5.762   4.348  15.492  0.00  0.00    +0.000 A 
ATOM     15  C   UNL     1       5.694   3.701  14.256  0.00  0.00    +0.000 A 
ATOM     16  C   UNL     1       6.566   4.083  13.248  0.00  0.00    +0.000 A 
ATOM     17  C   UNL     1       7.478   5.098  13.508  0.00  0.00    +0.000 A 
ATOM     18  C   UNL     1       8.451   5.530  12.453  0.00  0.00    +0.000 C 
ATOM     19  N   UNL     1       7.559   5.722  14.713  0.00  0.00    +0.000 NA
ATOM     20  C   UNL     1       6.707   5.359  15.705  0.00  0.00    +0.000 A 
BRANCH   9  22
ATOM     21  C   UNL     1       8.121   7.245  18.604  0.00  0.00    +0.000 C 
ATOM     22  C   UNL     1       7.780   7.040  17.135  0.00  0.00    +0.000 C 
ENDBRANCH   9  22
ENDBRANCH   1  11
BRANCH   6  23
ATOM     23  C   UNL     1       1.417   8.120  20.263  0.00  0.00    +0.000 A 
ATOM     24  C   UNL     1       1.361   9.018  19.183  0.00  0.00    +0.000 A 
ATOM     25  C   UNL     1       0.776  10.278  19.336  0.00  0.00    +0.000 A 
ATOM     26  C   UNL     1       0.250  10.659  20.568  0.00  0.00    +0.000 A 
ATOM     27  C   UNL     1       0.310   9.769  21.650  0.00  0.00    +0.000 A 
ATOM     28  C   UNL     1       0.879   8.495  21.501  0.00  0.00    +0.000 A 
BRANCH  27  29
ATOM     29  N   UNL     1      -0.224  10.184  22.954  0.00  0.00    +0.000 N 
ATOM     30  O   UNL     1       0.262   9.664  23.967  0.00  0.00    +0.000 OA
ATOM     31  O   UNL     1      -1.134  11.026  22.961  0.00  0.00    +0.000 OA
ENDBRANCH  27  29
ENDBRANCH   6  23
TORSDOF 4
ENDMDL
MODEL 2
REMARK VINA RESULT:      -8.5      0.961      1.104
REMARK  Name = 
REMARK  6 active torsions:
REMARK  status: ('A' for Active; 'I' for Inactive)
REMARK    1  A    between atoms: C_1  and  C_2
REMARK    2  A    between atoms: C_2  and  N_3
REMARK    3  A    between atoms: C_5  and  C_6
REMARK    4  A    between atoms: C_11  and  C_12
REMARK    5  A    between atoms: C_16  and  N_17
REMARK    6  A    between atoms: C_28  and  C_29
REMARK                            x       y       z     vdW  Elec       q    Type
REMARK                         _______ _______ _______ _____ _____    ______ ____
ROOT
ATOM      1  C   UNL     1       3.671   5.009  19.304  0.00  0.00    +0.000 A 
ATOM      2  N   UNL     1       3.445   3.974  20.109  0.00  0.00    +0.000 NA
ATOM      3  N   UNL     1       2.373   4.285  20.940  0.00  0.00    +0.000 NA
ATOM      4  C   UNL     1       2.008   5.487  20.603  0.00  0.00    +0.000 A 
ATOM      5  S   UNL     1       0.889   6.649  21.151  0.00  0.00    +0.000 S 
ATOM      6  C   UNL     1       1.649   7.773  19.986  0.00  0.00    +0.000 A 
ATOM      7  N   UNL     1       2.608   7.304  19.230  0.00  0.00    +0.000 NA
ATOM      8  N   UNL     1       2.778   6.001  19.616  0.00  0.00    +0.000 N 
ENDROOT
BRANCH   1  11
ATOM      9  N   UNL     1       6.657   6.114  17.406  0.00  0.00    +0.000 N 
ATOM     10  C   UNL     1       5.708   5.911  18.394  0.00  0.00    +0.000 A 
ATOM     11  C   UNL     1       4.589   5.190  18.252  0.00  0.00    +0.000 A 
ATOM     12  C   UNL     1       4.350   4.534  16.945  0.00  0.00    +0.000 A 
ATOM     13  O   UNL     1       3.334   3.882  16.725  0.00  0.00    +0.000 OA
ATOM     14  C   UNL     1       5.385   4.694  15.902  0.00  0.00    +0.000 A 
ATOM     15  C   UNL     1       5.223   4.062  14.667  0.00  0.00    +0.000 A 
ATOM     16  C   UNL     1       6.192   4.235  13.692  0.00  0.00    +0.000 A 
ATOM     17  C   UNL     1       7.292   5.033  13.982  0.00  0.00    +0.000 A 
ATOM     18  C   UNL     1       8.373   5.233  12.962  0.00  0.00    +0.000 C 
ATOM     19  N   UNL     1       7.463   5.639  15.186  0.00  0.00    +0.000 NA
ATOM     20  C   UNL     1       6.517   5.480  16.147  0.00  0.00    +0.000 A 
BRANCH   9  22
ATOM     21  C   UNL     1       7.582   8.399  17.530  0.00  0.00    +0.000 C 
ATOM     22  C   UNL     1       7.875   6.908  17.610  0.00  0.00    +0.000 C 
ENDBRANCH   9  22
ENDBRANCH   1  11
BRANCH   6  23
ATOM     23  C   UNL     1       1.180   9.178  19.929  0.00  0.00    +0.000 A 
ATOM     24  C   UNL     1       1.219   9.918  18.735  0.00  0.00    +0.000 A 
ATOM     25  C   UNL     1       0.731  11.227  18.694  0.00  0.00    +0.000 A 
ATOM     26  C   UNL     1       0.207  11.814  19.844  0.00  0.00    +0.000 A 
ATOM     27  C   UNL     1       0.173  11.081  21.038  0.00  0.00    +0.000 A 
ATOM     28  C   UNL     1       0.644   9.760  21.085  0.00  0.00    +0.000 A 
BRANCH  27  29
ATOM     29  N   UNL     1      -0.358  11.712  22.254  0.00  0.00    +0.000 N 
ATOM     30  O   UNL     1      -0.499  10.999  23.257  0.00  0.00    +0.000 OA
ATOM     31  O   UNL     1      -0.638  12.918  22.201  0.00  0.00    +0.000 OA
ENDBRANCH  27  29
ENDBRANCH   6  23
TORSDOF 4
ENDMDL
MODEL 3
REMARK VINA RESULT:      -8.1      4.027      6.383
REMARK  Name = 
REMARK  6 active torsions:
REMARK  status: ('A' for Active; 'I' for Inactive)
REMARK    1  A    between atoms: C_1  and  C_2
REMARK    2  A    between atoms: C_2  and  N_3
REMARK    3  A    between atoms: C_5  and  C_6
REMARK    4  A    between atoms: C_11  and  C_12
REMARK    5  A    between atoms: C_16  and  N_17
REMARK    6  A    between atoms: C_28  and  C_29
REMARK                            x       y       z     vdW  Elec       q    Type
REMARK                         _______ _______ _______ _____ _____    ______ ____
ROOT
ATOM      1  C   UNL     1       1.063   9.240  20.865  0.00  0.00    +0.000 A 
ATOM      2  N   UNL     1       1.301   9.898  21.997  0.00  0.00    +0.000 NA
ATOM      3  N   UNL     1       0.324  10.876  22.156  0.00  0.00    +0.000 NA
ATOM      4  C   UNL     1      -0.451  10.766  21.117  0.00  0.00    +0.000 A 
ATOM      5  S   UNL     1      -1.785  11.600  20.464  0.00  0.00    +0.000 S 
ATOM      6  C   UNL     1      -1.606  10.546  19.030  0.00  0.00    +0.000 A 
ATOM      7  N   UNL     1      -0.672   9.630  19.066  0.00  0.00    +0.000 NA
ATOM      8  N   UNL     1      -0.041   9.793  20.270  0.00  0.00    +0.000 N 
ENDROOT
BRANCH   1  11
ATOM      9  N   UNL     1       2.208   5.772  20.236  0.00  0.00    +0.000 N 
ATOM     10  C   UNL     1       1.615   6.900  20.778  0.00  0.00    +0.000 A 
ATOM     11  C   UNL     1       1.707   8.137  20.274  0.00  0.00    +0.000 A 
ATOM     12  C   UNL     1       2.483   8.319  19.024  0.00  0.00    +0.000 A 
ATOM     13  O   UNL     1       2.641   9.425  18.517  0.00  0.00    +0.000 OA
ATOM     14  C   UNL     1       3.071   7.114  18.405  0.00  0.00    +0.000 A 
ATOM     15  C   UNL     1       3.779   7.230  17.207  0.00  0.00    +0.000 A 
ATOM     16  C   UNL     1       4.341   6.093  16.645  0.00  0.00    +0.000 A 
ATOM     17  C   UNL     1       4.177   4.879  17.300  0.00  0.00    +0.000 A 
ATOM     18  C   UNL     1       4.753   3.622  16.719  0.00  0.00    +0.000 C 
ATOM     19  N   UNL     1       3.478   4.756  18.459  0.00  0.00    +0.000 NA
ATOM     20  C   UNL     1       2.927   5.863  19.019  0.00  0.00    +0.000 A 
BRANCH   9  22
ATOM     21  C   UNL     1       0.740   3.799  20.449  0.00  0.00    +0.000 C 
ATOM     22  C   UNL     1       2.074   4.432  20.820  0.00  0.00    +0.000 C 
ENDBRANCH   9  22
ENDBRANCH   1  11
BRANCH   6  23
ATOM     23  C   UNL     1      -2.500  10.753  17.866  0.00  0.00    +0.000 A 
ATOM     24  C   UNL     1      -2.130  10.347  16.573  0.00  0.00    +0.000 A 
ATOM     25  C   UNL     1      -3.007  10.512  15.497  0.00  0.00    +0.000 A 
ATOM     26  C   UNL     1      -4.258  11.093  15.699  0.00  0.00    +0.000 A 
ATOM     27  C   UNL     1      -4.627  11.507  16.986  0.00  0.00    +0.000 A 
ATOM     28  C   UNL     1      -3.760  11.328  18.075  0.00  0.00    +0.000 A 
BRANCH  27  29
ATOM     29  N   UNL     1      -5.937  12.141  17.190  0.00  0.00    +0.000 N 
ATOM     30  O   UNL     1      -6.790  11.507  17.825  0.00  0.00    +0.000 OA
ATOM     31  O   UNL     1      -6.110  13.269  16.707  0.00  0.00    +0.000 OA
ENDBRANCH  27  29
ENDBRANCH   6  23
TORSDOF 4
ENDMDL
MODEL 4
REMARK VINA RESULT:      -8.1      1.586      1.846
REMARK  Name = 
REMARK  6 active torsions:
REMARK  status: ('A' for Active; 'I' for Inactive)
REMARK    1  A    between atoms: C_1  and  C_2
REMARK    2  A    between atoms: C_2  and  N_3
REMARK    3  A    between atoms: C_5  and  C_6
REMARK    4  A    between atoms: C_11  and  C_12
REMARK    5  A    between atoms: C_16  and  N_17
REMARK    6  A    between atoms: C_28  and  C_29
REMARK                            x       y       z     vdW  Elec       q    Type
REMARK                         _______ _______ _______ _____ _____    ______ ____
ROOT
ATOM      1  C   UNL     1       3.481   5.478  19.365  0.00  0.00    +0.000 A 
ATOM      2  N   UNL     1       3.294   4.536  20.285  0.00  0.00    +0.000 NA
ATOM      3  N   UNL     1       2.234   4.918  21.103  0.00  0.00    +0.000 NA
ATOM      4  C   UNL     1       1.837   6.067  20.642  0.00  0.00    +0.000 A 
ATOM      5  S   UNL     1       0.706   7.263  21.084  0.00  0.00    +0.000 S 
ATOM      6  C   UNL     1       1.416   8.263  19.784  0.00  0.00    +0.000 A 
ATOM      7  N   UNL     1       2.368   7.730  19.061  0.00  0.00    +0.000 NA
ATOM      8  N   UNL     1       2.574   6.482  19.586  0.00  0.00    +0.000 N 
ENDROOT
BRANCH   1  11
ATOM      9  N   UNL     1       6.345   6.497  17.245  0.00  0.00    +0.000 N 
ATOM     10  C   UNL     1       5.424   6.384  18.273  0.00  0.00    +0.000 A 
ATOM     11  C   UNL     1       4.371   5.557  18.278  0.00  0.00    +0.000 A 
ATOM     12  C   UNL     1       4.180   4.672  17.104  0.00  0.00    +0.000 A 
ATOM     13  O   UNL     1       3.223   3.909  17.018  0.00  0.00    +0.000 OA
ATOM     14  C   UNL     1       5.189   4.742  16.027  0.00  0.00    +0.000 A 
ATOM     15  C   UNL     1       5.074   3.900  14.918  0.00  0.00    +0.000 A 
ATOM     16  C   UNL     1       6.017   3.988  13.906  0.00  0.00    +0.000 A 
ATOM     17  C   UNL     1       7.045   4.914  14.035  0.00  0.00    +0.000 A 
ATOM     18  C   UNL     1       8.097   5.031  12.972  0.00  0.00    +0.000 C 
ATOM     19  N   UNL     1       7.172   5.727  15.117  0.00  0.00    +0.000 NA
ATOM     20  C   UNL     1       6.251   5.651  16.112  0.00  0.00    +0.000 A 
BRANCH   9  22
ATOM     21  C   UNL     1       8.236   7.306  18.608  0.00  0.00    +0.000 C 
ATOM     22  C   UNL     1       7.490   7.414  17.286  0.00  0.00    +0.000 C 
ENDBRANCH   9  22
ENDBRANCH   1  11
BRANCH   6  23
ATOM     23  C   UNL     1       0.917   9.644  19.581  0.00  0.00    +0.000 A 
ATOM     24  C   UNL     1       0.064   9.969  18.513  0.00  0.00    +0.000 A 
ATOM     25  C   UNL     1      -0.430  11.268  18.366  0.00  0.00    +0.000 A 
ATOM     26  C   UNL     1      -0.070  12.258  19.278  0.00  0.00    +0.000 A 
ATOM     27  C   UNL     1       0.786  11.941  20.341  0.00  0.00    +0.000 A 
ATOM     28  C   UNL     1       1.272  10.634  20.507  0.00  0.00    +0.000 A 
BRANCH  27  29
ATOM     29  N   UNL     1       1.182  12.993  21.286  0.00  0.00    +0.000 N 
ATOM     30  O   UNL     1       2.362  13.368  21.269  0.00  0.00    +0.000 OA
ATOM     31  O   UNL     1       0.312  13.439  22.048  0.00  0.00    +0.000 OA
ENDBRANCH  27  29
ENDBRANCH   6  23
TORSDOF 4
ENDMDL
MODEL 5
REMARK VINA RESULT:      -7.9      2.192      2.458
REMARK  Name = 
REMARK  6 active torsions:
REMARK  status: ('A' for Active; 'I' for Inactive)
REMARK    1  A    between atoms: C_1  and  C_2
REMARK    2  A    between atoms: C_2  and  N_3
REMARK    3  A    between atoms: C_5  and  C_6
REMARK    4  A    between atoms: C_11  and  C_12
REMARK    5  A    between atoms: C_16  and  N_17
REMARK    6  A    between atoms: C_28  and  C_29
REMARK                            x       y       z     vdW  Elec       q    Type
REMARK                         _______ _______ _______ _____ _____    ______ ____
ROOT
ATOM      1  C   UNL     1       3.521   5.279  19.313  0.00  0.00    +0.000 A 
ATOM      2  N   UNL     1       3.335   4.289  20.182  0.00  0.00    +0.000 NA
ATOM      3  N   UNL     1       2.284   4.632  21.026  0.00  0.00    +0.000 NA
ATOM      4  C   UNL     1       1.890   5.807  20.633  0.00  0.00    +0.000 A 
ATOM      5  S   UNL     1       0.771   6.983  21.148  0.00  0.00    +0.000 S 
ATOM      6  C   UNL     1       1.478   8.049  19.899  0.00  0.00    +0.000 A 
ATOM      7  N   UNL     1       2.421   7.551  19.141  0.00  0.00    +0.000 NA
ATOM      8  N   UNL     1       2.623   6.275  19.596  0.00  0.00    +0.000 N 
ENDROOT
BRANCH   1  11
ATOM      9  N   UNL     1       6.342   6.440  17.208  0.00  0.00    +0.000 N 
ATOM     10  C   UNL     1       5.430   6.272  18.236  0.00  0.00    +0.000 A 
ATOM     11  C   UNL     1       4.404   5.412  18.225  0.00  0.00    +0.000 A 
ATOM     12  C   UNL     1       4.237   4.549  17.031  0.00  0.00    +0.000 A 
ATOM     13  O   UNL     1       3.305   3.758  16.930  0.00  0.00    +0.000 OA
ATOM     14  C   UNL     1       5.239   4.677  15.953  0.00  0.00    +0.000 A 
ATOM     15  C   UNL     1       5.147   3.858  14.825  0.00  0.00    +0.000 A 
ATOM     16  C   UNL     1       6.083   4.000  13.812  0.00  0.00    +0.000 A 
ATOM     17  C   UNL     1       7.081   4.955  13.960  0.00  0.00    +0.000 A 
ATOM     18  C   UNL     1       8.124   5.130  12.897  0.00  0.00    +0.000 C 
ATOM     19  N   UNL     1       7.185   5.746  15.060  0.00  0.00    +0.000 NA
ATOM     20  C   UNL     1       6.271   5.617  16.056  0.00  0.00    +0.000 A 
BRANCH   9  22
ATOM     21  C   UNL     1       8.213   7.276  18.583  0.00  0.00    +0.000 C 
ATOM     22  C   UNL     1       7.458   7.392  17.267  0.00  0.00    +0.000 C 
ENDBRANCH   9  22
ENDBRANCH   1  11
BRANCH   6  23
ATOM     23  C   UNL     1       0.986   9.442  19.776  0.00  0.00    +0.000 A 
ATOM     24  C   UNL     1      -0.221   9.852  20.369  0.00  0.00    +0.000 A 
ATOM     25  C   UNL     1      -0.643  11.181  20.277  0.00  0.00    +0.000 A 
ATOM     26  C   UNL     1       0.129  12.112  19.585  0.00  0.00    +0.000 A 
ATOM     27  C   UNL     1       1.329  11.707  18.986  0.00  0.00    +0.000 A 
ATOM     28  C   UNL     1       1.770  10.378  19.089  0.00  0.00    +0.000 A 
BRANCH  27  29
ATOM     29  N   UNL     1       2.127  12.687  18.238  0.00  0.00    +0.000 N 
ATOM     30  O   UNL     1       3.187  12.297  17.729  0.00  0.00    +0.000 OA
ATOM     31  O   UNL     1       1.694  13.846  18.165  0.00  0.00    +0.000 OA
ENDBRANCH  27  29
ENDBRANCH   6  23
TORSDOF 4
ENDMDL
MODEL 6
REMARK VINA RESULT:      -7.9      1.676      1.933
REMARK  Name = 
REMARK  6 active torsions:
REMARK  status: ('A' for Active; 'I' for Inactive)
REMARK    1  A    between atoms: C_1  and  C_2
REMARK    2  A    between atoms: C_2  and  N_3
REMARK    3  A    between atoms: C_5  and  C_6
REMARK    4  A    between atoms: C_11  and  C_12
REMARK    5  A    between atoms: C_16  and  N_17
REMARK    6  A    between atoms: C_28  and  C_29
REMARK                            x       y       z     vdW  Elec       q    Type
REMARK                         _______ _______ _______ _____ _____    ______ ____
ROOT
ATOM      1  C   UNL     1       4.124   4.098  19.087  0.00  0.00    +0.000 A 
ATOM      2  N   UNL     1       4.024   2.938  19.732  0.00  0.00    +0.000 NA
ATOM      3  N   UNL     1       2.973   3.025  20.640  0.00  0.00    +0.000 NA
ATOM      4  C   UNL     1       2.494   4.226  20.505  0.00  0.00    +0.000 A 
ATOM      5  S   UNL     1       1.313   5.188  21.266  0.00  0.00    +0.000 S 
ATOM      6  C   UNL     1       1.918   6.538  20.261  0.00  0.00    +0.000 A 
ATOM      7  N   UNL     1       2.873   6.274  19.407  0.00  0.00    +0.000 NA
ATOM      8  N   UNL     1       3.169   4.949  19.582  0.00  0.00    +0.000 N 
ENDROOT
BRANCH   1  11
ATOM      9  N   UNL     1       6.856   5.809  17.259  0.00  0.00    +0.000 N 
ATOM     10  C   UNL     1       5.980   5.372  18.239  0.00  0.00    +0.000 A 
ATOM     11  C   UNL     1       4.970   4.515  18.043  0.00  0.00    +0.000 A 
ATOM     12  C   UNL     1       4.781   3.968  16.678  0.00  0.00    +0.000 A 
ATOM     13  O   UNL     1       3.860   3.202  16.411  0.00  0.00    +0.000 OA
ATOM     14  C   UNL     1       5.746   4.380  15.639  0.00  0.00    +0.000 A 
ATOM     15  C   UNL     1       5.633   3.860  14.347  0.00  0.00    +0.000 A 
ATOM     16  C   UNL     1       6.533   4.270  13.376  0.00  0.00    +0.000 A 
ATOM     17  C   UNL     1       7.518   5.184  13.728  0.00  0.00    +0.000 A 
ATOM     18  C   UNL     1       8.524   5.640  12.713  0.00  0.00    +0.000 C 
ATOM     19  N   UNL     1       7.644   5.684  14.985  0.00  0.00    +0.000 NA
ATOM     20  C   UNL     1       6.764   5.292  15.943  0.00  0.00    +0.000 A 
BRANCH   9  22
ATOM     21  C   UNL     1       7.458   8.183  17.569  0.00  0.00    +0.000 C 
ATOM     22  C   UNL     1       7.956   6.745  17.521  0.00  0.00    +0.000 C 
ENDBRANCH   9  22
ENDBRANCH   1  11
BRANCH   6  23
ATOM     23  C   UNL     1       1.333   7.888  20.437  0.00  0.00    +0.000 A 
ATOM     24  C   UNL     1       0.556   8.212  21.563  0.00  0.00    +0.000 A 
ATOM     25  C   UNL     1       0.052   9.505  21.730  0.00  0.00    +0.000 A 
ATOM     26  C   UNL     1       0.308  10.484  20.772  0.00  0.00    +0.000 A 
ATOM     27  C   UNL     1       1.075  10.162  19.644  0.00  0.00    +0.000 A 
ATOM     28  C   UNL     1       1.602   8.872  19.477  0.00  0.00    +0.000 A 
BRANCH  27  29
ATOM     29  N   UNL     1       1.323  11.191  18.625  0.00  0.00    +0.000 N 
ATOM     30  O   UNL     1       2.329  11.066  17.914  0.00  0.00    +0.000 OA
ATOM     31  O   UNL     1       0.512  12.125  18.542  0.00  0.00    +0.000 OA
ENDBRANCH  27  29
ENDBRANCH   6  23
TORSDOF 4
ENDMDL
MODEL 7
REMARK VINA RESULT:      -7.9      2.144      2.567
REMARK  Name = 
REMARK  6 active torsions:
REMARK  status: ('A' for Active; 'I' for Inactive)
REMARK    1  A    between atoms: C_1  and  C_2
REMARK    2  A    between atoms: C_2  and  N_3
REMARK    3  A    between atoms: C_5  and  C_6
REMARK    4  A    between atoms: C_11  and  C_12
REMARK    5  A    between atoms: C_16  and  N_17
REMARK    6  A    between atoms: C_28  and  C_29
REMARK                            x       y       z     vdW  Elec       q    Type
REMARK                         _______ _______ _______ _____ _____    ______ ____
ROOT
ATOM      1  C   UNL     1       3.442   5.666  19.336  0.00  0.00    +0.000 A 
ATOM      2  N   UNL     1       3.250   4.768  20.298  0.00  0.00    +0.000 NA
ATOM      3  N   UNL     1       2.180   5.182  21.085  0.00  0.00    +0.000 NA
ATOM      4  C   UNL     1       1.780   6.305  20.565  0.00  0.00    +0.000 A 
ATOM      5  S   UNL     1       0.638   7.513  20.938  0.00  0.00    +0.000 S 
ATOM      6  C   UNL     1       1.357   8.455  19.599  0.00  0.00    +0.000 A 
ATOM      7  N   UNL     1       2.320   7.894  18.913  0.00  0.00    +0.000 NA
ATOM      8  N   UNL     1       2.527   6.674  19.499  0.00  0.00    +0.000 N 
ENDROOT
BRANCH   1  11
ATOM      9  N   UNL     1       6.351   6.564  17.222  0.00  0.00    +0.000 N 
ATOM     10  C   UNL     1       5.419   6.496  18.244  0.00  0.00    +0.000 A 
ATOM     11  C   UNL     1       4.343   5.699  18.255  0.00  0.00    +0.000 A 
ATOM     12  C   UNL     1       4.139   4.796  17.097  0.00  0.00    +0.000 A 
ATOM     13  O   UNL     1       3.162   4.058  17.018  0.00  0.00    +0.000 OA
ATOM     14  C   UNL     1       5.159   4.817  16.029  0.00  0.00    +0.000 A 
ATOM     15  C   UNL     1       5.031   3.956  14.937  0.00  0.00    +0.000 A 
ATOM     16  C   UNL     1       5.985   3.997  13.932  0.00  0.00    +0.000 A 
ATOM     17  C   UNL     1       7.036   4.897  14.052  0.00  0.00    +0.000 A 
ATOM     18  C   UNL     1       8.100   4.964  12.997  0.00  0.00    +0.000 C 
ATOM     19  N   UNL     1       7.176   5.728  15.119  0.00  0.00    +0.000 NA
ATOM     20  C   UNL     1       6.244   5.698  16.106  0.00  0.00    +0.000 A 
BRANCH   9  22
ATOM     21  C   UNL     1       8.245   7.358  18.592  0.00  0.00    +0.000 C 
ATOM     22  C   UNL     1       7.521   7.450  17.256  0.00  0.00    +0.000 C 
ENDBRANCH   9  22
ENDBRANCH   1  11
BRANCH   6  23
ATOM     23  C   UNL     1       0.852   9.822  19.325  0.00  0.00    +0.000 A 
ATOM     24  C   UNL     1       1.613  10.963  19.631  0.00  0.00    +0.000 A 
ATOM     25  C   UNL     1       1.135  12.240  19.324  0.00  0.00    +0.000 A 
ATOM     26  C   UNL     1      -0.110  12.392  18.717  0.00  0.00    +0.000 A 
ATOM     27  C   UNL     1      -0.875  11.257  18.416  0.00  0.00    +0.000 A 
ATOM     28  C   UNL     1      -0.396   9.970  18.705  0.00  0.00    +0.000 A 
BRANCH  27  29
ATOM     29  N   UNL     1      -2.198  11.424  17.799  0.00  0.00    +0.000 N 
ATOM     30  O   UNL     1      -2.319  11.113  16.606  0.00  0.00    +0.000 OA
ATOM     31  O   UNL     1      -3.111  11.871  18.508  0.00  0.00    +0.000 OA
ENDBRANCH  27  29
ENDBRANCH   6  23
TORSDOF 4
ENDMDL
MODEL 8
REMARK VINA RESULT:      -7.5      4.342      6.812
REMARK  Name = 
REMARK  6 active torsions:
REMARK  status: ('A' for Active; 'I' for Inactive)
REMARK    1  A    between atoms: C_1  and  C_2
REMARK    2  A    between atoms: C_2  and  N_3
REMARK    3  A    between atoms: C_5  and  C_6
REMARK    4  A    between atoms: C_11  and  C_12
REMARK    5  A    between atoms: C_16  and  N_17
REMARK    6  A    between atoms: C_28  and  C_29
REMARK                            x       y       z     vdW  Elec       q    Type
REMARK                         _______ _______ _______ _____ _____    ______ ____
ROOT
ATOM      1  C   UNL     1       0.900   9.728  20.841  0.00  0.00    +0.000 A 
ATOM      2  N   UNL     1       1.211  10.461  21.907  0.00  0.00    +0.000 NA
ATOM      3  N   UNL     1       0.233  11.436  22.076  0.00  0.00    +0.000 NA
ATOM      4  C   UNL     1      -0.615  11.250  21.108  0.00  0.00    +0.000 A 
ATOM      5  S   UNL     1      -2.006  12.026  20.504  0.00  0.00    +0.000 S 
ATOM      6  C   UNL     1      -1.918  10.883  19.132  0.00  0.00    +0.000 A 
ATOM      7  N   UNL     1      -0.971   9.981  19.156  0.00  0.00    +0.000 NA
ATOM      8  N   UNL     1      -0.254  10.229  20.296  0.00  0.00    +0.000 N 
ENDROOT
BRANCH   1  11
ATOM      9  N   UNL     1       1.992   6.225  20.317  0.00  0.00    +0.000 N 
ATOM     10  C   UNL     1       1.426   7.381  20.830  0.00  0.00    +0.000 A 
ATOM     11  C   UNL     1       1.515   8.596  20.275  0.00  0.00    +0.000 A 
ATOM     12  C   UNL     1       2.256   8.720  18.997  0.00  0.00    +0.000 A 
ATOM     13  O   UNL     1       2.408   9.804  18.442  0.00  0.00    +0.000 OA
ATOM     14  C   UNL     1       2.813   7.485  18.409  0.00  0.00    +0.000 A 
ATOM     15  C   UNL     1       3.485   7.546  17.187  0.00  0.00    +0.000 A 
ATOM     16  C   UNL     1       4.019   6.383  16.654  0.00  0.00    +0.000 A 
ATOM     17  C   UNL     1       3.863   5.197  17.361  0.00  0.00    +0.000 A 
ATOM     18  C   UNL     1       4.410   3.912  16.813  0.00  0.00    +0.000 C 
ATOM     19  N   UNL     1       3.198   5.127  18.544  0.00  0.00    +0.000 NA
ATOM     20  C   UNL     1       2.675   6.261  19.076  0.00  0.00    +0.000 A 
BRANCH   9  22
ATOM     21  C   UNL     1       0.801   4.064  20.268  0.00  0.00    +0.000 C 
ATOM     22  C   UNL     1       1.862   4.911  20.956  0.00  0.00    +0.000 C 
ENDBRANCH   9  22
ENDBRANCH   1  11
BRANCH   6  23
ATOM     23  C   UNL     1      -2.899  11.004  18.028  0.00  0.00    +0.000 A 
ATOM     24  C   UNL     1      -4.126  11.668  18.203  0.00  0.00    +0.000 A 
ATOM     25  C   UNL     1      -5.017  11.808  17.135  0.00  0.00    +0.000 A 
ATOM     26  C   UNL     1      -4.698  11.279  15.886  0.00  0.00    +0.000 A 
ATOM     27  C   UNL     1      -3.479  10.611  15.709  0.00  0.00    +0.000 A 
ATOM     28  C   UNL     1      -2.570  10.481  16.771  0.00  0.00    +0.000 A 
BRANCH  27  29
ATOM     29  N   UNL     1      -3.158  10.034  14.397  0.00  0.00    +0.000 N 
ATOM     30  O   UNL     1      -2.037   9.530  14.248  0.00  0.00    +0.000 OA
ATOM     31  O   UNL     1      -4.028  10.092  13.515  0.00  0.00    +0.000 OA
ENDBRANCH  27  29
ENDBRANCH   6  23
TORSDOF 4
ENDMDL
MODEL 9
REMARK VINA RESULT:      -7.4      3.985      6.437
REMARK  Name = 
REMARK  6 active torsions:
REMARK  status: ('A' for Active; 'I' for Inactive)
REMARK    1  A    between atoms: C_1  and  C_2
REMARK    2  A    between atoms: C_2  and  N_3
REMARK    3  A    between atoms: C_5  and  C_6
REMARK    4  A    between atoms: C_11  and  C_12
REMARK    5  A    between atoms: C_16  and  N_17
REMARK    6  A    between atoms: C_28  and  C_29
REMARK                            x       y       z     vdW  Elec       q    Type
REMARK                         _______ _______ _______ _____ _____    ______ ____
ROOT
ATOM      1  C   UNL     1       1.306   9.188  20.411  0.00  0.00    +0.000 A 
ATOM      2  N   UNL     1       1.750   9.921  21.428  0.00  0.00    +0.000 NA
ATOM      3  N   UNL     1       0.908  11.018  21.586  0.00  0.00    +0.000 NA
ATOM      4  C   UNL     1       0.003  10.898  20.660  0.00  0.00    +0.000 A 
ATOM      5  S   UNL     1      -1.307  11.815  20.073  0.00  0.00    +0.000 S 
ATOM      6  C   UNL     1      -1.419  10.612  18.755  0.00  0.00    +0.000 A 
ATOM      7  N   UNL     1      -0.590   9.600  18.787  0.00  0.00    +0.000 NA
ATOM      8  N   UNL     1       0.200   9.806  19.886  0.00  0.00    +0.000 N 
ENDROOT
BRANCH   1  11
ATOM      9  N   UNL     1       3.036   6.731  18.242  0.00  0.00    +0.000 N 
ATOM     10  C   UNL     1       2.550   7.899  18.805  0.00  0.00    +0.000 A 
ATOM     11  C   UNL     1       1.752   7.964  19.878  0.00  0.00    +0.000 A 
ATOM     12  C   UNL     1       1.372   6.692  20.536  0.00  0.00    +0.000 A 
ATOM     13  O   UNL     1       0.619   6.665  21.505  0.00  0.00    +0.000 OA
ATOM     14  C   UNL     1       1.932   5.443  19.980  0.00  0.00    +0.000 A 
ATOM     15  C   UNL     1       1.635   4.222  20.590  0.00  0.00    +0.000 A 
ATOM     16  C   UNL     1       2.152   3.056  20.048  0.00  0.00    +0.000 A 
ATOM     17  C   UNL     1       2.950   3.148  18.915  0.00  0.00    +0.000 A 
ATOM     18  C   UNL     1       3.545   1.913  18.306  0.00  0.00    +0.000 C 
ATOM     19  N   UNL     1       3.256   4.333  18.324  0.00  0.00    +0.000 NA
ATOM     20  C   UNL     1       2.751   5.481  18.845  0.00  0.00    +0.000 A 
BRANCH   9  22
ATOM     21  C   UNL     1       5.370   6.922  17.462  0.00  0.00    +0.000 C 
ATOM     22  C   UNL     1       3.916   6.708  17.067  0.00  0.00    +0.000 C 
ENDBRANCH   9  22
ENDBRANCH   1  11
BRANCH   6  23
ATOM     23  C   UNL     1      -2.425  10.806  17.683  0.00  0.00    +0.000 A 
ATOM     24  C   UNL     1      -2.159  10.446  16.351  0.00  0.00    +0.000 A 
ATOM     25  C   UNL     1      -3.138  10.598  15.365  0.00  0.00    +0.000 A 
ATOM     26  C   UNL     1      -4.387  11.120  15.696  0.00  0.00    +0.000 A 
ATOM     27  C   UNL     1      -4.653  11.487  17.022  0.00  0.00    +0.000 A 
ATOM     28  C   UNL     1      -3.683  11.321  18.022  0.00  0.00    +0.000 A 
BRANCH  27  29
ATOM     29  N   UNL     1      -5.963  12.060  17.361  0.00  0.00    +0.000 N 
ATOM     30  O   UNL     1      -6.766  11.339  17.969  0.00  0.00    +0.000 OA
ATOM     31  O   UNL     1      -6.188  13.228  17.012  0.00  0.00    +0.000 OA
ENDBRANCH  27  29
ENDBRANCH   6  23
TORSDOF 4
ENDMDL
