MODEL 1
REMARK VINA RESULT:      -8.5      0.000      0.000
REMARK  Name = 
REMARK  5 active torsions:
REMARK  status: ('A' for Active; 'I' for Inactive)
REMARK    1  A    between atoms: N_3  and  C_4
REMARK    2  A    between atoms: N_15  and  C_16
REMARK    3  A    between atoms: C_16  and  C_17
REMARK    4  A    between atoms: C_21  and  O_22
REMARK    5  A    between atoms: O_22  and  C_23
REMARK                            x       y       z     vdW  Elec       q    Type
REMARK                         _______ _______ _______ _____ _____    ______ ____
ROOT
ATOM      1  O   UNL     1      -2.437  13.265  20.688  0.00  0.00    +0.000 OA
ATOM      2  C   UNL     1      -2.189  12.560  21.664  0.00  0.00    +0.000 C 
ATOM      3  N   UNL     1      -3.059  12.378  22.714  0.00  0.00    +0.000 N 
ATOM      4  N   UNL     1      -0.972  11.929  21.816  0.00  0.00    +0.000 N 
ATOM      5  C   UNL     1       0.067  12.134  20.824  0.00  0.00    +0.000 C 
ATOM      6  C   UNL     1       0.829  10.833  20.802  0.00  0.00    +0.000 C 
ATOM      7  C   UNL     1       0.156   9.748  19.976  0.00  0.00    +0.000 C 
ATOM      8  N   UNL     1       0.652   8.490  20.561  0.00  0.00    +0.000 NA
ATOM      9  C   UNL     1       0.840   8.768  22.010  0.00  0.00    +0.000 C 
ATOM     10  C   UNL     1       0.707  10.280  22.215  0.00  0.00    +0.000 C 
ATOM     11  C   UNL     1      -0.683  10.771  22.664  0.00  0.00    +0.000 C 
ATOM     12  H   UNL     1      -2.605  12.570  23.597  0.00  0.00    +0.000 HD
ENDROOT
BRANCH   3  13
ATOM     13  C   UNL     1      -4.331  12.985  22.647  0.00  0.00    +0.000 A 
ATOM     14  N   UNL     1      -5.249  12.268  21.960  0.00  0.00    +0.000 NA
ATOM     15  C   UNL     1      -6.497  12.763  21.962  0.00  0.00    +0.000 A 
ATOM     16  N   UNL     1      -6.890  13.916  22.522  0.00  0.00    +0.000 NA
ATOM     17  C   UNL     1      -5.920  14.626  23.138  0.00  0.00    +0.000 A 
ATOM     18  C   UNL     1      -4.608  14.214  23.233  0.00  0.00    +0.000 A 
ATOM     19 CL   UNL     1      -3.432  15.258  23.928  0.00  0.00    +0.000 Cl
ENDBRANCH   3  13
BRANCH   8  20
ATOM     20  C   UNL     1       1.914   8.039  19.943  0.00  0.00    +0.000 C 
BRANCH  20  21
ATOM     21  C   UNL     1       2.162   6.547  20.050  0.00  0.00    +0.000 A 
ATOM     22  C   UNL     1       1.173   5.673  20.521  0.00  0.00    +0.000 A 
ATOM     23  C   UNL     1       1.416   4.299  20.591  0.00  0.00    +0.000 A 
ATOM     24  C   UNL     1       2.656   3.785  20.205  0.00  0.00    +0.000 A 
ATOM     25  C   UNL     1       3.658   4.644  19.754  0.00  0.00    +0.000 A 
ATOM     26  C   UNL     1       3.398   6.014  19.647  0.00  0.00    +0.000 A 
BRANCH  25  27
ATOM     27  O   UNL     1       4.845   4.057  19.371  0.00  0.00    +0.000 OA
BRANCH  27  28
ATOM     28  C   UNL     1       5.292   4.234  18.080  0.00  0.00    +0.000 A 
ATOM     29  C   UNL     1       4.459   4.146  16.959  0.00  0.00    +0.000 A 
ATOM     30  C   UNL     1       4.989   4.315  15.680  0.00  0.00    +0.000 A 
ATOM     31  C   UNL     1       6.340   4.621  15.527  0.00  0.00    +0.000 A 
ATOM     32 CL   UNL     1       6.993   4.829  13.948  0.00  0.00    +0.000 Cl
ATOM     33  C   UNL     1       7.162   4.763  16.643  0.00  0.00    +0.000 A 
ATOM     34  C   UNL     1       6.637   4.570  17.923  0.00  0.00    +0.000 A 
ENDBRANCH  27  28
ENDBRANCH  25  27
ENDBRANCH  20  21
ENDBRANCH   8  20
TORSDOF 5
ENDMDL
MODEL 2
REMARK VINA RESULT:      -8.2      3.418      4.739
REMARK  Name = 
REMARK  5 active torsions:
REMARK  status: ('A' for Active; 'I' for Inactive)
REMARK    1  A    between atoms: N_3  and  C_4
REMARK    2  A    between atoms: N_15  and  C_16
REMARK    3  A    between atoms: C_16  and  C_17
REMARK    4  A    between atoms: C_21  and  O_22
REMARK    5  A    between atoms: O_22  and  C_23
REMARK                            x       y       z     vdW  Elec       q    Type
REMARK                         _______ _______ _______ _____ _____    ______ ____
ROOT
ATOM      1  O   UNL     1       1.011  13.331  21.682  0.00  0.00    +0.000 OA
ATOM      2  C   UNL     1       1.385  12.926  20.584  0.00  0.00    +0.000 C 
ATOM      3  N   UNL     1       2.250  13.621  19.770  0.00  0.00    +0.000 N 
ATOM      4  N   UNL     1       0.913  11.749  20.042  0.00  0.00    +0.000 N 
ATOM      5  C   UNL     1      -0.087  10.983  20.761  0.00  0.00    +0.000 C 
ATOM      6  C   UNL     1       0.207   9.549  20.401  0.00  0.00    +0.000 C 
ATOM      7  C   UNL     1       1.348   8.943  21.202  0.00  0.00    +0.000 C 
ATOM      8  N   UNL     1       1.869   7.871  20.335  0.00  0.00    +0.000 NA
ATOM      9  C   UNL     1       1.680   8.356  18.942  0.00  0.00    +0.000 C 
ATOM     10  C   UNL     1       0.797   9.605  18.999  0.00  0.00    +0.000 C 
ATOM     11  C   UNL     1       1.545  10.952  18.989  0.00  0.00    +0.000 C 
ATOM     12  H   UNL     1       1.869  13.723  18.839  0.00  0.00    +0.000 HD
ENDROOT
BRANCH   3  13
ATOM     13  C   UNL     1       2.787  14.838  20.242  0.00  0.00    +0.000 A 
ATOM     14  N   UNL     1       3.900  14.695  20.996  0.00  0.00    +0.000 NA
ATOM     15  C   UNL     1       4.497  15.835  21.377  0.00  0.00    +0.000 A 
ATOM     16  N   UNL     1       4.060  17.079  21.130  0.00  0.00    +0.000 NA
ATOM     17  C   UNL     1       2.909  17.164  20.430  0.00  0.00    +0.000 A 
ATOM     18  C   UNL     1       2.215  16.071  19.956  0.00  0.00    +0.000 A 
ATOM     19 CL   UNL     1       0.693  16.293  19.187  0.00  0.00    +0.000 Cl
ENDBRANCH   3  13
BRANCH   8  20
ATOM     20  C   UNL     1       1.172   6.587  20.545  0.00  0.00    +0.000 C 
BRANCH  20  21
ATOM     21  C   UNL     1       2.052   5.365  20.367  0.00  0.00    +0.000 A 
ATOM     22  C   UNL     1       1.573   4.074  20.627  0.00  0.00    +0.000 A 
ATOM     23  C   UNL     1       2.395   2.961  20.435  0.00  0.00    +0.000 A 
ATOM     24  C   UNL     1       3.710   3.127  19.995  0.00  0.00    +0.000 A 
ATOM     25  C   UNL     1       4.208   4.407  19.751  0.00  0.00    +0.000 A 
ATOM     26  C   UNL     1       3.371   5.516  19.905  0.00  0.00    +0.000 A 
BRANCH  25  27
ATOM     27  O   UNL     1       5.508   4.485  19.298  0.00  0.00    +0.000 OA
BRANCH  27  28
ATOM     28  C   UNL     1       5.746   4.447  17.941  0.00  0.00    +0.000 A 
ATOM     29  C   UNL     1       4.743   4.225  16.991  0.00  0.00    +0.000 A 
ATOM     30  C   UNL     1       5.065   4.178  15.635  0.00  0.00    +0.000 A 
ATOM     31  C   UNL     1       6.379   4.403  15.228  0.00  0.00    +0.000 A 
ATOM     32 CL   UNL     1       6.774   4.345  13.555  0.00  0.00    +0.000 Cl
ATOM     33  C   UNL     1       7.371   4.679  16.167  0.00  0.00    +0.000 A 
ATOM     34  C   UNL     1       7.054   4.702  17.528  0.00  0.00    +0.000 A 
ENDBRANCH  27  28
ENDBRANCH  25  27
ENDBRANCH  20  21
ENDBRANCH   8  20
TORSDOF 5
ENDMDL
MODEL 3
REMARK VINA RESULT:      -8.0      3.844      4.977
REMARK  Name = 
REMARK  5 active torsions:
REMARK  status: ('A' for Active; 'I' for Inactive)
REMARK    1  A    between atoms: N_3  and  C_4
REMARK    2  A    between atoms: N_15  and  C_16
REMARK    3  A    between atoms: C_16  and  C_17
REMARK    4  A    between atoms: C_21  and  O_22
REMARK    5  A    between atoms: O_22  and  C_23
REMARK                            x       y       z     vdW  Elec       q    Type
REMARK                         _______ _______ _______ _____ _____    ______ ____
ROOT
ATOM      1  O   UNL     1       0.807  12.804  21.441  0.00  0.00    +0.000 OA
ATOM      2  C   UNL     1       1.203  12.481  20.323  0.00  0.00    +0.000 C 
ATOM      3  N   UNL     1       1.950  13.304  19.512  0.00  0.00    +0.000 N 
ATOM      4  N   UNL     1       0.873  11.268  19.756  0.00  0.00    +0.000 N 
ATOM      5  C   UNL     1      -0.002  10.360  20.473  0.00  0.00    +0.000 C 
ATOM      6  C   UNL     1       0.466   8.986  20.063  0.00  0.00    +0.000 C 
ATOM      7  C   UNL     1       1.696   8.511  20.821  0.00  0.00    +0.000 C 
ATOM      8  N   UNL     1       2.328   7.540  19.910  0.00  0.00    +0.000 NA
ATOM      9  C   UNL     1       2.043   8.035  18.537  0.00  0.00    +0.000 C 
ATOM     10  C   UNL     1       1.007   9.157  18.651  0.00  0.00    +0.000 C 
ATOM     11  C   UNL     1       1.575  10.589  18.666  0.00  0.00    +0.000 C 
ATOM     12  H   UNL     1       1.535  13.381  18.593  0.00  0.00    +0.000 HD
ENDROOT
BRANCH   3  13
ATOM     13  C   UNL     1       2.337  14.567  20.009  0.00  0.00    +0.000 A 
ATOM     14  N   UNL     1       3.482  14.550  20.728  0.00  0.00    +0.000 NA
ATOM     15  C   UNL     1       3.936  15.749  21.130  0.00  0.00    +0.000 A 
ATOM     16  N   UNL     1       3.332  16.930  20.936  0.00  0.00    +0.000 NA
ATOM     17  C   UNL     1       2.158  16.882  20.270  0.00  0.00    +0.000 A 
ATOM     18  C   UNL     1       1.599  15.721  19.779  0.00  0.00    +0.000 A 
ATOM     19 CL   UNL     1       0.038  15.763  19.059  0.00  0.00    +0.000 Cl
ENDBRANCH   3  13
BRANCH   8  20
ATOM     20  C   UNL     1       1.808   6.171  20.096  0.00  0.00    +0.000 C 
BRANCH  20  21
ATOM     21  C   UNL     1       2.385   5.151  19.134  0.00  0.00    +0.000 A 
ATOM     22  C   UNL     1       1.589   4.144  18.571  0.00  0.00    +0.000 A 
ATOM     23  C   UNL     1       2.138   3.228  17.669  0.00  0.00    +0.000 A 
ATOM     24  C   UNL     1       3.491   3.300  17.332  0.00  0.00    +0.000 A 
ATOM     25  C   UNL     1       4.301   4.283  17.899  0.00  0.00    +0.000 A 
ATOM     26  C   UNL     1       3.741   5.223  18.770  0.00  0.00    +0.000 A 
BRANCH  25  27
ATOM     27  O   UNL     1       5.620   4.300  17.498  0.00  0.00    +0.000 OA
BRANCH  27  28
ATOM     28  C   UNL     1       6.364   5.443  17.697  0.00  0.00    +0.000 A 
ATOM     29  C   UNL     1       6.180   6.617  16.960  0.00  0.00    +0.000 A 
ATOM     30  C   UNL     1       6.988   7.728  17.203  0.00  0.00    +0.000 A 
ATOM     31  C   UNL     1       7.944   7.679  18.216  0.00  0.00    +0.000 A 
ATOM     32 CL   UNL     1       8.940   9.049  18.515  0.00  0.00    +0.000 Cl
ATOM     33  C   UNL     1       8.093   6.529  18.990  0.00  0.00    +0.000 A 
ATOM     34  C   UNL     1       7.301   5.408  18.730  0.00  0.00    +0.000 A 
ENDBRANCH  27  28
ENDBRANCH  25  27
ENDBRANCH  20  21
ENDBRANCH   8  20
TORSDOF 5
ENDMDL
MODEL 4
REMARK VINA RESULT:      -7.8      3.296      4.566
REMARK  Name = 
REMARK  5 active torsions:
REMARK  status: ('A' for Active; 'I' for Inactive)
REMARK    1  A    between atoms: N_3  and  C_4
REMARK    2  A    between atoms: N_15  and  C_16
REMARK    3  A    between atoms: C_16  and  C_17
REMARK    4  A    between atoms: C_21  and  O_22
REMARK    5  A    between atoms: O_22  and  C_23
REMARK                            x       y       z     vdW  Elec       q    Type
REMARK                         _______ _______ _______ _____ _____    ______ ____
ROOT
ATOM      1  O   UNL     1      -1.280  12.655  18.124  0.00  0.00    +0.000 OA
ATOM      2  C   UNL     1      -1.405  11.616  18.768  0.00  0.00    +0.000 C 
ATOM      3  N   UNL     1      -2.621  11.062  19.094  0.00  0.00    +0.000 N 
ATOM      4  N   UNL     1      -0.316  10.940  19.278  0.00  0.00    +0.000 N 
ATOM      5  C   UNL     1       1.015  11.487  19.092  0.00  0.00    +0.000 C 
ATOM      6  C   UNL     1       1.910  10.276  18.999  0.00  0.00    +0.000 C 
ATOM      7  C   UNL     1       1.910   9.625  17.625  0.00  0.00    +0.000 C 
ATOM      8  N   UNL     1       2.280   8.224  17.890  0.00  0.00    +0.000 NA
ATOM      9  C   UNL     1       1.707   7.904  19.225  0.00  0.00    +0.000 C 
ATOM     10  C   UNL     1       1.232   9.216  19.855  0.00  0.00    +0.000 C 
ATOM     11  C   UNL     1      -0.266   9.533  19.682  0.00  0.00    +0.000 C 
ATOM     12  H   UNL     1      -2.682  10.877  20.086  0.00  0.00    +0.000 HD
ENDROOT
BRANCH   3  13
ATOM     13  C   UNL     1      -3.794  11.685  18.614  0.00  0.00    +0.000 A 
ATOM     14  N   UNL     1      -4.047  11.451  17.306  0.00  0.00    +0.000 NA
ATOM     15  C   UNL     1      -5.207  11.942  16.841  0.00  0.00    +0.000 A 
ATOM     16  N   UNL     1      -6.088  12.681  17.530  0.00  0.00    +0.000 NA
ATOM     17  C   UNL     1      -5.754  12.940  18.813  0.00  0.00    +0.000 A 
ATOM     18  C   UNL     1      -4.608  12.471  19.419  0.00  0.00    +0.000 A 
ATOM     19 CL   UNL     1      -4.222  12.970  21.019  0.00  0.00    +0.000 Cl
ENDBRANCH   3  13
BRANCH   8  20
ATOM     20  C   UNL     1       3.741   8.014  17.879  0.00  0.00    +0.000 C 
BRANCH  20  21
ATOM     21  C   UNL     1       4.186   6.768  17.139  0.00  0.00    +0.000 A 
ATOM     22  C   UNL     1       5.005   6.844  16.005  0.00  0.00    +0.000 A 
ATOM     23  C   UNL     1       5.421   5.681  15.352  0.00  0.00    +0.000 A 
ATOM     24  C   UNL     1       5.009   4.430  15.816  0.00  0.00    +0.000 A 
ATOM     25  C   UNL     1       4.177   4.339  16.931  0.00  0.00    +0.000 A 
ATOM     26  C   UNL     1       3.795   5.502  17.607  0.00  0.00    +0.000 A 
BRANCH  25  27
ATOM     27  O   UNL     1       3.833   3.067  17.339  0.00  0.00    +0.000 OA
BRANCH  27  28
ATOM     28  C   UNL     1       3.211   2.902  18.558  0.00  0.00    +0.000 A 
ATOM     29  C   UNL     1       3.908   2.733  19.759  0.00  0.00    +0.000 A 
ATOM     30  C   UNL     1       3.209   2.549  20.952  0.00  0.00    +0.000 A 
ATOM     31  C   UNL     1       1.815   2.584  20.949  0.00  0.00    +0.000 A 
ATOM     32 CL   UNL     1       0.954   2.356  22.420  0.00  0.00    +0.000 Cl
ATOM     33  C   UNL     1       1.118   2.806  19.763  0.00  0.00    +0.000 A 
ATOM     34  C   UNL     1       1.818   2.967  18.564  0.00  0.00    +0.000 A 
ENDBRANCH  27  28
ENDBRANCH  25  27
ENDBRANCH  20  21
ENDBRANCH   8  20
TORSDOF 5
ENDMDL
MODEL 5
REMARK VINA RESULT:      -7.8      3.923      5.307
REMARK  Name = 
REMARK  5 active torsions:
REMARK  status: ('A' for Active; 'I' for Inactive)
REMARK    1  A    between atoms: N_3  and  C_4
REMARK    2  A    between atoms: N_15  and  C_16
REMARK    3  A    between atoms: C_16  and  C_17
REMARK    4  A    between atoms: C_21  and  O_22
REMARK    5  A    between atoms: O_22  and  C_23
REMARK                            x       y       z     vdW  Elec       q    Type
REMARK                         _______ _______ _______ _____ _____    ______ ____
ROOT
ATOM      1  O   UNL     1       1.344  13.257  21.486  0.00  0.00    +0.000 OA
ATOM      2  C   UNL     1       1.727  12.817  20.403  0.00  0.00    +0.000 C 
ATOM      3  N   UNL     1       2.645  13.456  19.602  0.00  0.00    +0.000 N 
ATOM      4  N   UNL     1       1.213  11.655  19.868  0.00  0.00    +0.000 N 
ATOM      5  C   UNL     1       0.159  10.949  20.571  0.00  0.00    +0.000 C 
ATOM      6  C   UNL     1       0.394   9.496  20.242  0.00  0.00    +0.000 C 
ATOM      7  C   UNL     1       1.484   8.850  21.082  0.00  0.00    +0.000 C 
ATOM      8  N   UNL     1       1.975   7.741  20.246  0.00  0.00    +0.000 NA
ATOM      9  C   UNL     1       1.846   8.212  18.841  0.00  0.00    +0.000 C 
ATOM     10  C   UNL     1       1.021   9.502  18.855  0.00  0.00    +0.000 C 
ATOM     11  C   UNL     1       1.833  10.811  18.844  0.00  0.00    +0.000 C 
ATOM     12  H   UNL     1       2.292  13.561  18.660  0.00  0.00    +0.000 HD
ENDROOT
BRANCH   3  13
ATOM     13  C   UNL     1       3.227  14.654  20.069  0.00  0.00    +0.000 A 
ATOM     14  N   UNL     1       3.681  14.588  21.341  0.00  0.00    +0.000 NA
ATOM     15  C   UNL     1       4.333  15.675  21.785  0.00  0.00    +0.000 A 
ATOM     16  N   UNL     1       4.515  16.820  21.111  0.00  0.00    +0.000 NA
ATOM     17  C   UNL     1       3.983  16.856  19.870  0.00  0.00    +0.000 A 
ATOM     18  C   UNL     1       3.317  15.799  19.287  0.00  0.00    +0.000 A 
ATOM     19 CL   UNL     1       2.569  16.002  17.752  0.00  0.00    +0.000 Cl
ENDBRANCH   3  13
BRANCH   8  20
ATOM     20  C   UNL     1       1.212   6.495  20.457  0.00  0.00    +0.000 C 
BRANCH  20  21
ATOM     21  C   UNL     1       2.049   5.233  20.380  0.00  0.00    +0.000 A 
ATOM     22  C   UNL     1       1.737   4.101  21.144  0.00  0.00    +0.000 A 
ATOM     23  C   UNL     1       2.510   2.941  21.040  0.00  0.00    +0.000 A 
ATOM     24  C   UNL     1       3.612   2.906  20.183  0.00  0.00    +0.000 A 
ATOM     25  C   UNL     1       3.947   4.031  19.431  0.00  0.00    +0.000 A 
ATOM     26  C   UNL     1       3.148   5.177  19.506  0.00  0.00    +0.000 A 
BRANCH  25  27
ATOM     27  O   UNL     1       5.035   3.909  18.592  0.00  0.00    +0.000 OA
BRANCH  27  28
ATOM     28  C   UNL     1       5.850   5.002  18.391  0.00  0.00    +0.000 A 
ATOM     29  C   UNL     1       7.036   5.216  19.100  0.00  0.00    +0.000 A 
ATOM     30  C   UNL     1       7.797   6.360  18.857  0.00  0.00    +0.000 A 
ATOM     31  C   UNL     1       7.397   7.260  17.871  0.00  0.00    +0.000 A 
ATOM     32 CL   UNL     1       8.337   8.669  17.572  0.00  0.00    +0.000 Cl
ATOM     33  C   UNL     1       6.245   7.022  17.124  0.00  0.00    +0.000 A 
ATOM     34  C   UNL     1       5.469   5.889  17.384  0.00  0.00    +0.000 A 
ENDBRANCH  27  28
ENDBRANCH  25  27
ENDBRANCH  20  21
ENDBRANCH   8  20
TORSDOF 5
ENDMDL
MODEL 6
REMARK VINA RESULT:      -7.7      4.091      5.310
REMARK  Name = 
REMARK  5 active torsions:
REMARK  status: ('A' for Active; 'I' for Inactive)
REMARK    1  A    between atoms: N_3  and  C_4
REMARK    2  A    between atoms: N_15  and  C_16
REMARK    3  A    between atoms: C_16  and  C_17
REMARK    4  A    between atoms: C_21  and  O_22
REMARK    5  A    between atoms: O_22  and  C_23
REMARK                            x       y       z     vdW  Elec       q    Type
REMARK                         _______ _______ _______ _____ _____    ______ ____
ROOT
ATOM      1  O   UNL     1       1.054  12.685  21.413  0.00  0.00    +0.000 OA
ATOM      2  C   UNL     1       1.451  12.484  20.267  0.00  0.00    +0.000 C 
ATOM      3  N   UNL     1       2.247  13.364  19.571  0.00  0.00    +0.000 N 
ATOM      4  N   UNL     1       1.076  11.366  19.552  0.00  0.00    +0.000 N 
ATOM      5  C   UNL     1       0.150  10.419  20.144  0.00  0.00    +0.000 C 
ATOM      6  C   UNL     1       0.561   9.085  19.573  0.00  0.00    +0.000 C 
ATOM      7  C   UNL     1       1.757   8.464  20.278  0.00  0.00    +0.000 C 
ATOM      8  N   UNL     1       2.358   7.584  19.261  0.00  0.00    +0.000 NA
ATOM      9  C   UNL     1       2.116   8.255  17.956  0.00  0.00    +0.000 C 
ATOM     10  C   UNL     1       1.131   9.402  18.198  0.00  0.00    +0.000 C 
ATOM     11  C   UNL     1       1.763  10.793  18.394  0.00  0.00    +0.000 C 
ATOM     12  H   UNL     1       1.850  13.572  18.665  0.00  0.00    +0.000 HD
ENDROOT
BRANCH   3  13
ATOM     13  C   UNL     1       2.684  14.537  20.223  0.00  0.00    +0.000 A 
ATOM     14  N   UNL     1       3.146  14.332  21.477  0.00  0.00    +0.000 NA
ATOM     15  C   UNL     1       3.666  15.408  22.090  0.00  0.00    +0.000 A 
ATOM     16  N   UNL     1       3.708  16.656  21.600  0.00  0.00    +0.000 NA
ATOM     17  C   UNL     1       3.172  16.817  20.370  0.00  0.00    +0.000 A 
ATOM     18  C   UNL     1       2.635  15.790  19.624  0.00  0.00    +0.000 A 
ATOM     19 CL   UNL     1       1.864  16.134  18.126  0.00  0.00    +0.000 Cl
ENDBRANCH   3  13
BRANCH   8  20
ATOM     20  C   UNL     1       1.774   6.228  19.272  0.00  0.00    +0.000 C 
BRANCH  20  21
ATOM     21  C   UNL     1       2.581   5.196  18.508  0.00  0.00    +0.000 A 
ATOM     22  C   UNL     1       1.959   4.191  17.756  0.00  0.00    +0.000 A 
ATOM     23  C   UNL     1       2.723   3.264  17.042  0.00  0.00    +0.000 A 
ATOM     24  C   UNL     1       4.118   3.324  17.084  0.00  0.00    +0.000 A 
ATOM     25  C   UNL     1       4.752   4.306  17.843  0.00  0.00    +0.000 A 
ATOM     26  C   UNL     1       3.985   5.257  18.525  0.00  0.00    +0.000 A 
BRANCH  25  27
ATOM     27  O   UNL     1       6.130   4.311  17.815  0.00  0.00    +0.000 OA
BRANCH  27  28
ATOM     28  C   UNL     1       6.797   5.506  17.979  0.00  0.00    +0.000 A 
ATOM     29  C   UNL     1       7.623   5.781  19.075  0.00  0.00    +0.000 A 
ATOM     30  C   UNL     1       8.247   7.024  19.184  0.00  0.00    +0.000 A 
ATOM     31  C   UNL     1       8.085   7.969  18.173  0.00  0.00    +0.000 A 
ATOM     32 CL   UNL     1       8.856   9.502  18.309  0.00  0.00    +0.000 Cl
ATOM     33  C   UNL     1       7.308   7.680  17.053  0.00  0.00    +0.000 A 
ATOM     34  C   UNL     1       6.663   6.444  16.955  0.00  0.00    +0.000 A 
ENDBRANCH  27  28
ENDBRANCH  25  27
ENDBRANCH  20  21
ENDBRANCH   8  20
TORSDOF 5
ENDMDL
MODEL 7
REMARK VINA RESULT:      -7.6      3.237      4.288
REMARK  Name = 
REMARK  5 active torsions:
REMARK  status: ('A' for Active; 'I' for Inactive)
REMARK    1  A    between atoms: N_3  and  C_4
REMARK    2  A    between atoms: N_15  and  C_16
REMARK    3  A    between atoms: C_16  and  C_17
REMARK    4  A    between atoms: C_21  and  O_22
REMARK    5  A    between atoms: O_22  and  C_23
REMARK                            x       y       z     vdW  Elec       q    Type
REMARK                         _______ _______ _______ _____ _____    ______ ____
ROOT
ATOM      1  O   UNL     1      -0.392  13.925  20.819  0.00  0.00    +0.000 OA
ATOM      2  C   UNL     1       0.188  13.413  19.863  0.00  0.00    +0.000 C 
ATOM      3  N   UNL     1       1.027  14.106  19.021  0.00  0.00    +0.000 N 
ATOM      4  N   UNL     1      -0.006  12.093  19.516  0.00  0.00    +0.000 N 
ATOM      5  C   UNL     1      -0.953  11.290  20.266  0.00  0.00    +0.000 C 
ATOM      6  C   UNL     1      -0.380   9.895  20.225  0.00  0.00    +0.000 C 
ATOM      7  C   UNL     1       0.728   9.663  21.239  0.00  0.00    +0.000 C 
ATOM      8  N   UNL     1       1.530   8.574  20.654  0.00  0.00    +0.000 NA
ATOM      9  C   UNL     1       1.452   8.765  19.182  0.00  0.00    +0.000 C 
ATOM     10  C   UNL     1       0.374   9.817  18.905  0.00  0.00    +0.000 C 
ATOM     11  C   UNL     1       0.884  11.258  18.708  0.00  0.00    +0.000 C 
ATOM     12  H   UNL     1       0.762  13.971  18.055  0.00  0.00    +0.000 HD
ENDROOT
BRANCH   3  13
ATOM     13  C   UNL     1       1.288  15.465  19.298  0.00  0.00    +0.000 A 
ATOM     14  N   UNL     1       0.428  16.324  18.706  0.00  0.00    +0.000 NA
ATOM     15  C   UNL     1       0.581  17.618  19.029  0.00  0.00    +0.000 A 
ATOM     16  N   UNL     1       1.532  18.129  19.825  0.00  0.00    +0.000 NA
ATOM     17  C   UNL     1       2.405  17.235  20.337  0.00  0.00    +0.000 A 
ATOM     18  C   UNL     1       2.339  15.877  20.107  0.00  0.00    +0.000 A 
ATOM     19 CL   UNL     1       3.580  14.848  20.707  0.00  0.00    +0.000 Cl
ENDBRANCH   3  13
BRANCH   8  20
ATOM     20  C   UNL     1       1.034   7.238  21.039  0.00  0.00    +0.000 C 
BRANCH  20  21
ATOM     21  C   UNL     1       1.806   6.087  20.426  0.00  0.00    +0.000 A 
ATOM     22  C   UNL     1       1.186   4.866  20.126  0.00  0.00    +0.000 A 
ATOM     23  C   UNL     1       1.912   3.826  19.540  0.00  0.00    +0.000 A 
ATOM     24  C   UNL     1       3.271   3.990  19.261  0.00  0.00    +0.000 A 
ATOM     25  C   UNL     1       3.908   5.191  19.572  0.00  0.00    +0.000 A 
ATOM     26  C   UNL     1       3.169   6.245  20.121  0.00  0.00    +0.000 A 
BRANCH  25  27
ATOM     27  O   UNL     1       5.244   5.281  19.245  0.00  0.00    +0.000 OA
BRANCH  27  28
ATOM     28  C   UNL     1       5.612   5.230  17.917  0.00  0.00    +0.000 A 
ATOM     29  C   UNL     1       4.928   5.911  16.904  0.00  0.00    +0.000 A 
ATOM     30  C   UNL     1       5.347   5.792  15.579  0.00  0.00    +0.000 A 
ATOM     31  C   UNL     1       6.476   5.034  15.276  0.00  0.00    +0.000 A 
ATOM     32 CL   UNL     1       6.991   4.888  13.640  0.00  0.00    +0.000 Cl
ATOM     33  C   UNL     1       7.192   4.399  16.288  0.00  0.00    +0.000 A 
ATOM     34  C   UNL     1       6.760   4.498  17.614  0.00  0.00    +0.000 A 
ENDBRANCH  27  28
ENDBRANCH  25  27
ENDBRANCH  20  21
ENDBRANCH   8  20
TORSDOF 5
ENDMDL
MODEL 8
REMARK VINA RESULT:      -7.5      3.625     10.265
REMARK  Name = 
REMARK  5 active torsions:
REMARK  status: ('A' for Active; 'I' for Inactive)
REMARK    1  A    between atoms: N_3  and  C_4
REMARK    2  A    between atoms: N_15  and  C_16
REMARK    3  A    between atoms: C_16  and  C_17
REMARK    4  A    between atoms: C_21  and  O_22
REMARK    5  A    between atoms: O_22  and  C_23
REMARK                            x       y       z     vdW  Elec       q    Type
REMARK                         _______ _______ _______ _____ _____    ______ ____
ROOT
ATOM      1  O   UNL     1       2.900   8.339  16.963  0.00  0.00    +0.000 OA
ATOM      2  C   UNL     1       2.433   7.977  18.041  0.00  0.00    +0.000 C 
ATOM      3  N   UNL     1       2.803   6.816  18.681  0.00  0.00    +0.000 N 
ATOM      4  N   UNL     1       1.439   8.688  18.679  0.00  0.00    +0.000 N 
ATOM      5  C   UNL     1       0.890   9.872  18.046  0.00  0.00    +0.000 C 
ATOM      6  C   UNL     1       0.519  10.775  19.196  0.00  0.00    +0.000 C 
ATOM      7  C   UNL     1       1.698  11.543  19.772  0.00  0.00    +0.000 C 
ATOM      8  N   UNL     1       1.299  11.827  21.162  0.00  0.00    +0.000 NA
ATOM      9  C   UNL     1       0.468  10.668  21.585  0.00  0.00    +0.000 C 
ATOM     10  C   UNL     1       0.162   9.834  20.338  0.00  0.00    +0.000 C 
ATOM     11  C   UNL     1       1.090   8.627  20.099  0.00  0.00    +0.000 C 
ATOM     12  H   UNL     1       1.993   6.261  18.921  0.00  0.00    +0.000 HD
ENDROOT
BRANCH   3  13
ATOM     13  C   UNL     1       3.817   6.023  18.102  0.00  0.00    +0.000 A 
ATOM     14  N   UNL     1       5.021   6.634  18.027  0.00  0.00    +0.000 NA
ATOM     15  C   UNL     1       6.033   5.875  17.577  0.00  0.00    +0.000 A 
ATOM     16  N   UNL     1       5.943   4.608  17.147  0.00  0.00    +0.000 NA
ATOM     17  C   UNL     1       4.705   4.068  17.182  0.00  0.00    +0.000 A 
ATOM     18  C   UNL     1       3.590   4.730  17.648  0.00  0.00    +0.000 A 
ATOM     19 CL   UNL     1       2.043   3.989  17.525  0.00  0.00    +0.000 Cl
ENDBRANCH   3  13
BRANCH   8  20
ATOM     20  C   UNL     1       0.545  13.090  21.285  0.00  0.00    +0.000 C 
BRANCH  20  21
ATOM     21  C   UNL     1      -0.906  12.911  21.687  0.00  0.00    +0.000 A 
ATOM     22  C   UNL     1      -1.283  12.778  23.030  0.00  0.00    +0.000 A 
ATOM     23  C   UNL     1      -2.629  12.637  23.379  0.00  0.00    +0.000 A 
ATOM     24  C   UNL     1      -3.611  12.611  22.386  0.00  0.00    +0.000 A 
ATOM     25  C   UNL     1      -3.251  12.721  21.044  0.00  0.00    +0.000 A 
ATOM     26  C   UNL     1      -1.907  12.903  20.701  0.00  0.00    +0.000 A 
BRANCH  25  27
ATOM     27  O   UNL     1      -4.281  12.709  20.128  0.00  0.00    +0.000 OA
BRANCH  27  28
ATOM     28  C   UNL     1      -4.085  12.095  18.910  0.00  0.00    +0.000 A 
ATOM     29  C   UNL     1      -2.890  11.461  18.553  0.00  0.00    +0.000 A 
ATOM     30  C   UNL     1      -2.757  10.881  17.291  0.00  0.00    +0.000 A 
ATOM     31  C   UNL     1      -3.836  10.892  16.408  0.00  0.00    +0.000 A 
ATOM     32 CL   UNL     1      -3.671  10.176  14.852  0.00  0.00    +0.000 Cl
ATOM     33  C   UNL     1      -5.046  11.475  16.780  0.00  0.00    +0.000 A 
ATOM     34  C   UNL     1      -5.172  12.077  18.035  0.00  0.00    +0.000 A 
ENDBRANCH  27  28
ENDBRANCH  25  27
ENDBRANCH  20  21
ENDBRANCH   8  20
TORSDOF 5
ENDMDL
MODEL 9
REMARK VINA RESULT:      -7.5      5.193      9.931
REMARK  Name = 
REMARK  5 active torsions:
REMARK  status: ('A' for Active; 'I' for Inactive)
REMARK    1  A    between atoms: N_3  and  C_4
REMARK    2  A    between atoms: N_15  and  C_16
REMARK    3  A    between atoms: C_16  and  C_17
REMARK    4  A    between atoms: C_21  and  O_22
REMARK    5  A    between atoms: O_22  and  C_23
REMARK                            x       y       z     vdW  Elec       q    Type
REMARK                         _______ _______ _______ _____ _____    ______ ____
ROOT
ATOM      1  O   UNL     1       2.527   7.115  17.641  0.00  0.00    +0.000 OA
ATOM      2  C   UNL     1       2.204   7.370  18.799  0.00  0.00    +0.000 C 
ATOM      3  N   UNL     1       2.603   6.625  19.885  0.00  0.00    +0.000 N 
ATOM      4  N   UNL     1       1.350   8.409  19.105  0.00  0.00    +0.000 N 
ATOM      5  C   UNL     1       0.776   9.200  18.032  0.00  0.00    +0.000 C 
ATOM      6  C   UNL     1       0.622  10.579  18.623  0.00  0.00    +0.000 C 
ATOM      7  C   UNL     1       1.910  11.387  18.625  0.00  0.00    +0.000 C 
ATOM      8  N   UNL     1       1.732  12.347  19.730  0.00  0.00    +0.000 NA
ATOM      9  C   UNL     1       0.913  11.637  20.748  0.00  0.00    +0.000 C 
ATOM     10  C   UNL     1       0.387  10.349  20.109  0.00  0.00    +0.000 C 
ATOM     11  C   UNL     1       1.208   9.078  20.400  0.00  0.00    +0.000 C 
ATOM     12  H   UNL     1       1.810   6.350  20.447  0.00  0.00    +0.000 HD
ENDROOT
BRANCH   3  13
ATOM     13  C   UNL     1       3.481   5.540  19.669  0.00  0.00    +0.000 A 
ATOM     14  N   UNL     1       4.731   5.906  19.305  0.00  0.00    +0.000 NA
ATOM     15  C   UNL     1       5.621   4.907  19.192  0.00  0.00    +0.000 A 
ATOM     16  N   UNL     1       5.367   3.599  19.345  0.00  0.00    +0.000 NA
ATOM     17  C   UNL     1       4.088   3.284  19.643  0.00  0.00    +0.000 A 
ATOM     18  C   UNL     1       3.087   4.217  19.815  0.00  0.00    +0.000 A 
ATOM     19 CL   UNL     1       1.467   3.695  20.065  0.00  0.00    +0.000 Cl
ENDBRANCH   3  13
BRANCH   8  20
ATOM     20  C   UNL     1       1.068  13.591  19.294  0.00  0.00    +0.000 C 
BRANCH  20  21
ATOM     21  C   UNL     1       1.986  14.797  19.234  0.00  0.00    +0.000 A 
ATOM     22  C   UNL     1       1.559  16.015  18.688  0.00  0.00    +0.000 A 
ATOM     23  C   UNL     1       2.415  17.119  18.663  0.00  0.00    +0.000 A 
ATOM     24  C   UNL     1       3.712  17.014  19.169  0.00  0.00    +0.000 A 
ATOM     25  C   UNL     1       4.159  15.803  19.697  0.00  0.00    +0.000 A 
ATOM     26  C   UNL     1       3.287  14.711  19.758  0.00  0.00    +0.000 A 
BRANCH  25  27
ATOM     27  O   UNL     1       5.443  15.787  20.197  0.00  0.00    +0.000 OA
BRANCH  27  28
ATOM     28  C   UNL     1       6.412  15.070  19.528  0.00  0.00    +0.000 A 
ATOM     29  C   UNL     1       6.330  14.751  18.169  0.00  0.00    +0.000 A 
ATOM     30  C   UNL     1       7.340  14.002  17.565  0.00  0.00    +0.000 A 
ATOM     31  C   UNL     1       8.453  13.616  18.310  0.00  0.00    +0.000 A 
ATOM     32 CL   UNL     1       9.698  12.692  17.565  0.00  0.00    +0.000 Cl
ATOM     33  C   UNL     1       8.565  13.978  19.651  0.00  0.00    +0.000 A 
ATOM     34  C   UNL     1       7.542  14.708  20.262  0.00  0.00    +0.000 A 
ENDBRANCH  27  28
ENDBRANCH  25  27
ENDBRANCH  20  21
ENDBRANCH   8  20
TORSDOF 5
ENDMDL
