MODEL 1
REMARK VINA RESULT:      -8.0      0.000      0.000
REMARK  Name = 
REMARK  4 active torsions:
REMARK  status: ('A' for Active; 'I' for Inactive)
REMARK    1  A    between atoms: C_1  and  C_2
REMARK    2  A    between atoms: C_2  and  C_3
REMARK    3  A    between atoms: C_10  and  C_11
REMARK    4  A    between atoms: C_12  and  C_13
REMARK                            x       y       z     vdW  Elec       q    Type
REMARK                         _______ _______ _______ _____ _____    ______ ____
ROOT
ATOM      1  C   UNL     1      -2.791  14.554  22.312  0.00  0.00    +0.000 C 
ATOM      2  C   UNL     1      -3.318  13.130  22.063  0.00  0.00    +0.000 C 
ATOM      3  C   UNL     1      -4.785  13.081  22.536  0.00  0.00    +0.000 C 
ATOM      4  C   UNL     1      -3.255  12.761  20.567  0.00  0.00    +0.000 C 
ATOM      5  C   UNL     1      -1.818  12.566  20.091  0.00  0.00    +0.000 C 
ATOM      6  N   UNL     1      -1.139  11.588  20.921  0.00  0.00    +0.000 N 
ATOM      7  C   UNL     1      -0.281  10.643  20.326  0.00  0.00    +0.000 A 
ATOM      8  N   UNL     1       0.019   9.522  21.010  0.00  0.00    +0.000 NA
ATOM      9  C   UNL     1       0.845   8.627  20.424  0.00  0.00    +0.000 A 
ATOM     10  C   UNL     1       1.404   8.807  19.179  0.00  0.00    +0.000 A 
ATOM     11  C   UNL     1       1.014   9.967  18.551  0.00  0.00    +0.000 A 
ATOM     12  N   UNL     1       0.145  10.865  19.071  0.00  0.00    +0.000 NA
ATOM     13  C   UNL     1      -1.154  11.724  22.297  0.00  0.00    +0.000 C 
ATOM     14  O   UNL     1      -0.216  11.459  23.051  0.00  0.00    +0.000 OA
ATOM     15  C   UNL     1      -2.504  12.107  22.874  0.00  0.00    +0.000 C 
ENDROOT
BRANCH  10  16
ATOM     16  C   UNL     1       2.304   7.867  18.586  0.00  0.00    +0.000 C 
ATOM     17  C   UNL     1       3.041   7.055  18.074  0.00  0.00    +0.000 C 
BRANCH  17  18
ATOM     18  C   UNL     1       3.875   6.058  17.465  0.00  0.00    +0.000 A 
ATOM     19  C   UNL     1       4.856   6.426  16.542  0.00  0.00    +0.000 A 
ATOM     20  C   UNL     1       5.601   5.440  15.892  0.00  0.00    +0.000 A 
ATOM     21  F   UNL     1       6.521   5.799  14.986  0.00  0.00    +0.000 F 
ATOM     22  C   UNL     1       5.397   4.090  16.157  0.00  0.00    +0.000 A 
ATOM     23  C   UNL     1       4.441   3.715  17.097  0.00  0.00    +0.000 A 
ATOM     24  C   UNL     1       3.687   4.699  17.746  0.00  0.00    +0.000 A 
ATOM     25  F   UNL     1       2.767   4.312  18.639  0.00  0.00    +0.000 F 
ENDBRANCH  17  18
ENDBRANCH  10  16
TORSDOF 2
ENDMDL
MODEL 2
REMARK VINA RESULT:      -7.9      3.916      9.909
REMARK  Name = 
REMARK  4 active torsions:
REMARK  status: ('A' for Active; 'I' for Inactive)
REMARK    1  A    between atoms: C_1  and  C_2
REMARK    2  A    between atoms: C_2  and  C_3
REMARK    3  A    between atoms: C_10  and  C_11
REMARK    4  A    between atoms: C_12  and  C_13
REMARK                            x       y       z     vdW  Elec       q    Type
REMARK                         _______ _______ _______ _____ _____    ______ ____
ROOT
ATOM      1  C   UNL     1       5.610   4.148  15.689  0.00  0.00    +0.000 C 
ATOM      2  C   UNL     1       6.041   4.892  16.965  0.00  0.00    +0.000 C 
ATOM      3  C   UNL     1       7.482   4.458  17.300  0.00  0.00    +0.000 C 
ATOM      4  C   UNL     1       6.004   6.420  16.763  0.00  0.00    +0.000 C 
ATOM      5  C   UNL     1       4.575   6.945  16.655  0.00  0.00    +0.000 C 
ATOM      6  N   UNL     1       3.797   6.531  17.808  0.00  0.00    +0.000 N 
ATOM      7  C   UNL     1       2.894   7.435  18.402  0.00  0.00    +0.000 A 
ATOM      8  N   UNL     1       2.488   7.206  19.666  0.00  0.00    +0.000 NA
ATOM      9  C   UNL     1       1.621   8.083  20.219  0.00  0.00    +0.000 A 
ATOM     10  C   UNL     1       1.122   9.181  19.557  0.00  0.00    +0.000 A 
ATOM     11  C   UNL     1       1.618   9.343  18.284  0.00  0.00    +0.000 A 
ATOM     12  N   UNL     1       2.531   8.527  17.708  0.00  0.00    +0.000 NA
ATOM     13  C   UNL     1       3.773   5.200  18.180  0.00  0.00    +0.000 C 
ATOM     14  O   UNL     1       2.791   4.600  18.622  0.00  0.00    +0.000 OA
ATOM     15  C   UNL     1       5.125   4.514  18.142  0.00  0.00    +0.000 C 
ENDROOT
BRANCH  10  16
ATOM     16  C   UNL     1       0.178  10.082  20.144  0.00  0.00    +0.000 C 
ATOM     17  C   UNL     1      -0.609  10.836  20.667  0.00  0.00    +0.000 C 
BRANCH  17  18
ATOM     18  C   UNL     1      -1.533  11.708  21.334  0.00  0.00    +0.000 A 
ATOM     19  C   UNL     1      -2.239  12.675  20.614  0.00  0.00    +0.000 A 
ATOM     20  C   UNL     1      -3.069  13.573  21.288  0.00  0.00    +0.000 A 
ATOM     21  F   UNL     1      -3.720  14.517  20.594  0.00  0.00    +0.000 F 
ATOM     22  C   UNL     1      -3.222  13.516  22.670  0.00  0.00    +0.000 A 
ATOM     23  C   UNL     1      -2.546  12.537  23.392  0.00  0.00    +0.000 A 
ATOM     24  C   UNL     1      -1.708  11.640  22.722  0.00  0.00    +0.000 A 
ATOM     25  F   UNL     1      -1.060  10.713  23.442  0.00  0.00    +0.000 F 
ENDBRANCH  17  18
ENDBRANCH  10  16
TORSDOF 2
ENDMDL
MODEL 3
REMARK VINA RESULT:      -7.9      1.218      1.518
REMARK  Name = 
REMARK  4 active torsions:
REMARK  status: ('A' for Active; 'I' for Inactive)
REMARK    1  A    between atoms: C_1  and  C_2
REMARK    2  A    between atoms: C_2  and  C_3
REMARK    3  A    between atoms: C_10  and  C_11
REMARK    4  A    between atoms: C_12  and  C_13
REMARK                            x       y       z     vdW  Elec       q    Type
REMARK                         _______ _______ _______ _____ _____    ______ ____
ROOT
ATOM      1  C   UNL     1      -1.181  13.490  22.954  0.00  0.00    +0.000 C 
ATOM      2  C   UNL     1      -1.886  12.234  22.410  0.00  0.00    +0.000 C 
ATOM      3  C   UNL     1      -3.363  12.296  22.847  0.00  0.00    +0.000 C 
ATOM      4  C   UNL     1      -1.814  12.172  20.871  0.00  0.00    +0.000 C 
ATOM      5  C   UNL     1      -0.399  11.879  20.380  0.00  0.00    +0.000 C 
ATOM      6  N   UNL     1       0.109  10.668  20.996  0.00  0.00    +0.000 N 
ATOM      7  C   UNL     1       0.854   9.753  20.227  0.00  0.00    +0.000 A 
ATOM      8  N   UNL     1       0.974   8.485  20.667  0.00  0.00    +0.000 NA
ATOM      9  C   UNL     1       1.694   7.622  19.917  0.00  0.00    +0.000 A 
ATOM     10  C   UNL     1       2.320   7.972  18.743  0.00  0.00    +0.000 A 
ATOM     11  C   UNL     1       2.115   9.279  18.365  0.00  0.00    +0.000 A 
ATOM     12  N   UNL     1       1.355  10.164  19.050  0.00  0.00    +0.000 NA
ATOM     13  C   UNL     1       0.058  10.521  22.370  0.00  0.00    +0.000 C 
ATOM     14  O   UNL     1       0.922   9.980  23.063  0.00  0.00    +0.000 OA
ATOM     15  C   UNL     1      -1.249  10.963  22.999  0.00  0.00    +0.000 C 
ENDROOT
BRANCH  10  16
ATOM     16  C   UNL     1       3.108   7.055  17.977  0.00  0.00    +0.000 C 
ATOM     17  C   UNL     1       3.798   6.296  17.337  0.00  0.00    +0.000 C 
BRANCH  17  18
ATOM     18  C   UNL     1       4.657   5.429  16.582  0.00  0.00    +0.000 A 
ATOM     19  C   UNL     1       5.579   5.961  15.677  0.00  0.00    +0.000 A 
ATOM     20  C   UNL     1       6.348   5.104  14.886  0.00  0.00    +0.000 A 
ATOM     21  F   UNL     1       7.210   5.622  14.000  0.00  0.00    +0.000 F 
ATOM     22  C   UNL     1       6.226   3.723  14.991  0.00  0.00    +0.000 A 
ATOM     23  C   UNL     1       5.331   3.184  15.911  0.00  0.00    +0.000 A 
ATOM     24  C   UNL     1       4.554   4.038  16.700  0.00  0.00    +0.000 A 
ATOM     25  F   UNL     1       3.692   3.494  17.571  0.00  0.00    +0.000 F 
ENDBRANCH  17  18
ENDBRANCH  10  16
TORSDOF 2
ENDMDL
MODEL 4
REMARK VINA RESULT:      -7.8      1.727      2.420
REMARK  Name = 
REMARK  4 active torsions:
REMARK  status: ('A' for Active; 'I' for Inactive)
REMARK    1  A    between atoms: C_1  and  C_2
REMARK    2  A    between atoms: C_2  and  C_3
REMARK    3  A    between atoms: C_10  and  C_11
REMARK    4  A    between atoms: C_12  and  C_13
REMARK                            x       y       z     vdW  Elec       q    Type
REMARK                         _______ _______ _______ _____ _____    ______ ____
ROOT
ATOM      1  C   UNL     1      -3.607  12.423  21.772  0.00  0.00    +0.000 C 
ATOM      2  C   UNL     1      -2.268  13.041  21.332  0.00  0.00    +0.000 C 
ATOM      3  C   UNL     1      -2.322  14.550  21.643  0.00  0.00    +0.000 C 
ATOM      4  C   UNL     1      -1.083  12.409  22.089  0.00  0.00    +0.000 C 
ATOM      5  C   UNL     1      -0.832  10.969  21.649  0.00  0.00    +0.000 C 
ATOM      6  N   UNL     1      -0.656  10.903  20.210  0.00  0.00    +0.000 N 
ATOM      7  C   UNL     1       0.333  10.060  19.666  0.00  0.00    +0.000 A 
ATOM      8  N   UNL     1       0.761  10.293  18.410  0.00  0.00    +0.000 NA
ATOM      9  C   UNL     1       1.708   9.473  17.904  0.00  0.00    +0.000 A 
ATOM     10  C   UNL     1       2.245   8.411  18.595  0.00  0.00    +0.000 A 
ATOM     11  C   UNL     1       1.765   8.275  19.877  0.00  0.00    +0.000 A 
ATOM     12  N   UNL     1       0.861   9.103  20.448  0.00  0.00    +0.000 NA
ATOM     13  C   UNL     1      -1.592  11.484  19.375  0.00  0.00    +0.000 C 
ATOM     14  O   UNL     1      -1.964  11.026  18.293  0.00  0.00    +0.000 OA
ATOM     15  C   UNL     1      -2.062  12.856  19.819  0.00  0.00    +0.000 C 
ENDROOT
BRANCH  10  16
ATOM     16  C   UNL     1       3.223   7.531  18.033  0.00  0.00    +0.000 C 
ATOM     17  C   UNL     1       4.068   6.811  17.553  0.00  0.00    +0.000 C 
BRANCH  17  18
ATOM     18  C   UNL     1       5.093   5.999  16.961  0.00  0.00    +0.000 A 
ATOM     19  C   UNL     1       5.037   5.668  15.605  0.00  0.00    +0.000 A 
ATOM     20  C   UNL     1       5.994   4.807  15.062  0.00  0.00    +0.000 A 
ATOM     21  F   UNL     1       5.917   4.470  13.767  0.00  0.00    +0.000 F 
ATOM     22  C   UNL     1       7.016   4.280  15.844  0.00  0.00    +0.000 A 
ATOM     23  C   UNL     1       7.096   4.627  17.189  0.00  0.00    +0.000 A 
ATOM     24  C   UNL     1       6.137   5.484  17.739  0.00  0.00    +0.000 A 
ATOM     25  F   UNL     1       6.231   5.795  19.039  0.00  0.00    +0.000 F 
ENDBRANCH  17  18
ENDBRANCH  10  16
TORSDOF 2
ENDMDL
MODEL 5
REMARK VINA RESULT:      -7.8      1.291      2.067
REMARK  Name = 
REMARK  4 active torsions:
REMARK  status: ('A' for Active; 'I' for Inactive)
REMARK    1  A    between atoms: C_1  and  C_2
REMARK    2  A    between atoms: C_2  and  C_3
REMARK    3  A    between atoms: C_10  and  C_11
REMARK    4  A    between atoms: C_12  and  C_13
REMARK                            x       y       z     vdW  Elec       q    Type
REMARK                         _______ _______ _______ _____ _____    ______ ____
ROOT
ATOM      1  C   UNL     1      -3.330  12.634  22.344  0.00  0.00    +0.000 C 
ATOM      2  C   UNL     1      -2.019  13.192  21.762  0.00  0.00    +0.000 C 
ATOM      3  C   UNL     1      -1.989  14.709  22.039  0.00  0.00    +0.000 C 
ATOM      4  C   UNL     1      -0.788  12.532  22.415  0.00  0.00    +0.000 C 
ATOM      5  C   UNL     1      -0.633  11.075  21.990  0.00  0.00    +0.000 C 
ATOM      6  N   UNL     1      -0.600  10.972  20.543  0.00  0.00    +0.000 N 
ATOM      7  C   UNL     1       0.301  10.082  19.926  0.00  0.00    +0.000 A 
ATOM      8  N   UNL     1       0.612  10.271  18.629  0.00  0.00    +0.000 NA
ATOM      9  C   UNL     1       1.476   9.406  18.054  0.00  0.00    +0.000 A 
ATOM     10  C   UNL     1       2.040   8.340  18.716  0.00  0.00    +0.000 A 
ATOM     11  C   UNL     1       1.683   8.249  20.042  0.00  0.00    +0.000 A 
ATOM     12  N   UNL     1       0.869   9.123  20.677  0.00  0.00    +0.000 NA
ATOM     13  C   UNL     1      -1.592  11.569  19.788  0.00  0.00    +0.000 C 
ATOM     14  O   UNL     1      -2.084  11.103  18.758  0.00  0.00    +0.000 OA
ATOM     15  C   UNL     1      -1.969  12.967  20.241  0.00  0.00    +0.000 C 
ENDROOT
BRANCH  10  16
ATOM     16  C   UNL     1       2.928   7.412  18.085  0.00  0.00    +0.000 C 
ATOM     17  C   UNL     1       3.659   6.626  17.528  0.00  0.00    +0.000 C 
BRANCH  17  18
ATOM     18  C   UNL     1       4.487   5.680  16.835  0.00  0.00    +0.000 A 
ATOM     19  C   UNL     1       5.404   6.114  15.875  0.00  0.00    +0.000 A 
ATOM     20  C   UNL     1       6.141   5.176  15.148  0.00  0.00    +0.000 A 
ATOM     21  F   UNL     1       6.999   5.599  14.208  0.00  0.00    +0.000 F 
ATOM     22  C   UNL     1       5.991   3.812  15.370  0.00  0.00    +0.000 A 
ATOM     23  C   UNL     1       5.101   3.372  16.344  0.00  0.00    +0.000 A 
ATOM     24  C   UNL     1       4.355   4.306  17.071  0.00  0.00    +0.000 A 
ATOM     25  F   UNL     1       3.497   3.856  17.997  0.00  0.00    +0.000 F 
ENDBRANCH  17  18
ENDBRANCH  10  16
TORSDOF 2
ENDMDL
MODEL 6
REMARK VINA RESULT:      -7.8      4.175     10.124
REMARK  Name = 
REMARK  4 active torsions:
REMARK  status: ('A' for Active; 'I' for Inactive)
REMARK    1  A    between atoms: C_1  and  C_2
REMARK    2  A    between atoms: C_2  and  C_3
REMARK    3  A    between atoms: C_10  and  C_11
REMARK    4  A    between atoms: C_12  and  C_13
REMARK                            x       y       z     vdW  Elec       q    Type
REMARK                         _______ _______ _______ _____ _____    ______ ____
ROOT
ATOM      1  C   UNL     1       3.799   4.275  17.088  0.00  0.00    +0.000 C 
ATOM      2  C   UNL     1       4.535   5.185  18.087  0.00  0.00    +0.000 C 
ATOM      3  C   UNL     1       6.024   4.785  18.081  0.00  0.00    +0.000 C 
ATOM      4  C   UNL     1       4.407   6.671  17.693  0.00  0.00    +0.000 C 
ATOM      5  C   UNL     1       2.988   7.193  17.900  0.00  0.00    +0.000 C 
ATOM      6  N   UNL     1       2.556   6.954  19.265  0.00  0.00    +0.000 N 
ATOM      7  C   UNL     1       1.821   7.943  19.947  0.00  0.00    +0.000 A 
ATOM      8  N   UNL     1       1.772   7.898  21.293  0.00  0.00    +0.000 NA
ATOM      9  C   UNL     1       1.061   8.854  21.931  0.00  0.00    +0.000 A 
ATOM     10  C   UNL     1       0.376   9.855  21.281  0.00  0.00    +0.000 A 
ATOM     11  C   UNL     1       0.511   9.831  19.912  0.00  0.00    +0.000 A 
ATOM     12  N   UNL     1       1.258   8.931  19.232  0.00  0.00    +0.000 NA
ATOM     13  C   UNL     1       2.665   5.688  19.809  0.00  0.00    +0.000 C 
ATOM     14  O   UNL     1       1.852   5.168  20.576  0.00  0.00    +0.000 OA
ATOM     15  C   UNL     1       3.976   4.987  19.507  0.00  0.00    +0.000 C 
ENDROOT
BRANCH  10  16
ATOM     16  C   UNL     1      -0.400  10.841  21.969  0.00  0.00    +0.000 C 
ATOM     17  C   UNL     1      -1.081  11.656  22.547  0.00  0.00    +0.000 C 
BRANCH  17  18
ATOM     18  C   UNL     1      -1.932  12.599  23.215  0.00  0.00    +0.000 A 
ATOM     19  C   UNL     1      -3.221  12.232  23.608  0.00  0.00    +0.000 A 
ATOM     20  C   UNL     1      -4.069  13.184  24.180  0.00  0.00    +0.000 A 
ATOM     21  F   UNL     1      -5.315  12.832  24.528  0.00  0.00    +0.000 F 
ATOM     22  C   UNL     1      -3.650  14.494  24.381  0.00  0.00    +0.000 A 
ATOM     23  C   UNL     1      -2.357  14.861  24.020  0.00  0.00    +0.000 A 
ATOM     24  C   UNL     1      -1.506  13.914  23.441  0.00  0.00    +0.000 A 
ATOM     25  F   UNL     1      -0.270  14.295  23.092  0.00  0.00    +0.000 F 
ENDBRANCH  17  18
ENDBRANCH  10  16
TORSDOF 2
ENDMDL
MODEL 7
REMARK VINA RESULT:      -7.8      3.919      9.979
REMARK  Name = 
REMARK  4 active torsions:
REMARK  status: ('A' for Active; 'I' for Inactive)
REMARK    1  A    between atoms: C_1  and  C_2
REMARK    2  A    between atoms: C_2  and  C_3
REMARK    3  A    between atoms: C_10  and  C_11
REMARK    4  A    between atoms: C_12  and  C_13
REMARK                            x       y       z     vdW  Elec       q    Type
REMARK                         _______ _______ _______ _____ _____    ______ ____
ROOT
ATOM      1  C   UNL     1       5.619   4.115  15.685  0.00  0.00    +0.000 C 
ATOM      2  C   UNL     1       6.048   4.896  16.940  0.00  0.00    +0.000 C 
ATOM      3  C   UNL     1       7.496   4.486  17.278  0.00  0.00    +0.000 C 
ATOM      4  C   UNL     1       5.995   6.418  16.698  0.00  0.00    +0.000 C 
ATOM      5  C   UNL     1       4.560   6.925  16.585  0.00  0.00    +0.000 C 
ATOM      6  N   UNL     1       3.792   6.533  17.752  0.00  0.00    +0.000 N 
ATOM      7  C   UNL     1       2.883   7.442  18.327  0.00  0.00    +0.000 A 
ATOM      8  N   UNL     1       2.486   7.242  19.599  0.00  0.00    +0.000 NA
ATOM      9  C   UNL     1       1.612   8.124  20.134  0.00  0.00    +0.000 A 
ATOM     10  C   UNL     1       1.099   9.199  19.446  0.00  0.00    +0.000 A 
ATOM     11  C   UNL     1       1.587   9.334  18.167  0.00  0.00    +0.000 A 
ATOM     12  N   UNL     1       2.505   8.512  17.608  0.00  0.00    +0.000 NA
ATOM     13  C   UNL     1       3.784   5.211  18.158  0.00  0.00    +0.000 C 
ATOM     14  O   UNL     1       2.810   4.613  18.620  0.00  0.00    +0.000 OA
ATOM     15  C   UNL     1       5.143   4.539  18.131  0.00  0.00    +0.000 C 
ENDROOT
BRANCH  10  16
ATOM     16  C   UNL     1       0.148  10.105  20.015  0.00  0.00    +0.000 C 
ATOM     17  C   UNL     1      -0.668  10.875  20.467  0.00  0.00    +0.000 C 
BRANCH  17  18
ATOM     18  C   UNL     1      -1.648  11.802  20.956  0.00  0.00    +0.000 A 
ATOM     19  C   UNL     1      -1.804  12.008  22.328  0.00  0.00    +0.000 A 
ATOM     20  C   UNL     1      -2.819  12.848  22.792  0.00  0.00    +0.000 A 
ATOM     21  F   UNL     1      -2.982  13.018  24.112  0.00  0.00    +0.000 F 
ATOM     22  C   UNL     1      -3.674  13.501  21.910  0.00  0.00    +0.000 A 
ATOM     23  C   UNL     1      -3.507  13.325  20.540  0.00  0.00    +0.000 A 
ATOM     24  C   UNL     1      -2.496  12.479  20.071  0.00  0.00    +0.000 A 
ATOM     25  F   UNL     1      -2.363  12.319  18.747  0.00  0.00    +0.000 F 
ENDBRANCH  17  18
ENDBRANCH  10  16
TORSDOF 2
ENDMDL
MODEL 8
REMARK VINA RESULT:      -7.7      1.061      1.872
REMARK  Name = 
REMARK  4 active torsions:
REMARK  status: ('A' for Active; 'I' for Inactive)
REMARK    1  A    between atoms: C_1  and  C_2
REMARK    2  A    between atoms: C_2  and  C_3
REMARK    3  A    between atoms: C_10  and  C_11
REMARK    4  A    between atoms: C_12  and  C_13
REMARK                            x       y       z     vdW  Elec       q    Type
REMARK                         _______ _______ _______ _____ _____    ______ ____
ROOT
ATOM      1  C   UNL     1      -3.716  13.474  22.958  0.00  0.00    +0.000 C 
ATOM      2  C   UNL     1      -2.367  13.954  22.394  0.00  0.00    +0.000 C 
ATOM      3  C   UNL     1      -2.248  15.464  22.679  0.00  0.00    +0.000 C 
ATOM      4  C   UNL     1      -1.187  13.217  23.058  0.00  0.00    +0.000 C 
ATOM      5  C   UNL     1      -1.115  11.754  22.627  0.00  0.00    +0.000 C 
ATOM      6  N   UNL     1      -1.072  11.656  21.180  0.00  0.00    +0.000 N 
ATOM      7  C   UNL     1      -0.220  10.715  20.570  0.00  0.00    +0.000 A 
ATOM      8  N   UNL     1       0.117  10.890  19.278  0.00  0.00    +0.000 NA
ATOM      9  C   UNL     1       0.934   9.976  18.709  0.00  0.00    +0.000 A 
ATOM     10  C   UNL     1       1.423   8.874  19.372  0.00  0.00    +0.000 A 
ATOM     11  C   UNL     1       1.046   8.800  20.693  0.00  0.00    +0.000 A 
ATOM     12  N   UNL     1       0.279   9.719  21.323  0.00  0.00    +0.000 NA
ATOM     13  C   UNL     1      -2.017  12.316  20.417  0.00  0.00    +0.000 C 
ATOM     14  O   UNL     1      -2.524  11.885  19.379  0.00  0.00    +0.000 OA
ATOM     15  C   UNL     1      -2.312  13.732  20.872  0.00  0.00    +0.000 C 
ENDROOT
BRANCH  10  16
ATOM     16  C   UNL     1       2.260   7.897  18.746  0.00  0.00    +0.000 C 
ATOM     17  C   UNL     1       2.945   7.063  18.198  0.00  0.00    +0.000 C 
BRANCH  17  18
ATOM     18  C   UNL     1       3.713   6.056  17.525  0.00  0.00    +0.000 A 
ATOM     19  C   UNL     1       4.754   6.417  16.667  0.00  0.00    +0.000 A 
ATOM     20  C   UNL     1       5.438   5.430  15.952  0.00  0.00    +0.000 A 
ATOM     21  F   UNL     1       6.416   5.786  15.108  0.00  0.00    +0.000 F 
ATOM     22  C   UNL     1       5.112   4.085  16.089  0.00  0.00    +0.000 A 
ATOM     23  C   UNL     1       4.095   3.713  16.964  0.00  0.00    +0.000 A 
ATOM     24  C   UNL     1       3.404   4.698  17.677  0.00  0.00    +0.000 A 
ATOM     25  F   UNL     1       2.422   4.315  18.506  0.00  0.00    +0.000 F 
ENDBRANCH  17  18
ENDBRANCH  10  16
TORSDOF 2
ENDMDL
MODEL 9
REMARK VINA RESULT:      -7.6      1.216      1.347
REMARK  Name = 
REMARK  4 active torsions:
REMARK  status: ('A' for Active; 'I' for Inactive)
REMARK    1  A    between atoms: C_1  and  C_2
REMARK    2  A    between atoms: C_2  and  C_3
REMARK    3  A    between atoms: C_10  and  C_11
REMARK    4  A    between atoms: C_12  and  C_13
REMARK                            x       y       z     vdW  Elec       q    Type
REMARK                         _______ _______ _______ _____ _____    ______ ____
ROOT
ATOM      1  C   UNL     1      -3.039  15.483  22.317  0.00  0.00    +0.000 C 
ATOM      2  C   UNL     1      -2.949  14.125  23.035  0.00  0.00    +0.000 C 
ATOM      3  C   UNL     1      -3.801  14.212  24.317  0.00  0.00    +0.000 C 
ATOM      4  C   UNL     1      -3.484  12.984  22.146  0.00  0.00    +0.000 C 
ATOM      5  C   UNL     1      -2.552  12.693  20.973  0.00  0.00    +0.000 C 
ATOM      6  N   UNL     1      -1.208  12.425  21.451  0.00  0.00    +0.000 N 
ATOM      7  C   UNL     1      -0.449  11.396  20.859  0.00  0.00    +0.000 A 
ATOM      8  N   UNL     1       0.598  10.892  21.540  0.00  0.00    +0.000 NA
ATOM      9  C   UNL     1       1.315   9.907  20.956  0.00  0.00    +0.000 A 
ATOM     10  C   UNL     1       1.043   9.405  19.704  0.00  0.00    +0.000 A 
ATOM     11  C   UNL     1      -0.061   9.964  19.103  0.00  0.00    +0.000 A 
ATOM     12  N   UNL     1      -0.845  10.910  19.670  0.00  0.00    +0.000 NA
ATOM     13  C   UNL     1      -0.596  13.312  22.317  0.00  0.00    +0.000 C 
ATOM     14  O   UNL     1       0.600  13.610  22.305  0.00  0.00    +0.000 OA
ATOM     15  C   UNL     1      -1.493  13.822  23.429  0.00  0.00    +0.000 C 
ENDROOT
BRANCH  10  16
ATOM     16  C   UNL     1       1.832   8.385  19.085  0.00  0.00    +0.000 C 
ATOM     17  C   UNL     1       2.475   7.505  18.560  0.00  0.00    +0.000 C 
BRANCH  17  18
ATOM     18  C   UNL     1       3.198   6.426  17.950  0.00  0.00    +0.000 A 
ATOM     19  C   UNL     1       4.364   6.679  17.223  0.00  0.00    +0.000 A 
ATOM     20  C   UNL     1       5.010   5.632  16.562  0.00  0.00    +0.000 A 
ATOM     21  F   UNL     1       6.111   5.887  15.842  0.00  0.00    +0.000 F 
ATOM     22  C   UNL     1       4.523   4.331  16.625  0.00  0.00    +0.000 A 
ATOM     23  C   UNL     1       3.379   4.064  17.371  0.00  0.00    +0.000 A 
ATOM     24  C   UNL     1       2.725   5.111  18.029  0.00  0.00    +0.000 A 
ATOM     25  F   UNL     1       1.619   4.829  18.733  0.00  0.00    +0.000 F 
ENDBRANCH  17  18
ENDBRANCH  10  16
TORSDOF 2
ENDMDL
