MODEL 1
REMARK VINA RESULT:      -7.4      0.000      0.000
REMARK  Name = 
REMARK  7 active torsions:
REMARK  status: ('A' for Active; 'I' for Inactive)
REMARK    1  A    between atoms: C_1  and  C_2
REMARK    2  A    between atoms: C_4  and  C_5
REMARK    3  A    between atoms: C_5  and  N_6
REMARK    4  A    between atoms: N_6  and  C_7
REMARK    5  A    between atoms: C_8  and  C_10
REMARK    6  A    between atoms: C_11  and  C_12
REMARK    7  A    between atoms: C_15  and  C_16
REMARK                            x       y       z     vdW  Elec       q    Type
REMARK                         _______ _______ _______ _____ _____    ______ ____
ROOT
ATOM      1  N   UNL     1       5.077   5.259  17.899  0.00  0.00    +0.000 N 
ATOM      2  C   UNL     1       4.280   6.265  17.223  0.00  0.00    +0.000 C 
ATOM      3  C   UNL     1       4.609   4.323  18.830  0.00  0.00    +0.000 C 
ATOM      4  O   UNL     1       5.401   3.616  19.454  0.00  0.00    +0.000 OA
ENDROOT
BRANCH   3   5
ATOM      5  C   UNL     1       3.169   4.187  19.095  0.00  0.00    +0.000 A 
ATOM      6  C   UNL     1       2.342   3.106  18.645  0.00  0.00    +0.000 A 
ATOM      7  C   UNL     1       2.705   1.905  17.844  0.00  0.00    +0.000 C 
ATOM      8  N   UNL     1       1.072   3.231  19.049  0.00  0.00    +0.000 NA
ATOM      9  N   UNL     1       1.071   4.372  19.740  0.00  0.00    +0.000 N 
ATOM     10  C   UNL     1       2.277   5.007  19.769  0.00  0.00    +0.000 A 
ATOM     11  H   UNL     1       0.187   4.697  20.122  0.00  0.00    +0.000 HD
BRANCH  10  12
ATOM     12  C   UNL     1       2.517   6.367  20.405  0.00  0.00    +0.000 C 
ATOM     13  C   UNL     1       2.028   7.637  19.742  0.00  0.00    +0.000 C 
ATOM     14  C   UNL     1       1.285   7.094  20.915  0.00  0.00    +0.000 C 
ENDBRANCH  10  12
ENDBRANCH   3   5
BRANCH   1  15
ATOM     15  C   UNL     1       6.501   5.265  17.581  0.00  0.00    +0.000 C 
BRANCH  15  19
ATOM     16  C   UNL     1       6.359   3.662  12.722  0.00  0.00    +0.000 C 
ATOM     17  C   UNL     1       6.617   4.237  14.055  0.00  0.00    +0.000 A 
ATOM     18  C   UNL     1       6.135   3.990  15.315  0.00  0.00    +0.000 A 
ATOM     19  C   UNL     1       6.746   4.975  16.128  0.00  0.00    +0.000 A 
ATOM     20  N   UNL     1       7.584   5.737  15.407  0.00  0.00    +0.000 NA
ATOM     21  O   UNL     1       7.507   5.263  14.110  0.00  0.00    +0.000 OA
ENDBRANCH  15  19
ENDBRANCH   1  15
TORSDOF 4
ENDMDL
MODEL 2
REMARK VINA RESULT:      -7.4      1.380      1.614
REMARK  Name = 
REMARK  7 active torsions:
REMARK  status: ('A' for Active; 'I' for Inactive)
REMARK    1  A    between atoms: C_1  and  C_2
REMARK    2  A    between atoms: C_4  and  C_5
REMARK    3  A    between atoms: C_5  and  N_6
REMARK    4  A    between atoms: N_6  and  C_7
REMARK    5  A    between atoms: C_8  and  C_10
REMARK    6  A    between atoms: C_11  and  C_12
REMARK    7  A    between atoms: C_15  and  C_16
REMARK                            x       y       z     vdW  Elec       q    Type
REMARK                         _______ _______ _______ _____ _____    ______ ____
ROOT
ATOM      1  N   UNL     1       4.840   5.814  18.281  0.00  0.00    +0.000 N 
ATOM      2  C   UNL     1       5.404   4.729  19.062  0.00  0.00    +0.000 C 
ATOM      3  C   UNL     1       3.485   6.158  18.203  0.00  0.00    +0.000 C 
ATOM      4  O   UNL     1       3.102   7.001  17.391  0.00  0.00    +0.000 OA
ENDROOT
BRANCH   3   5
ATOM      5  C   UNL     1       2.496   5.503  19.073  0.00  0.00    +0.000 A 
ATOM      6  C   UNL     1       1.943   4.197  18.863  0.00  0.00    +0.000 A 
ATOM      7  C   UNL     1       2.214   3.217  17.776  0.00  0.00    +0.000 C 
ATOM      8  N   UNL     1       1.078   3.848  19.823  0.00  0.00    +0.000 NA
ATOM      9  N   UNL     1       1.063   4.905  20.635  0.00  0.00    +0.000 N 
ATOM     10  C   UNL     1       1.853   5.937  20.222  0.00  0.00    +0.000 A 
ATOM     11  H   UNL     1       0.437   4.883  21.435  0.00  0.00    +0.000 HD
BRANCH  10  12
ATOM     12  C   UNL     1       1.937   7.287  20.916  0.00  0.00    +0.000 C 
ATOM     13  C   UNL     1       1.506   8.555  20.212  0.00  0.00    +0.000 C 
ATOM     14  C   UNL     1       0.612   7.954  21.243  0.00  0.00    +0.000 C 
ENDBRANCH  10  12
ENDBRANCH   3   5
BRANCH   1  15
ATOM     15  C   UNL     1       5.795   6.582  17.488  0.00  0.00    +0.000 C 
BRANCH  15  19
ATOM     16  C   UNL     1       6.258   3.802  13.215  0.00  0.00    +0.000 C 
ATOM     17  C   UNL     1       6.378   4.603  14.447  0.00  0.00    +0.000 A 
ATOM     18  C   UNL     1       5.521   4.928  15.467  0.00  0.00    +0.000 A 
ATOM     19  C   UNL     1       6.263   5.813  16.286  0.00  0.00    +0.000 A 
ATOM     20  N   UNL     1       7.510   5.969  15.812  0.00  0.00    +0.000 NA
ATOM     21  O   UNL     1       7.579   5.201  14.665  0.00  0.00    +0.000 OA
ENDBRANCH  15  19
ENDBRANCH   1  15
TORSDOF 4
ENDMDL
MODEL 3
REMARK VINA RESULT:      -7.3      1.371      3.059
REMARK  Name = 
REMARK  7 active torsions:
REMARK  status: ('A' for Active; 'I' for Inactive)
REMARK    1  A    between atoms: C_1  and  C_2
REMARK    2  A    between atoms: C_4  and  C_5
REMARK    3  A    between atoms: C_5  and  N_6
REMARK    4  A    between atoms: N_6  and  C_7
REMARK    5  A    between atoms: C_8  and  C_10
REMARK    6  A    between atoms: C_11  and  C_12
REMARK    7  A    between atoms: C_15  and  C_16
REMARK                            x       y       z     vdW  Elec       q    Type
REMARK                         _______ _______ _______ _____ _____    ______ ____
ROOT
ATOM      1  N   UNL     1       4.702   5.725  18.310  0.00  0.00    +0.000 N 
ATOM      2  C   UNL     1       5.427   4.857  19.219  0.00  0.00    +0.000 C 
ATOM      3  C   UNL     1       3.313   5.761  18.136  0.00  0.00    +0.000 C 
ATOM      4  O   UNL     1       2.818   6.431  17.228  0.00  0.00    +0.000 OA
ENDROOT
BRANCH   3   5
ATOM      5  C   UNL     1       2.427   4.986  19.016  0.00  0.00    +0.000 A 
ATOM      6  C   UNL     1       1.809   5.478  20.212  0.00  0.00    +0.000 A 
ATOM      7  C   UNL     1       1.892   6.827  20.836  0.00  0.00    +0.000 C 
ATOM      8  N   UNL     1       1.038   4.558  20.805  0.00  0.00    +0.000 NA
ATOM      9  N   UNL     1       1.158   3.489  20.018  0.00  0.00    +0.000 N 
ATOM     10  C   UNL     1       2.002   3.667  18.961  0.00  0.00    +0.000 A 
ATOM     11  H   UNL     1       0.678   2.637  20.293  0.00  0.00    +0.000 HD
BRANCH  10  12
ATOM     12  C   UNL     1       2.385   2.577  17.973  0.00  0.00    +0.000 C 
ATOM     13  C   UNL     1       3.773   2.518  17.374  0.00  0.00    +0.000 C 
ATOM     14  C   UNL     1       3.406   1.563  18.459  0.00  0.00    +0.000 C 
ENDBRANCH  10  12
ENDBRANCH   3   5
BRANCH   1  15
ATOM     15  C   UNL     1       5.526   6.610  17.493  0.00  0.00    +0.000 C 
BRANCH  15  19
ATOM     16  C   UNL     1       6.558   4.029  13.195  0.00  0.00    +0.000 C 
ATOM     17  C   UNL     1       6.511   4.759  14.475  0.00  0.00    +0.000 A 
ATOM     18  C   UNL     1       5.513   5.078  15.360  0.00  0.00    +0.000 A 
ATOM     19  C   UNL     1       6.150   5.878  16.340  0.00  0.00    +0.000 A 
ATOM     20  N   UNL     1       7.463   5.991  16.084  0.00  0.00    +0.000 NA
ATOM     21  O   UNL     1       7.685   5.279  14.919  0.00  0.00    +0.000 OA
ENDBRANCH  15  19
ENDBRANCH   1  15
TORSDOF 4
ENDMDL
MODEL 4
REMARK VINA RESULT:      -7.3      1.926      2.977
REMARK  Name = 
REMARK  7 active torsions:
REMARK  status: ('A' for Active; 'I' for Inactive)
REMARK    1  A    between atoms: C_1  and  C_2
REMARK    2  A    between atoms: C_4  and  C_5
REMARK    3  A    between atoms: C_5  and  N_6
REMARK    4  A    between atoms: N_6  and  C_7
REMARK    5  A    between atoms: C_8  and  C_10
REMARK    6  A    between atoms: C_11  and  C_12
REMARK    7  A    between atoms: C_15  and  C_16
REMARK                            x       y       z     vdW  Elec       q    Type
REMARK                         _______ _______ _______ _____ _____    ______ ____
ROOT
ATOM      1  N   UNL     1       5.624   4.251  17.492  0.00  0.00    +0.000 N 
ATOM      2  C   UNL     1       4.970   4.327  16.199  0.00  0.00    +0.000 C 
ATOM      3  C   UNL     1       4.996   4.024  18.723  0.00  0.00    +0.000 C 
ATOM      4  O   UNL     1       5.630   4.129  19.774  0.00  0.00    +0.000 OA
ENDROOT
BRANCH   3   5
ATOM      5  C   UNL     1       3.568   3.679  18.782  0.00  0.00    +0.000 A 
ATOM      6  C   UNL     1       3.026   2.361  18.625  0.00  0.00    +0.000 A 
ATOM      7  C   UNL     1       3.727   1.071  18.381  0.00  0.00    +0.000 C 
ATOM      8  N   UNL     1       1.693   2.339  18.745  0.00  0.00    +0.000 NA
ATOM      9  N   UNL     1       1.374   3.614  18.968  0.00  0.00    +0.000 N 
ATOM     10  C   UNL     1       2.439   4.465  18.961  0.00  0.00    +0.000 A 
ATOM     11  H   UNL     1       0.390   3.850  19.058  0.00  0.00    +0.000 HD
BRANCH  10  12
ATOM     12  C   UNL     1       2.334   5.976  19.094  0.00  0.00    +0.000 C 
ATOM     13  C   UNL     1       3.450   6.881  18.616  0.00  0.00    +0.000 C 
ATOM     14  C   UNL     1       2.212   6.754  17.795  0.00  0.00    +0.000 C 
ENDBRANCH  10  12
ENDBRANCH   3   5
BRANCH   1  15
ATOM     15  C   UNL     1       7.068   4.464  17.481  0.00  0.00    +0.000 C 
BRANCH  15  19
ATOM     16  C   UNL     1       8.722   9.151  18.702  0.00  0.00    +0.000 C 
ATOM     17  C   UNL     1       8.150   7.912  18.143  0.00  0.00    +0.000 A 
ATOM     18  C   UNL     1       7.859   6.674  18.657  0.00  0.00    +0.000 A 
ATOM     19  C   UNL     1       7.413   5.924  17.542  0.00  0.00    +0.000 A 
ATOM     20  N   UNL     1       7.389   6.683  16.434  0.00  0.00    +0.000 NA
ATOM     21  O   UNL     1       7.843   7.931  16.819  0.00  0.00    +0.000 OA
ENDBRANCH  15  19
ENDBRANCH   1  15
TORSDOF 4
ENDMDL
MODEL 5
REMARK VINA RESULT:      -7.2      1.988      3.038
REMARK  Name = 
REMARK  7 active torsions:
REMARK  status: ('A' for Active; 'I' for Inactive)
REMARK    1  A    between atoms: C_1  and  C_2
REMARK    2  A    between atoms: C_4  and  C_5
REMARK    3  A    between atoms: C_5  and  N_6
REMARK    4  A    between atoms: N_6  and  C_7
REMARK    5  A    between atoms: C_8  and  C_10
REMARK    6  A    between atoms: C_11  and  C_12
REMARK    7  A    between atoms: C_15  and  C_16
REMARK                            x       y       z     vdW  Elec       q    Type
REMARK                         _______ _______ _______ _____ _____    ______ ____
ROOT
ATOM      1  N   UNL     1       4.148   4.359  18.013  0.00  0.00    +0.000 N 
ATOM      2  C   UNL     1       5.229   4.720  18.911  0.00  0.00    +0.000 C 
ATOM      3  C   UNL     1       2.800   4.710  18.161  0.00  0.00    +0.000 C 
ATOM      4  O   UNL     1       1.946   4.222  17.420  0.00  0.00    +0.000 OA
ENDROOT
BRANCH   3   5
ATOM      5  C   UNL     1       2.381   5.646  19.214  0.00  0.00    +0.000 A 
ATOM      6  C   UNL     1       2.407   7.076  19.112  0.00  0.00    +0.000 A 
ATOM      7  C   UNL     1       2.834   7.936  17.974  0.00  0.00    +0.000 C 
ATOM      8  N   UNL     1       1.951   7.676  20.217  0.00  0.00    +0.000 NA
ATOM      9  N   UNL     1       1.642   6.661  21.024  0.00  0.00    +0.000 N 
ATOM     10  C   UNL     1       1.913   5.431  20.502  0.00  0.00    +0.000 A 
ATOM     11  H   UNL     1       1.301   6.880  21.956  0.00  0.00    +0.000 HD
BRANCH  10  12
ATOM     12  C   UNL     1       1.744   4.121  21.254  0.00  0.00    +0.000 C 
ATOM     13  C   UNL     1       1.258   2.873  20.550  0.00  0.00    +0.000 C 
ATOM     14  C   UNL     1       2.706   3.006  20.879  0.00  0.00    +0.000 C 
ENDBRANCH  10  12
ENDBRANCH   3   5
BRANCH   1  15
ATOM     15  C   UNL     1       4.526   3.528  16.875  0.00  0.00    +0.000 C 
BRANCH  15  19
ATOM     16  C   UNL     1       7.642   5.036  13.104  0.00  0.00    +0.000 C 
ATOM     17  C   UNL     1       6.745   4.846  14.260  0.00  0.00    +0.000 A 
ATOM     18  C   UNL     1       6.333   3.757  14.983  0.00  0.00    +0.000 A 
ATOM     19  C   UNL     1       5.392   4.278  15.905  0.00  0.00    +0.000 A 
ATOM     20  N   UNL     1       5.285   5.611  15.774  0.00  0.00    +0.000 NA
ATOM     21  O   UNL     1       6.143   5.962  14.748  0.00  0.00    +0.000 OA
ENDBRANCH  15  19
ENDBRANCH   1  15
TORSDOF 4
ENDMDL
MODEL 6
REMARK VINA RESULT:      -7.2      2.140      6.520
REMARK  Name = 
REMARK  7 active torsions:
REMARK  status: ('A' for Active; 'I' for Inactive)
REMARK    1  A    between atoms: C_1  and  C_2
REMARK    2  A    between atoms: C_4  and  C_5
REMARK    3  A    between atoms: C_5  and  N_6
REMARK    4  A    between atoms: N_6  and  C_7
REMARK    5  A    between atoms: C_8  and  C_10
REMARK    6  A    between atoms: C_11  and  C_12
REMARK    7  A    between atoms: C_15  and  C_16
REMARK                            x       y       z     vdW  Elec       q    Type
REMARK                         _______ _______ _______ _____ _____    ______ ____
ROOT
ATOM      1  N   UNL     1       3.396   5.617  17.555  0.00  0.00    +0.000 N 
ATOM      2  C   UNL     1       3.820   7.003  17.627  0.00  0.00    +0.000 C 
ATOM      3  C   UNL     1       4.182   4.533  17.144  0.00  0.00    +0.000 C 
ATOM      4  O   UNL     1       3.674   3.424  16.977  0.00  0.00    +0.000 OA
ENDROOT
BRANCH   3   5
ATOM      5  C   UNL     1       5.619   4.707  16.883  0.00  0.00    +0.000 A 
ATOM      6  C   UNL     1       6.627   4.891  17.885  0.00  0.00    +0.000 A 
ATOM      7  C   UNL     1       6.492   4.944  19.367  0.00  0.00    +0.000 C 
ATOM      8  N   UNL     1       7.854   5.004  17.361  0.00  0.00    +0.000 NA
ATOM      9  N   UNL     1       7.648   4.905  16.048  0.00  0.00    +0.000 N 
ATOM     10  C   UNL     1       6.337   4.768  15.698  0.00  0.00    +0.000 A 
ATOM     11  H   UNL     1       8.449   4.999  15.431  0.00  0.00    +0.000 HD
BRANCH  10  12
ATOM     12  C   UNL     1       5.828   4.731  14.266  0.00  0.00    +0.000 C 
ATOM     13  C   UNL     1       6.758   4.412  13.115  0.00  0.00    +0.000 C 
ATOM     14  C   UNL     1       5.811   3.367  13.598  0.00  0.00    +0.000 C 
ENDBRANCH  10  12
ENDBRANCH   3   5
BRANCH   1  15
ATOM     15  C   UNL     1       2.007   5.364  17.922  0.00  0.00    +0.000 C 
BRANCH  15  19
ATOM     16  C   UNL     1       1.382   2.372  22.028  0.00  0.00    +0.000 C 
ATOM     17  C   UNL     1       1.603   3.419  21.013  0.00  0.00    +0.000 A 
ATOM     18  C   UNL     1       1.330   3.528  19.674  0.00  0.00    +0.000 A 
ATOM     19  C   UNL     1       1.897   4.770  19.297  0.00  0.00    +0.000 A 
ATOM     20  N   UNL     1       2.434   5.392  20.359  0.00  0.00    +0.000 NA
ATOM     21  O   UNL     1       2.238   4.544  21.434  0.00  0.00    +0.000 OA
ENDBRANCH  15  19
ENDBRANCH   1  15
TORSDOF 4
ENDMDL
MODEL 7
REMARK VINA RESULT:      -7.0      1.356      1.607
REMARK  Name = 
REMARK  7 active torsions:
REMARK  status: ('A' for Active; 'I' for Inactive)
REMARK    1  A    between atoms: C_1  and  C_2
REMARK    2  A    between atoms: C_4  and  C_5
REMARK    3  A    between atoms: C_5  and  N_6
REMARK    4  A    between atoms: N_6  and  C_7
REMARK    5  A    between atoms: C_8  and  C_10
REMARK    6  A    between atoms: C_11  and  C_12
REMARK    7  A    between atoms: C_15  and  C_16
REMARK                            x       y       z     vdW  Elec       q    Type
REMARK                         _______ _______ _______ _____ _____    ______ ____
ROOT
ATOM      1  N   UNL     1       5.206   4.544  17.847  0.00  0.00    +0.000 N 
ATOM      2  C   UNL     1       4.202   4.183  16.864  0.00  0.00    +0.000 C 
ATOM      3  C   UNL     1       4.961   5.028  19.138  0.00  0.00    +0.000 C 
ATOM      4  O   UNL     1       5.889   5.444  19.833  0.00  0.00    +0.000 OA
ENDROOT
BRANCH   3   5
ATOM      5  C   UNL     1       3.593   5.068  19.675  0.00  0.00    +0.000 A 
ATOM      6  C   UNL     1       2.921   3.975  20.315  0.00  0.00    +0.000 A 
ATOM      7  C   UNL     1       3.407   2.596  20.592  0.00  0.00    +0.000 C 
ATOM      8  N   UNL     1       1.688   4.301  20.722  0.00  0.00    +0.000 NA
ATOM      9  N   UNL     1       1.558   5.575  20.350  0.00  0.00    +0.000 N 
ATOM     10  C   UNL     1       2.639   6.075  19.687  0.00  0.00    +0.000 A 
ATOM     11  H   UNL     1       0.670   6.035  20.527  0.00  0.00    +0.000 HD
BRANCH  10  12
ATOM     12  C   UNL     1       2.706   7.465  19.075  0.00  0.00    +0.000 C 
ATOM     13  C   UNL     1       3.289   7.684  17.695  0.00  0.00    +0.000 C 
ATOM     14  C   UNL     1       1.809   7.710  17.873  0.00  0.00    +0.000 C 
ENDBRANCH  10  12
ENDBRANCH   3   5
BRANCH   1  15
ATOM     15  C   UNL     1       6.592   4.407  17.411  0.00  0.00    +0.000 C 
BRANCH  15  19
ATOM     16  C   UNL     1       6.284   3.765  12.342  0.00  0.00    +0.000 C 
ATOM     17  C   UNL     1       6.534   4.137  13.747  0.00  0.00    +0.000 A 
ATOM     18  C   UNL     1       6.326   3.520  14.954  0.00  0.00    +0.000 A 
ATOM     19  C   UNL     1       6.713   4.484  15.916  0.00  0.00    +0.000 A 
ATOM     20  N   UNL     1       7.173   5.596  15.320  0.00  0.00    +0.000 NA
ATOM     21  O   UNL     1       7.067   5.369  13.960  0.00  0.00    +0.000 OA
ENDBRANCH  15  19
ENDBRANCH   1  15
TORSDOF 4
ENDMDL
MODEL 8
REMARK VINA RESULT:      -6.9      0.786      2.829
REMARK  Name = 
REMARK  7 active torsions:
REMARK  status: ('A' for Active; 'I' for Inactive)
REMARK    1  A    between atoms: C_1  and  C_2
REMARK    2  A    between atoms: C_4  and  C_5
REMARK    3  A    between atoms: C_5  and  N_6
REMARK    4  A    between atoms: N_6  and  C_7
REMARK    5  A    between atoms: C_8  and  C_10
REMARK    6  A    between atoms: C_11  and  C_12
REMARK    7  A    between atoms: C_15  and  C_16
REMARK                            x       y       z     vdW  Elec       q    Type
REMARK                         _______ _______ _______ _____ _____    ______ ____
ROOT
ATOM      1  N   UNL     1       4.549   5.863  18.126  0.00  0.00    +0.000 N 
ATOM      2  C   UNL     1       3.555   6.726  17.516  0.00  0.00    +0.000 C 
ATOM      3  C   UNL     1       4.295   4.809  19.012  0.00  0.00    +0.000 C 
ATOM      4  O   UNL     1       5.225   4.240  19.586  0.00  0.00    +0.000 OA
ENDROOT
BRANCH   3   5
ATOM      5  C   UNL     1       2.916   4.379  19.288  0.00  0.00    +0.000 A 
ATOM      6  C   UNL     1       1.995   5.054  20.155  0.00  0.00    +0.000 A 
ATOM      7  C   UNL     1       2.181   6.298  20.951  0.00  0.00    +0.000 C 
ATOM      8  N   UNL     1       0.802   4.449  20.203  0.00  0.00    +0.000 NA
ATOM      9  N   UNL     1       0.945   3.400  19.393  0.00  0.00    +0.000 N 
ATOM     10  C   UNL     1       2.191   3.280  18.851  0.00  0.00    +0.000 A 
ATOM     11  H   UNL     1       0.162   2.760  19.297  0.00  0.00    +0.000 HD
BRANCH  10  12
ATOM     12  C   UNL     1       2.640   2.122  17.974  0.00  0.00    +0.000 C 
ATOM     13  C   UNL     1       4.048   2.062  17.421  0.00  0.00    +0.000 C 
ATOM     14  C   UNL     1       3.680   1.193  18.575  0.00  0.00    +0.000 C 
ENDBRANCH  10  12
ENDBRANCH   3   5
BRANCH   1  15
ATOM     15  C   UNL     1       5.937   6.165  17.791  0.00  0.00    +0.000 C 
BRANCH  15  19
ATOM     16  C   UNL     1       6.181   3.772  13.272  0.00  0.00    +0.000 C 
ATOM     17  C   UNL     1       6.360   4.497  14.544  0.00  0.00    +0.000 A 
ATOM     18  C   UNL     1       5.611   4.630  15.685  0.00  0.00    +0.000 A 
ATOM     19  C   UNL     1       6.336   5.552  16.479  0.00  0.00    +0.000 A 
ATOM     20  N   UNL     1       7.478   5.912  15.871  0.00  0.00    +0.000 NA
ATOM     21  O   UNL     1       7.492   5.240  14.662  0.00  0.00    +0.000 OA
ENDBRANCH  15  19
ENDBRANCH   1  15
TORSDOF 4
ENDMDL
MODEL 9
REMARK VINA RESULT:      -6.9      2.065      6.503
REMARK  Name = 
REMARK  7 active torsions:
REMARK  status: ('A' for Active; 'I' for Inactive)
REMARK    1  A    between atoms: C_1  and  C_2
REMARK    2  A    between atoms: C_4  and  C_5
REMARK    3  A    between atoms: C_5  and  N_6
REMARK    4  A    between atoms: N_6  and  C_7
REMARK    5  A    between atoms: C_8  and  C_10
REMARK    6  A    between atoms: C_11  and  C_12
REMARK    7  A    between atoms: C_15  and  C_16
REMARK                            x       y       z     vdW  Elec       q    Type
REMARK                         _______ _______ _______ _____ _____    ______ ____
ROOT
ATOM      1  N   UNL     1       3.453   5.602  17.534  0.00  0.00    +0.000 N 
ATOM      2  C   UNL     1       3.976   6.928  17.804  0.00  0.00    +0.000 C 
ATOM      3  C   UNL     1       4.176   4.518  17.020  0.00  0.00    +0.000 C 
ATOM      4  O   UNL     1       3.596   3.484  16.689  0.00  0.00    +0.000 OA
ENDROOT
BRANCH   3   5
ATOM      5  C   UNL     1       5.634   4.606  16.848  0.00  0.00    +0.000 A 
ATOM      6  C   UNL     1       6.594   4.639  17.911  0.00  0.00    +0.000 A 
ATOM      7  C   UNL     1       6.379   4.590  19.384  0.00  0.00    +0.000 C 
ATOM      8  N   UNL     1       7.854   4.702  17.462  0.00  0.00    +0.000 NA
ATOM      9  N   UNL     1       7.716   4.717  16.136  0.00  0.00    +0.000 N 
ATOM     10  C   UNL     1       6.421   4.703  15.710  0.00  0.00    +0.000 A 
ATOM     11  H   UNL     1       8.555   4.799  15.570  0.00  0.00    +0.000 HD
BRANCH  10  12
ATOM     12  C   UNL     1       5.992   4.812  14.255  0.00  0.00    +0.000 C 
ATOM     13  C   UNL     1       6.925   4.406  13.134  0.00  0.00    +0.000 C 
ATOM     14  C   UNL     1       5.804   3.499  13.514  0.00  0.00    +0.000 C 
ENDBRANCH  10  12
ENDBRANCH   3   5
BRANCH   1  15
ATOM     15  C   UNL     1       2.031   5.419  17.803  0.00  0.00    +0.000 C 
BRANCH  15  19
ATOM     16  C   UNL     1       1.625   2.547  22.022  0.00  0.00    +0.000 C 
ATOM     17  C   UNL     1       1.658   3.169  20.685  0.00  0.00    +0.000 A 
ATOM     18  C   UNL     1       2.261   4.283  20.160  0.00  0.00    +0.000 A 
ATOM     19  C   UNL     1       1.795   4.343  18.824  0.00  0.00    +0.000 A 
ATOM     20  N   UNL     1       0.998   3.297  18.549  0.00  0.00    +0.000 NA
ATOM     21  O   UNL     1       0.924   2.559  19.717  0.00  0.00    +0.000 OA
ENDBRANCH  15  19
ENDBRANCH   1  15
TORSDOF 4
ENDMDL
