MODEL 1
REMARK VINA RESULT:      -7.2      0.000      0.000
REMARK  Name = 
REMARK  7 active torsions:
REMARK  status: ('A' for Active; 'I' for Inactive)
REMARK    1  A    between atoms: C_1  and  C_2
REMARK    2  A    between atoms: C_2  and  O_3
REMARK    3  A    between atoms: O_3  and  C_4
REMARK    4  A    between atoms: C_4  and  C_6
REMARK    5  A    between atoms: N_16  and  C_17
REMARK    6  A    between atoms: C_22  and  O_23
REMARK    7  A    between atoms: O_23  and  C_24
REMARK                            x       y       z     vdW  Elec       q    Type
REMARK                         _______ _______ _______ _____ _____    ______ ____
ROOT
ATOM      1  C   UNL     1       4.301   6.331  17.750  0.00  0.00    +0.000 C 
ATOM      2  C   UNL     1       3.444   7.610  17.521  0.00  0.00    +0.000 C 
ATOM      3  C   UNL     1       2.599   7.687  18.758  0.00  0.00    +0.000 A 
ATOM      4  C   UNL     1       1.807   8.748  19.169  0.00  0.00    +0.000 A 
ATOM      5  C   UNL     1       1.046   8.598  20.332  0.00  0.00    +0.000 A 
ATOM      6 CL   UNL     1       0.020   9.881  20.850  0.00  0.00    +0.000 Cl
ATOM      7  C   UNL     1       1.097   7.413  21.076  0.00  0.00    +0.000 A 
ATOM      8  C   UNL     1       1.917   6.358  20.662  0.00  0.00    +0.000 A 
ATOM      9  C   UNL     1       2.646   6.497  19.485  0.00  0.00    +0.000 A 
ATOM     10  C   UNL     1       3.517   5.471  18.808  0.00  0.00    +0.000 C 
ATOM     11  N   UNL     1       2.779   4.380  18.151  0.00  0.00    +0.000 N 
ATOM     12  C   UNL     1       1.505   3.870  18.631  0.00  0.00    +0.000 C 
ATOM     13  C   UNL     1       3.537   3.490  17.391  0.00  0.00    +0.000 C 
ATOM     14  O   UNL     1       3.338   2.278  17.337  0.00  0.00    +0.000 OA
ATOM     15  C   UNL     1       4.488   4.147  16.463  0.00  0.00    +0.000 A 
ATOM     16  C   UNL     1       5.149   3.380  15.501  0.00  0.00    +0.000 A 
ATOM     17  C   UNL     1       5.837   4.008  14.468  0.00  0.00    +0.000 A 
ATOM     18  C   UNL     1       5.782   5.396  14.356  0.00  0.00    +0.000 A 
ATOM     19  C   UNL     1       5.172   6.166  15.351  0.00  0.00    +0.000 A 
ATOM     20  C   UNL     1       4.583   5.550  16.467  0.00  0.00    +0.000 A 
ENDROOT
BRANCH   1  21
ATOM     21  C   UNL     1       5.703   6.765  18.253  0.00  0.00    +0.000 C 
ATOM     22  O   UNL     1       6.343   7.686  17.753  0.00  0.00    +0.000 OA
BRANCH  21  23
ATOM     23  O   UNL     1       6.247   5.847  19.106  0.00  0.00    +0.000 OA
BRANCH  23  25
ATOM     24  C   UNL     1       7.850   4.538  17.766  0.00  0.00    +0.000 C 
ATOM     25  C   UNL     1       7.638   5.539  18.887  0.00  0.00    +0.000 C 
ENDBRANCH  23  25
ENDBRANCH  21  23
ENDBRANCH   1  21
BRANCH  17  26
ATOM     26  O   UNL     1       6.515   3.169  13.626  0.00  0.00    +0.000 OA
ATOM     27  C   UNL     1       6.153   3.228  12.252  0.00  0.00    +0.000 C 
ENDBRANCH  17  26
TORSDOF 4
ENDMDL
MODEL 2
REMARK VINA RESULT:      -6.8      0.851      1.211
REMARK  Name = 
REMARK  7 active torsions:
REMARK  status: ('A' for Active; 'I' for Inactive)
REMARK    1  A    between atoms: C_1  and  C_2
REMARK    2  A    between atoms: C_2  and  O_3
REMARK    3  A    between atoms: O_3  and  C_4
REMARK    4  A    between atoms: C_4  and  C_6
REMARK    5  A    between atoms: N_16  and  C_17
REMARK    6  A    between atoms: C_22  and  O_23
REMARK    7  A    between atoms: O_23  and  C_24
REMARK                            x       y       z     vdW  Elec       q    Type
REMARK                         _______ _______ _______ _____ _____    ______ ____
ROOT
ATOM      1  C   UNL     1       4.411   6.034  17.825  0.00  0.00    +0.000 C 
ATOM      2  C   UNL     1       3.596   7.353  17.679  0.00  0.00    +0.000 C 
ATOM      3  C   UNL     1       2.734   7.366  18.907  0.00  0.00    +0.000 A 
ATOM      4  C   UNL     1       1.968   8.417  19.385  0.00  0.00    +0.000 A 
ATOM      5  C   UNL     1       1.185   8.207  20.523  0.00  0.00    +0.000 A 
ATOM      6 CL   UNL     1       0.190   9.480  21.119  0.00  0.00    +0.000 Cl
ATOM      7  C   UNL     1       1.188   6.969  21.178  0.00  0.00    +0.000 A 
ATOM      8  C   UNL     1       1.983   5.923  20.699  0.00  0.00    +0.000 A 
ATOM      9  C   UNL     1       2.734   6.125  19.545  0.00  0.00    +0.000 A 
ATOM     10  C   UNL     1       3.584   5.124  18.806  0.00  0.00    +0.000 C 
ATOM     11  N   UNL     1       2.824   4.108  18.061  0.00  0.00    +0.000 N 
ATOM     12  C   UNL     1       1.528   3.604  18.486  0.00  0.00    +0.000 C 
ATOM     13  C   UNL     1       3.567   3.253  17.248  0.00  0.00    +0.000 C 
ATOM     14  O   UNL     1       3.333   2.054  17.102  0.00  0.00    +0.000 OA
ATOM     15  C   UNL     1       4.552   3.946  16.384  0.00  0.00    +0.000 A 
ATOM     16  C   UNL     1       5.205   3.231  15.377  0.00  0.00    +0.000 A 
ATOM     17  C   UNL     1       5.927   3.911  14.402  0.00  0.00    +0.000 A 
ATOM     18  C   UNL     1       5.916   5.305  14.392  0.00  0.00    +0.000 A 
ATOM     19  C   UNL     1       5.313   6.018  15.433  0.00  0.00    +0.000 A 
ATOM     20  C   UNL     1       4.689   5.341  16.493  0.00  0.00    +0.000 A 
ENDROOT
BRANCH   1  21
ATOM     21  C   UNL     1       5.816   6.387  18.377  0.00  0.00    +0.000 C 
ATOM     22  O   UNL     1       6.327   5.814  19.337  0.00  0.00    +0.000 OA
BRANCH  21  23
ATOM     23  O   UNL     1       6.287   7.563  17.867  0.00  0.00    +0.000 OA
BRANCH  23  25
ATOM     24  C   UNL     1       8.233   9.076  17.966  0.00  0.00    +0.000 C 
ATOM     25  C   UNL     1       7.720   7.663  17.749  0.00  0.00    +0.000 C 
ENDBRANCH  23  25
ENDBRANCH  21  23
ENDBRANCH   1  21
BRANCH  17  26
ATOM     26  O   UNL     1       6.594   3.115  13.511  0.00  0.00    +0.000 OA
ATOM     27  C   UNL     1       6.139   3.162  12.163  0.00  0.00    +0.000 C 
ENDBRANCH  17  26
TORSDOF 4
ENDMDL
MODEL 3
REMARK VINA RESULT:      -6.5      5.997     10.026
REMARK  Name = 
REMARK  7 active torsions:
REMARK  status: ('A' for Active; 'I' for Inactive)
REMARK    1  A    between atoms: C_1  and  C_2
REMARK    2  A    between atoms: C_2  and  O_3
REMARK    3  A    between atoms: O_3  and  C_4
REMARK    4  A    between atoms: C_4  and  C_6
REMARK    5  A    between atoms: N_16  and  C_17
REMARK    6  A    between atoms: C_22  and  O_23
REMARK    7  A    between atoms: O_23  and  C_24
REMARK                            x       y       z     vdW  Elec       q    Type
REMARK                         _______ _______ _______ _____ _____    ______ ____
ROOT
ATOM      1  C   UNL     1      -0.403  11.416  20.379  0.00  0.00    +0.000 C 
ATOM      2  C   UNL     1       0.100  10.161  21.151  0.00  0.00    +0.000 C 
ATOM      3  C   UNL     1       0.850   9.388  20.107  0.00  0.00    +0.000 A 
ATOM      4  C   UNL     1       1.677   8.294  20.304  0.00  0.00    +0.000 A 
ATOM      5  C   UNL     1       2.242   7.677  19.184  0.00  0.00    +0.000 A 
ATOM      6 CL   UNL     1       3.243   6.290  19.391  0.00  0.00    +0.000 Cl
ATOM      7  C   UNL     1       1.994   8.162  17.894  0.00  0.00    +0.000 A 
ATOM      8  C   UNL     1       1.175   9.281  17.711  0.00  0.00    +0.000 A 
ATOM      9  C   UNL     1       0.587   9.872  18.824  0.00  0.00    +0.000 A 
ATOM     10  C   UNL     1      -0.391  11.018  18.857  0.00  0.00    +0.000 C 
ATOM     11  N   UNL     1      -1.747  10.679  18.395  0.00  0.00    +0.000 N 
ATOM     12  C   UNL     1      -2.021   9.680  17.375  0.00  0.00    +0.000 C 
ATOM     13  C   UNL     1      -2.717  11.670  18.546  0.00  0.00    +0.000 C 
ATOM     14  O   UNL     1      -3.606  11.901  17.728  0.00  0.00    +0.000 OA
ATOM     15  C   UNL     1      -2.734  12.299  19.887  0.00  0.00    +0.000 A 
ATOM     16  C   UNL     1      -3.788  13.148  20.233  0.00  0.00    +0.000 A 
ATOM     17  C   UNL     1      -3.957  13.537  21.559  0.00  0.00    +0.000 A 
ATOM     18  C   UNL     1      -3.124  13.000  22.539  0.00  0.00    +0.000 A 
ATOM     19  C   UNL     1      -2.034  12.199  22.185  0.00  0.00    +0.000 A 
ATOM     20  C   UNL     1      -1.776  11.903  20.837  0.00  0.00    +0.000 A 
ENDROOT
BRANCH   1  21
ATOM     21  C   UNL     1       0.550  12.598  20.695  0.00  0.00    +0.000 C 
ATOM     22  O   UNL     1       1.012  12.812  21.813  0.00  0.00    +0.000 OA
BRANCH  21  23
ATOM     23  O   UNL     1       0.589  13.510  19.678  0.00  0.00    +0.000 OA
BRANCH  23  25
ATOM     24  C   UNL     1       2.597  13.032  18.329  0.00  0.00    +0.000 C 
ATOM     25  C   UNL     1       1.902  13.969  19.301  0.00  0.00    +0.000 C 
ENDBRANCH  23  25
ENDBRANCH  21  23
ENDBRANCH   1  21
BRANCH  17  26
ATOM     26  O   UNL     1      -4.969  14.432  21.777  0.00  0.00    +0.000 OA
ATOM     27  C   UNL     1      -4.916  15.154  23.002  0.00  0.00    +0.000 C 
ENDBRANCH  17  26
TORSDOF 4
ENDMDL
MODEL 4
REMARK VINA RESULT:      -6.4      6.159     10.314
REMARK  Name = 
REMARK  7 active torsions:
REMARK  status: ('A' for Active; 'I' for Inactive)
REMARK    1  A    between atoms: C_1  and  C_2
REMARK    2  A    between atoms: C_2  and  O_3
REMARK    3  A    between atoms: O_3  and  C_4
REMARK    4  A    between atoms: C_4  and  C_6
REMARK    5  A    between atoms: N_16  and  C_17
REMARK    6  A    between atoms: C_22  and  O_23
REMARK    7  A    between atoms: O_23  and  C_24
REMARK                            x       y       z     vdW  Elec       q    Type
REMARK                         _______ _______ _______ _____ _____    ______ ____
ROOT
ATOM      1  C   UNL     1      -0.373  11.468  20.364  0.00  0.00    +0.000 C 
ATOM      2  C   UNL     1       0.147  10.224  21.141  0.00  0.00    +0.000 C 
ATOM      3  C   UNL     1       0.864   9.431  20.088  0.00  0.00    +0.000 A 
ATOM      4  C   UNL     1       1.693   8.338  20.278  0.00  0.00    +0.000 A 
ATOM      5  C   UNL     1       2.223   7.700  19.153  0.00  0.00    +0.000 A 
ATOM      6 CL   UNL     1       3.224   6.313  19.352  0.00  0.00    +0.000 Cl
ATOM      7  C   UNL     1       1.940   8.167  17.863  0.00  0.00    +0.000 A 
ATOM      8  C   UNL     1       1.119   9.286  17.686  0.00  0.00    +0.000 A 
ATOM      9  C   UNL     1       0.565   9.897  18.806  0.00  0.00    +0.000 A 
ATOM     10  C   UNL     1      -0.407  11.047  18.849  0.00  0.00    +0.000 C 
ATOM     11  N   UNL     1      -1.776  10.706  18.432  0.00  0.00    +0.000 N 
ATOM     12  C   UNL     1      -2.083   9.692  17.436  0.00  0.00    +0.000 C 
ATOM     13  C   UNL     1      -2.739  11.702  18.594  0.00  0.00    +0.000 C 
ATOM     14  O   UNL     1      -3.650  11.925  17.799  0.00  0.00    +0.000 OA
ATOM     15  C   UNL     1      -2.715  12.353  19.926  0.00  0.00    +0.000 A 
ATOM     16  C   UNL     1      -3.755  13.211  20.289  0.00  0.00    +0.000 A 
ATOM     17  C   UNL     1      -3.885  13.621  21.612  0.00  0.00    +0.000 A 
ATOM     18  C   UNL     1      -3.027  13.096  22.576  0.00  0.00    +0.000 A 
ATOM     19  C   UNL     1      -1.950  12.285  22.204  0.00  0.00    +0.000 A 
ATOM     20  C   UNL     1      -1.732  11.967  20.854  0.00  0.00    +0.000 A 
ENDROOT
BRANCH   1  21
ATOM     21  C   UNL     1       0.592  12.651  20.634  0.00  0.00    +0.000 C 
ATOM     22  O   UNL     1       1.388  12.673  21.569  0.00  0.00    +0.000 OA
BRANCH  21  23
ATOM     23  O   UNL     1       0.265  13.756  19.900  0.00  0.00    +0.000 OA
BRANCH  23  25
ATOM     24  C   UNL     1      -0.819  15.691  20.980  0.00  0.00    +0.000 C 
ATOM     25  C   UNL     1       0.477  15.024  20.553  0.00  0.00    +0.000 C 
ENDBRANCH  23  25
ENDBRANCH  21  23
ENDBRANCH   1  21
BRANCH  17  26
ATOM     26  O   UNL     1      -4.887  14.523  21.846  0.00  0.00    +0.000 OA
ATOM     27  C   UNL     1      -5.644  14.329  23.035  0.00  0.00    +0.000 C 
ENDBRANCH  17  26
TORSDOF 4
ENDMDL
MODEL 5
REMARK VINA RESULT:      -6.1      9.187     13.202
REMARK  Name = 
REMARK  7 active torsions:
REMARK  status: ('A' for Active; 'I' for Inactive)
REMARK    1  A    between atoms: C_1  and  C_2
REMARK    2  A    between atoms: C_2  and  O_3
REMARK    3  A    between atoms: O_3  and  C_4
REMARK    4  A    between atoms: C_4  and  C_6
REMARK    5  A    between atoms: N_16  and  C_17
REMARK    6  A    between atoms: C_22  and  O_23
REMARK    7  A    between atoms: O_23  and  C_24
REMARK                            x       y       z     vdW  Elec       q    Type
REMARK                         _______ _______ _______ _____ _____    ______ ____
ROOT
ATOM      1  C   UNL     1      -5.266  12.140  18.785  0.00  0.00    +0.000 C 
ATOM      2  C   UNL     1      -5.327  12.355  17.244  0.00  0.00    +0.000 C 
ATOM      3  C   UNL     1      -4.290  11.406  16.720  0.00  0.00    +0.000 A 
ATOM      4  C   UNL     1      -4.077  11.040  15.400  0.00  0.00    +0.000 A 
ATOM      5  C   UNL     1      -3.014  10.179  15.112  0.00  0.00    +0.000 A 
ATOM      6 CL   UNL     1      -2.697   9.736  13.478  0.00  0.00    +0.000 Cl
ATOM      7  C   UNL     1      -2.196   9.681  16.133  0.00  0.00    +0.000 A 
ATOM      8  C   UNL     1      -2.435  10.041  17.464  0.00  0.00    +0.000 A 
ATOM      9  C   UNL     1      -3.472  10.926  17.743  0.00  0.00    +0.000 A 
ATOM     10  C   UNL     1      -3.852  11.515  19.077  0.00  0.00    +0.000 C 
ATOM     11  N   UNL     1      -2.923  12.538  19.581  0.00  0.00    +0.000 N 
ATOM     12  C   UNL     1      -1.495  12.528  19.310  0.00  0.00    +0.000 C 
ATOM     13  C   UNL     1      -3.313  13.212  20.739  0.00  0.00    +0.000 C 
ATOM     14  O   UNL     1      -2.547  13.540  21.643  0.00  0.00    +0.000 OA
ATOM     15  C   UNL     1      -4.710  13.705  20.708  0.00  0.00    +0.000 A 
ATOM     16  C   UNL     1      -5.154  14.573  21.709  0.00  0.00    +0.000 A 
ATOM     17  C   UNL     1      -6.363  15.244  21.557  0.00  0.00    +0.000 A 
ATOM     18  C   UNL     1      -7.074  15.109  20.367  0.00  0.00    +0.000 A 
ATOM     19  C   UNL     1      -6.661  14.195  19.392  0.00  0.00    +0.000 A 
ATOM     20  C   UNL     1      -5.509  13.417  19.588  0.00  0.00    +0.000 A 
ENDROOT
BRANCH   1  21
ATOM     21  C   UNL     1      -6.431  11.200  19.192  0.00  0.00    +0.000 C 
ATOM     22  O   UNL     1      -7.387  10.955  18.462  0.00  0.00    +0.000 OA
BRANCH  21  23
ATOM     23  O   UNL     1      -6.412  10.911  20.528  0.00  0.00    +0.000 OA
BRANCH  23  25
ATOM     24  C   UNL     1      -7.916  11.927  22.197  0.00  0.00    +0.000 C 
ATOM     25  C   UNL     1      -7.701  10.833  21.167  0.00  0.00    +0.000 C 
ENDBRANCH  23  25
ENDBRANCH  21  23
ENDBRANCH   1  21
BRANCH  17  26
ATOM     26  O   UNL     1      -6.743  16.006  22.629  0.00  0.00    +0.000 OA
ATOM     27  C   UNL     1      -6.987  15.306  23.843  0.00  0.00    +0.000 C 
ENDBRANCH  17  26
TORSDOF 4
ENDMDL
MODEL 6
REMARK VINA RESULT:      -6.1      5.335      9.322
REMARK  Name = 
REMARK  7 active torsions:
REMARK  status: ('A' for Active; 'I' for Inactive)
REMARK    1  A    between atoms: C_1  and  C_2
REMARK    2  A    between atoms: C_2  and  O_3
REMARK    3  A    between atoms: O_3  and  C_4
REMARK    4  A    between atoms: C_4  and  C_6
REMARK    5  A    between atoms: N_16  and  C_17
REMARK    6  A    between atoms: C_22  and  O_23
REMARK    7  A    between atoms: O_23  and  C_24
REMARK                            x       y       z     vdW  Elec       q    Type
REMARK                         _______ _______ _______ _____ _____    ______ ____
ROOT
ATOM      1  C   UNL     1       0.133  10.306  19.056  0.00  0.00    +0.000 C 
ATOM      2  C   UNL     1       1.414  10.131  18.190  0.00  0.00    +0.000 C 
ATOM      3  C   UNL     1       1.898   8.760  18.559  0.00  0.00    +0.000 A 
ATOM      4  C   UNL     1       2.885   8.019  17.928  0.00  0.00    +0.000 A 
ATOM      5  C   UNL     1       3.230   6.776  18.466  0.00  0.00    +0.000 A 
ATOM      6 CL   UNL     1       4.481   5.848  17.730  0.00  0.00    +0.000 Cl
ATOM      7  C   UNL     1       2.582   6.281  19.604  0.00  0.00    +0.000 A 
ATOM      8  C   UNL     1       1.573   7.028  20.219  0.00  0.00    +0.000 A 
ATOM      9  C   UNL     1       1.255   8.281  19.701  0.00  0.00    +0.000 A 
ATOM     10  C   UNL     1       0.275   9.287  20.246  0.00  0.00    +0.000 C 
ATOM     11  N   UNL     1       0.719   9.972  21.470  0.00  0.00    +0.000 N 
ATOM     12  C   UNL     1       1.569   9.352  22.473  0.00  0.00    +0.000 C 
ATOM     13  C   UNL     1      -0.091  11.012  21.926  0.00  0.00    +0.000 C 
ATOM     14  O   UNL     1      -0.326  11.242  23.111  0.00  0.00    +0.000 OA
ATOM     15  C   UNL     1      -0.488  11.974  20.871  0.00  0.00    +0.000 A 
ATOM     16  C   UNL     1      -1.117  13.168  21.231  0.00  0.00    +0.000 A 
ATOM     17  C   UNL     1      -1.260  14.186  20.294  0.00  0.00    +0.000 A 
ATOM     18  C   UNL     1      -0.693  14.035  19.030  0.00  0.00    +0.000 A 
ATOM     19  C   UNL     1      -0.117  12.818  18.650  0.00  0.00    +0.000 A 
ATOM     20  C   UNL     1      -0.080  11.737  19.546  0.00  0.00    +0.000 A 
ENDROOT
BRANCH   1  21
ATOM     21  C   UNL     1      -1.103  10.016  18.165  0.00  0.00    +0.000 C 
ATOM     22  O   UNL     1      -1.026   9.764  16.965  0.00  0.00    +0.000 OA
BRANCH  21  23
ATOM     23  O   UNL     1      -2.273  10.343  18.790  0.00  0.00    +0.000 OA
BRANCH  23  25
ATOM     24  C   UNL     1      -4.178  11.909  18.729  0.00  0.00    +0.000 C 
ATOM     25  C   UNL     1      -3.272  10.966  17.958  0.00  0.00    +0.000 C 
ENDBRANCH  23  25
ENDBRANCH  21  23
ENDBRANCH   1  21
BRANCH  17  26
ATOM     26  O   UNL     1      -1.960  15.280  20.726  0.00  0.00    +0.000 OA
ATOM     27  C   UNL     1      -3.063  15.020  21.586  0.00  0.00    +0.000 C 
ENDBRANCH  17  26
TORSDOF 4
ENDMDL
MODEL 7
REMARK VINA RESULT:      -6.1      7.352     11.567
REMARK  Name = 
REMARK  7 active torsions:
REMARK  status: ('A' for Active; 'I' for Inactive)
REMARK    1  A    between atoms: C_1  and  C_2
REMARK    2  A    between atoms: C_2  and  O_3
REMARK    3  A    between atoms: O_3  and  C_4
REMARK    4  A    between atoms: C_4  and  C_6
REMARK    5  A    between atoms: N_16  and  C_17
REMARK    6  A    between atoms: C_22  and  O_23
REMARK    7  A    between atoms: O_23  and  C_24
REMARK                            x       y       z     vdW  Elec       q    Type
REMARK                         _______ _______ _______ _____ _____    ______ ____
ROOT
ATOM      1  C   UNL     1      -1.836  12.350  21.574  0.00  0.00    +0.000 C 
ATOM      2  C   UNL     1      -1.142  11.014  21.972  0.00  0.00    +0.000 C 
ATOM      3  C   UNL     1      -0.427  10.607  20.718  0.00  0.00    +0.000 A 
ATOM      4  C   UNL     1       0.517   9.602  20.578  0.00  0.00    +0.000 A 
ATOM      5  C   UNL     1       1.026   9.341  19.303  0.00  0.00    +0.000 A 
ATOM      6 CL   UNL     1       2.171   8.072  19.088  0.00  0.00    +0.000 Cl
ATOM      7  C   UNL     1       0.609  10.088  18.196  0.00  0.00    +0.000 A 
ATOM      8  C   UNL     1      -0.328  11.115  18.354  0.00  0.00    +0.000 A 
ATOM      9  C   UNL     1      -0.859  11.349  19.619  0.00  0.00    +0.000 A 
ATOM     10  C   UNL     1      -1.935  12.332  20.004  0.00  0.00    +0.000 C 
ATOM     11  N   UNL     1      -3.290  11.957  19.570  0.00  0.00    +0.000 N 
ATOM     12  C   UNL     1      -3.565  11.206  18.356  0.00  0.00    +0.000 C 
ATOM     13  C   UNL     1      -4.332  12.762  20.030  0.00  0.00    +0.000 C 
ATOM     14  O   UNL     1      -5.315  13.077  19.360  0.00  0.00    +0.000 OA
ATOM     15  C   UNL     1      -4.279  13.046  21.483  0.00  0.00    +0.000 A 
ATOM     16  C   UNL     1      -5.370  13.658  22.104  0.00  0.00    +0.000 A 
ATOM     17  C   UNL     1      -5.446  13.696  23.492  0.00  0.00    +0.000 A 
ATOM     18  C   UNL     1      -4.474  13.042  24.247  0.00  0.00    +0.000 A 
ATOM     19  C   UNL     1      -3.352  12.481  23.629  0.00  0.00    +0.000 A 
ATOM     20  C   UNL     1      -3.199  12.549  22.234  0.00  0.00    +0.000 A 
ENDROOT
BRANCH   1  21
ATOM     21  C   UNL     1      -0.975  13.525  22.105  0.00  0.00    +0.000 C 
ATOM     22  O   UNL     1      -1.395  14.674  22.213  0.00  0.00    +0.000 OA
BRANCH  21  23
ATOM     23  O   UNL     1       0.351  13.200  22.169  0.00  0.00    +0.000 OA
BRANCH  23  25
ATOM     24  C   UNL     1       2.159  13.259  20.493  0.00  0.00    +0.000 C 
ATOM     25  C   UNL     1       1.237  14.044  21.408  0.00  0.00    +0.000 C 
ENDBRANCH  23  25
ENDBRANCH  21  23
ENDBRANCH   1  21
BRANCH  17  26
ATOM     26  O   UNL     1      -6.513  14.388  23.998  0.00  0.00    +0.000 OA
ATOM     27  C   UNL     1      -7.684  13.628  24.268  0.00  0.00    +0.000 C 
ENDBRANCH  17  26
TORSDOF 4
ENDMDL
MODEL 8
REMARK VINA RESULT:      -6.0      5.213      8.196
REMARK  Name = 
REMARK  7 active torsions:
REMARK  status: ('A' for Active; 'I' for Inactive)
REMARK    1  A    between atoms: C_1  and  C_2
REMARK    2  A    between atoms: C_2  and  O_3
REMARK    3  A    between atoms: O_3  and  C_4
REMARK    4  A    between atoms: C_4  and  C_6
REMARK    5  A    between atoms: N_16  and  C_17
REMARK    6  A    between atoms: C_22  and  O_23
REMARK    7  A    between atoms: O_23  and  C_24
REMARK                            x       y       z     vdW  Elec       q    Type
REMARK                         _______ _______ _______ _____ _____    ______ ____
ROOT
ATOM      1  C   UNL     1      -0.397  11.630  19.922  0.00  0.00    +0.000 C 
ATOM      2  C   UNL     1      -1.892  11.841  19.545  0.00  0.00    +0.000 C 
ATOM      3  C   UNL     1      -2.459  12.538  20.746  0.00  0.00    +0.000 A 
ATOM      4  C   UNL     1      -3.699  13.147  20.857  0.00  0.00    +0.000 A 
ATOM      5  C   UNL     1      -4.063  13.696  22.090  0.00  0.00    +0.000 A 
ATOM      6 CL   UNL     1      -5.613  14.424  22.274  0.00  0.00    +0.000 Cl
ATOM      7  C   UNL     1      -3.188  13.651  23.183  0.00  0.00    +0.000 A 
ATOM      8  C   UNL     1      -1.930  13.054  23.051  0.00  0.00    +0.000 A 
ATOM      9  C   UNL     1      -1.585  12.478  21.833  0.00  0.00    +0.000 A 
ATOM     10  C   UNL     1      -0.334  11.710  21.492  0.00  0.00    +0.000 C 
ATOM     11  N   UNL     1      -0.262  10.364  22.082  0.00  0.00    +0.000 N 
ATOM     12  C   UNL     1      -0.855  10.016  23.363  0.00  0.00    +0.000 C 
ATOM     13  C   UNL     1       0.808   9.567  21.675  0.00  0.00    +0.000 C 
ATOM     14  O   UNL     1       1.429   8.807  22.416  0.00  0.00    +0.000 OA
ATOM     15  C   UNL     1       1.015   9.537  20.208  0.00  0.00    +0.000 A 
ATOM     16  C   UNL     1       1.912   8.616  19.660  0.00  0.00    +0.000 A 
ATOM     17  C   UNL     1       1.926   8.398  18.286  0.00  0.00    +0.000 A 
ATOM     18  C   UNL     1       0.983   9.036  17.484  0.00  0.00    +0.000 A 
ATOM     19  C   UNL     1       0.126  10.001  18.023  0.00  0.00    +0.000 A 
ATOM     20  C   UNL     1       0.188  10.324  19.388  0.00  0.00    +0.000 A 
ENDROOT
BRANCH   1  21
ATOM     21  C   UNL     1       0.442  12.739  19.234  0.00  0.00    +0.000 C 
ATOM     22  O   UNL     1       1.620  12.959  19.502  0.00  0.00    +0.000 OA
BRANCH  21  23
ATOM     23  O   UNL     1      -0.340  13.601  18.518  0.00  0.00    +0.000 OA
BRANCH  23  25
ATOM     24  C   UNL     1      -0.805  15.595  19.894  0.00  0.00    +0.000 C 
ATOM     25  C   UNL     1      -0.060  15.002  18.712  0.00  0.00    +0.000 C 
ENDBRANCH  23  25
ENDBRANCH  21  23
ENDBRANCH   1  21
BRANCH  17  26
ATOM     26  O   UNL     1       2.895   7.538  17.845  0.00  0.00    +0.000 OA
ATOM     27  C   UNL     1       3.062   6.341  18.595  0.00  0.00    +0.000 C 
ENDBRANCH  17  26
TORSDOF 4
ENDMDL
MODEL 9
REMARK VINA RESULT:      -6.0      6.084      8.793
REMARK  Name = 
REMARK  7 active torsions:
REMARK  status: ('A' for Active; 'I' for Inactive)
REMARK    1  A    between atoms: C_1  and  C_2
REMARK    2  A    between atoms: C_2  and  O_3
REMARK    3  A    between atoms: O_3  and  C_4
REMARK    4  A    between atoms: C_4  and  C_6
REMARK    5  A    between atoms: N_16  and  C_17
REMARK    6  A    between atoms: C_22  and  O_23
REMARK    7  A    between atoms: O_23  and  C_24
REMARK                            x       y       z     vdW  Elec       q    Type
REMARK                         _______ _______ _______ _____ _____    ______ ____
ROOT
ATOM      1  C   UNL     1      -1.178  12.312  20.266  0.00  0.00    +0.000 C 
ATOM      2  C   UNL     1      -1.106  13.866  20.237  0.00  0.00    +0.000 C 
ATOM      3  C   UNL     1      -2.504  14.286  20.583  0.00  0.00    +0.000 A 
ATOM      4  C   UNL     1      -2.944  15.560  20.903  0.00  0.00    +0.000 A 
ATOM      5  C   UNL     1      -4.308  15.753  21.140  0.00  0.00    +0.000 A 
ATOM      6 CL   UNL     1      -4.895  17.332  21.499  0.00  0.00    +0.000 Cl
ATOM      7  C   UNL     1      -5.207  14.681  21.077  0.00  0.00    +0.000 A 
ATOM      8  C   UNL     1      -4.746  13.395  20.776  0.00  0.00    +0.000 A 
ATOM      9  C   UNL     1      -3.393  13.213  20.506  0.00  0.00    +0.000 A 
ATOM     10  C   UNL     1      -2.697  11.948  20.077  0.00  0.00    +0.000 C 
ATOM     11  N   UNL     1      -2.967  11.541  18.689  0.00  0.00    +0.000 N 
ATOM     12  C   UNL     1      -4.226  11.798  18.008  0.00  0.00    +0.000 C 
ATOM     13  C   UNL     1      -2.231  10.459  18.206  0.00  0.00    +0.000 C 
ATOM     14  O   UNL     1      -2.681   9.586  17.466  0.00  0.00    +0.000 OA
ATOM     15  C   UNL     1      -0.777  10.549  18.479  0.00  0.00    +0.000 A 
ATOM     16  C   UNL     1       0.094   9.644  17.869  0.00  0.00    +0.000 A 
ATOM     17  C   UNL     1       1.466   9.871  17.905  0.00  0.00    +0.000 A 
ATOM     18  C   UNL     1       1.948  11.048  18.474  0.00  0.00    +0.000 A 
ATOM     19  C   UNL     1       1.083  11.923  19.137  0.00  0.00    +0.000 A 
ATOM     20  C   UNL     1      -0.290  11.642  19.219  0.00  0.00    +0.000 A 
ENDROOT
BRANCH   1  21
ATOM     21  C   UNL     1      -0.610  11.821  21.623  0.00  0.00    +0.000 C 
ATOM     22  O   UNL     1       0.113  12.508  22.340  0.00  0.00    +0.000 OA
BRANCH  21  23
ATOM     23  O   UNL     1      -0.772  10.474  21.789  0.00  0.00    +0.000 OA
BRANCH  23  25
ATOM     24  C   UNL     1       0.893   8.685  21.455  0.00  0.00    +0.000 C 
ATOM     25  C   UNL     1       0.353   9.777  22.361  0.00  0.00    +0.000 C 
ENDBRANCH  23  25
ENDBRANCH  21  23
ENDBRANCH   1  21
BRANCH  17  26
ATOM     26  O   UNL     1       2.233   8.884  17.348  0.00  0.00    +0.000 OA
ATOM     27  C   UNL     1       2.565   7.792  18.196  0.00  0.00    +0.000 C 
ENDBRANCH  17  26
TORSDOF 4
ENDMDL
