MODEL 1
REMARK VINA RESULT:      -6.7      0.000      0.000
REMARK  Name = 
REMARK  9 active torsions:
REMARK  status: ('A' for Active; 'I' for Inactive)
REMARK    1  A    between atoms: C_1  and  C_2
REMARK    2  A    between atoms: C_2  and  C_3
REMARK    3  A    between atoms: C_3  and  C_4
REMARK    4  A    between atoms: C_4  and  C_5
REMARK    5  A    between atoms: C_5  and  O_7
REMARK    6  A    between atoms: C_12  and  C_14
REMARK    7  A    between atoms: C_14  and  C_15
REMARK    8  A    between atoms: C_15  and  C_16
REMARK    9  A    between atoms: C_16  and  C_17
REMARK                            x       y       z     vdW  Elec       q    Type
REMARK                         _______ _______ _______ _____ _____    ______ ____
ROOT
ATOM      1  C   UNL     1       6.248   6.000  17.379  0.00  0.00    +0.000 C 
ATOM      2  C   UNL     1       6.042   5.961  15.836  0.00  0.00    +0.000 C 
ATOM      3  C   UNL     1       5.056   4.885  15.363  0.00  0.00    +0.000 C 
ATOM      4  C   UNL     1       5.361   3.514  15.966  0.00  0.00    +0.000 C 
ATOM      5  N   UNL     1       5.532   3.617  17.412  0.00  0.00    +0.000 N 
ATOM      6  C   UNL     1       4.766   2.994  18.388  0.00  0.00    +0.000 C 
ATOM      7  O   UNL     1       4.987   3.181  19.587  0.00  0.00    +0.000 OA
ATOM      8  C   UNL     1       6.574   4.558  17.830  0.00  0.00    +0.000 C 
ENDROOT
BRANCH   1   9
ATOM      9  C   UNL     1       7.473   6.867  17.695  0.00  0.00    +0.000 C 
ATOM     10  O   UNL     1       7.933   7.705  16.934  0.00  0.00    +0.000 OA
BRANCH   9  11
ATOM     11  O   UNL     1       8.031   6.649  18.909  0.00  0.00    +0.000 OA
ATOM     12  H   UNL     1       8.739   7.263  19.182  0.00  0.00    +0.000 HD
ENDBRANCH   9  11
ENDBRANCH   1   9
BRANCH   1  13
ATOM     13  C   UNL     1       4.997   6.542  18.132  0.00  0.00    +0.000 C 
BRANCH  13  15
ATOM     14  C   UNL     1       2.733   7.653  18.010  0.00  0.00    +0.000 C 
ATOM     15  C   UNL     1       4.068   7.442  17.304  0.00  0.00    +0.000 C 
ENDBRANCH  13  15
ENDBRANCH   1  13
BRANCH   6  16
ATOM     16  C   UNL     1       3.649   2.060  17.946  0.00  0.00    +0.000 C 
BRANCH  16  17
ATOM     17  C   UNL     1       2.395   2.825  17.511  0.00  0.00    +0.000 C 
BRANCH  17  18
ATOM     18  C   UNL     1       1.270   2.674  18.542  0.00  0.00    +0.000 C 
BRANCH  18  19
ATOM     19  C   UNL     1       1.619   3.265  19.863  0.00  0.00    +0.000 A 
ATOM     20  C   UNL     1       1.737   2.595  21.100  0.00  0.00    +0.000 A 
ATOM     21  N   UNL     1       2.090   3.415  22.093  0.00  0.00    +0.000 NA
ATOM     22  N   UNL     1       2.195   4.611  21.494  0.00  0.00    +0.000 N 
ATOM     23  C   UNL     1       1.923   4.575  20.158  0.00  0.00    +0.000 A 
ATOM     24  H   UNL     1       2.462   5.409  22.060  0.00  0.00    +0.000 HD
ENDBRANCH  18  19
ENDBRANCH  17  18
ENDBRANCH  16  17
ENDBRANCH   6  16
TORSDOF 8
ENDMDL
MODEL 2
REMARK VINA RESULT:      -6.5      1.704      2.324
REMARK  Name = 
REMARK  9 active torsions:
REMARK  status: ('A' for Active; 'I' for Inactive)
REMARK    1  A    between atoms: C_1  and  C_2
REMARK    2  A    between atoms: C_2  and  C_3
REMARK    3  A    between atoms: C_3  and  C_4
REMARK    4  A    between atoms: C_4  and  C_5
REMARK    5  A    between atoms: C_5  and  O_7
REMARK    6  A    between atoms: C_12  and  C_14
REMARK    7  A    between atoms: C_14  and  C_15
REMARK    8  A    between atoms: C_15  and  C_16
REMARK    9  A    between atoms: C_16  and  C_17
REMARK                            x       y       z     vdW  Elec       q    Type
REMARK                         _______ _______ _______ _____ _____    ______ ____
ROOT
ATOM      1  C   UNL     1       6.703   5.066  17.851  0.00  0.00    +0.000 C 
ATOM      2  C   UNL     1       6.657   4.380  16.453  0.00  0.00    +0.000 C 
ATOM      3  C   UNL     1       5.251   4.289  15.847  0.00  0.00    +0.000 C 
ATOM      4  C   UNL     1       4.230   3.720  16.832  0.00  0.00    +0.000 C 
ATOM      5  N   UNL     1       4.317   4.410  18.116  0.00  0.00    +0.000 N 
ATOM      6  C   UNL     1       3.318   5.148  18.734  0.00  0.00    +0.000 C 
ATOM      7  O   UNL     1       3.518   5.715  19.811  0.00  0.00    +0.000 OA
ATOM      8  C   UNL     1       5.645   4.366  18.734  0.00  0.00    +0.000 C 
ENDROOT
BRANCH   1   9
ATOM      9  C   UNL     1       8.074   4.805  18.487  0.00  0.00    +0.000 C 
ATOM     10  O   UNL     1       8.917   4.057  18.014  0.00  0.00    +0.000 OA
BRANCH   9  11
ATOM     11  O   UNL     1       8.310   5.479  19.637  0.00  0.00    +0.000 OA
ATOM     12  H   UNL     1       7.926   5.103  20.452  0.00  0.00    +0.000 HD
ENDBRANCH   9  11
ENDBRANCH   1   9
BRANCH   1  13
ATOM     13  C   UNL     1       6.429   6.596  17.772  0.00  0.00    +0.000 C 
BRANCH  13  15
ATOM     14  C   UNL     1       8.025   8.550  17.878  0.00  0.00    +0.000 C 
ATOM     15  C   UNL     1       7.484   7.416  17.015  0.00  0.00    +0.000 C 
ENDBRANCH  13  15
ENDBRANCH   1  13
BRANCH   6  16
ATOM     16  C   UNL     1       1.957   5.234  18.058  0.00  0.00    +0.000 C 
BRANCH  16  17
ATOM     17  C   UNL     1       1.409   3.853  17.685  0.00  0.00    +0.000 C 
BRANCH  17  18
ATOM     18  C   UNL     1       0.600   3.249  18.839  0.00  0.00    +0.000 C 
BRANCH  18  19
ATOM     19  C   UNL     1       1.424   3.015  20.056  0.00  0.00    +0.000 A 
ATOM     20  C   UNL     1       2.592   2.229  20.166  0.00  0.00    +0.000 A 
ATOM     21  N   UNL     1       3.107   2.248  21.398  0.00  0.00    +0.000 NA
ATOM     22  N   UNL     1       2.268   3.042  22.079  0.00  0.00    +0.000 N 
ATOM     23  C   UNL     1       1.242   3.527  21.321  0.00  0.00    +0.000 A 
ATOM     24  H   UNL     1       2.459   3.213  23.061  0.00  0.00    +0.000 HD
ENDBRANCH  18  19
ENDBRANCH  17  18
ENDBRANCH  16  17
ENDBRANCH   6  16
TORSDOF 8
ENDMDL
MODEL 3
REMARK VINA RESULT:      -6.5      0.252      1.054
REMARK  Name = 
REMARK  9 active torsions:
REMARK  status: ('A' for Active; 'I' for Inactive)
REMARK    1  A    between atoms: C_1  and  C_2
REMARK    2  A    between atoms: C_2  and  C_3
REMARK    3  A    between atoms: C_3  and  C_4
REMARK    4  A    between atoms: C_4  and  C_5
REMARK    5  A    between atoms: C_5  and  O_7
REMARK    6  A    between atoms: C_12  and  C_14
REMARK    7  A    between atoms: C_14  and  C_15
REMARK    8  A    between atoms: C_15  and  C_16
REMARK    9  A    between atoms: C_16  and  C_17
REMARK                            x       y       z     vdW  Elec       q    Type
REMARK                         _______ _______ _______ _____ _____    ______ ____
ROOT
ATOM      1  C   UNL     1       6.235   6.148  17.499  0.00  0.00    +0.000 C 
ATOM      2  C   UNL     1       6.044   6.190  15.955  0.00  0.00    +0.000 C 
ATOM      3  C   UNL     1       5.067   5.137  15.416  0.00  0.00    +0.000 C 
ATOM      4  C   UNL     1       5.371   3.737  15.950  0.00  0.00    +0.000 C 
ATOM      5  N   UNL     1       5.528   3.764  17.401  0.00  0.00    +0.000 N 
ATOM      6  C   UNL     1       4.755   3.089  18.335  0.00  0.00    +0.000 C 
ATOM      7  O   UNL     1       4.964   3.214  19.544  0.00  0.00    +0.000 OA
ATOM      8  C   UNL     1       6.563   4.686  17.877  0.00  0.00    +0.000 C 
ENDROOT
BRANCH   1   9
ATOM      9  C   UNL     1       7.453   7.002  17.873  0.00  0.00    +0.000 C 
ATOM     10  O   UNL     1       8.174   6.781  18.835  0.00  0.00    +0.000 OA
BRANCH   9  11
ATOM     11  O   UNL     1       7.699   8.044  17.045  0.00  0.00    +0.000 OA
ATOM     12  H   UNL     1       7.187   8.859  17.203  0.00  0.00    +0.000 HD
ENDBRANCH   9  11
ENDBRANCH   1   9
BRANCH   1  13
ATOM     13  C   UNL     1       4.975   6.646  18.268  0.00  0.00    +0.000 C 
BRANCH  13  15
ATOM     14  C   UNL     1       2.909   8.044  17.880  0.00  0.00    +0.000 C 
ATOM     15  C   UNL     1       3.714   6.837  17.413  0.00  0.00    +0.000 C 
ENDBRANCH  13  15
ENDBRANCH   1  13
BRANCH   6  16
ATOM     16  C   UNL     1       3.646   2.176  17.834  0.00  0.00    +0.000 C 
BRANCH  16  17
ATOM     17  C   UNL     1       2.379   2.954  17.467  0.00  0.00    +0.000 C 
BRANCH  17  18
ATOM     18  C   UNL     1       1.260   2.701  18.485  0.00  0.00    +0.000 C 
BRANCH  18  19
ATOM     19  C   UNL     1       1.602   3.191  19.847  0.00  0.00    +0.000 A 
ATOM     20  C   UNL     1       1.890   4.518  20.236  0.00  0.00    +0.000 A 
ATOM     21  N   UNL     1       2.135   4.626  21.544  0.00  0.00    +0.000 NA
ATOM     22  N   UNL     1       2.005   3.369  21.995  0.00  0.00    +0.000 N 
ATOM     23  C   UNL     1       1.687   2.471  21.018  0.00  0.00    +0.000 A 
ATOM     24  H   UNL     1       2.145   3.197  22.984  0.00  0.00    +0.000 HD
ENDBRANCH  18  19
ENDBRANCH  17  18
ENDBRANCH  16  17
ENDBRANCH   6  16
TORSDOF 8
ENDMDL
MODEL 4
REMARK VINA RESULT:      -6.3      2.542      6.601
REMARK  Name = 
REMARK  9 active torsions:
REMARK  status: ('A' for Active; 'I' for Inactive)
REMARK    1  A    between atoms: C_1  and  C_2
REMARK    2  A    between atoms: C_2  and  C_3
REMARK    3  A    between atoms: C_3  and  C_4
REMARK    4  A    between atoms: C_4  and  C_5
REMARK    5  A    between atoms: C_5  and  O_7
REMARK    6  A    between atoms: C_12  and  C_14
REMARK    7  A    between atoms: C_14  and  C_15
REMARK    8  A    between atoms: C_15  and  C_16
REMARK    9  A    between atoms: C_16  and  C_17
REMARK                            x       y       z     vdW  Elec       q    Type
REMARK                         _______ _______ _______ _____ _____    ______ ____
ROOT
ATOM      1  C   UNL     1       2.502   3.502  19.958  0.00  0.00    +0.000 C 
ATOM      2  C   UNL     1       1.317   3.760  18.981  0.00  0.00    +0.000 C 
ATOM      3  C   UNL     1       1.696   4.582  17.743  0.00  0.00    +0.000 C 
ATOM      4  C   UNL     1       2.468   5.850  18.103  0.00  0.00    +0.000 C 
ATOM      5  N   UNL     1       3.569   5.540  19.011  0.00  0.00    +0.000 N 
ATOM      6  C   UNL     1       4.923   5.735  18.776  0.00  0.00    +0.000 C 
ATOM      7  O   UNL     1       5.768   5.404  19.611  0.00  0.00    +0.000 OA
ATOM      8  C   UNL     1       3.158   4.871  20.248  0.00  0.00    +0.000 C 
ENDROOT
BRANCH   1   9
ATOM      9  C   UNL     1       1.944   2.972  21.286  0.00  0.00    +0.000 C 
ATOM     10  O   UNL     1       2.632   2.724  22.266  0.00  0.00    +0.000 OA
BRANCH   9  11
ATOM     11  O   UNL     1       0.603   2.796  21.315  0.00  0.00    +0.000 OA
ATOM     12  H   UNL     1       0.163   2.924  22.176  0.00  0.00    +0.000 HD
ENDBRANCH   9  11
ENDBRANCH   1   9
BRANCH   1  13
ATOM     13  C   UNL     1       3.545   2.503  19.378  0.00  0.00    +0.000 C 
BRANCH  13  15
ATOM     14  C   UNL     1       4.104   2.104  16.948  0.00  0.00    +0.000 C 
ATOM     15  C   UNL     1       3.130   1.796  18.079  0.00  0.00    +0.000 C 
ENDBRANCH  13  15
ENDBRANCH   1  13
BRANCH   6  16
ATOM     16  C   UNL     1       5.345   6.381  17.464  0.00  0.00    +0.000 C 
BRANCH  16  17
ATOM     17  C   UNL     1       5.161   5.438  16.271  0.00  0.00    +0.000 C 
BRANCH  17  18
ATOM     18  C   UNL     1       6.463   4.692  15.950  0.00  0.00    +0.000 C 
BRANCH  18  19
ATOM     19  C   UNL     1       6.663   4.488  14.490  0.00  0.00    +0.000 A 
ATOM     20  C   UNL     1       7.582   5.151  13.647  0.00  0.00    +0.000 A 
ATOM     21  N   UNL     1       7.525   4.716  12.386  0.00  0.00    +0.000 NA
ATOM     22  N   UNL     1       6.568   3.776  12.419  0.00  0.00    +0.000 N 
ATOM     23  C   UNL     1       6.019   3.602  13.656  0.00  0.00    +0.000 A 
ATOM     24  H   UNL     1       6.342   3.290  11.558  0.00  0.00    +0.000 HD
ENDBRANCH  18  19
ENDBRANCH  17  18
ENDBRANCH  16  17
ENDBRANCH   6  16
TORSDOF 8
ENDMDL
MODEL 5
REMARK VINA RESULT:      -6.3      2.334      6.397
REMARK  Name = 
REMARK  9 active torsions:
REMARK  status: ('A' for Active; 'I' for Inactive)
REMARK    1  A    between atoms: C_1  and  C_2
REMARK    2  A    between atoms: C_2  and  C_3
REMARK    3  A    between atoms: C_3  and  C_4
REMARK    4  A    between atoms: C_4  and  C_5
REMARK    5  A    between atoms: C_5  and  O_7
REMARK    6  A    between atoms: C_12  and  C_14
REMARK    7  A    between atoms: C_14  and  C_15
REMARK    8  A    between atoms: C_15  and  C_16
REMARK    9  A    between atoms: C_16  and  C_17
REMARK                            x       y       z     vdW  Elec       q    Type
REMARK                         _______ _______ _______ _____ _____    ______ ____
ROOT
ATOM      1  C   UNL     1       2.479   3.623  20.028  0.00  0.00    +0.000 C 
ATOM      2  C   UNL     1       1.329   3.826  18.998  0.00  0.00    +0.000 C 
ATOM      3  C   UNL     1       1.759   4.548  17.715  0.00  0.00    +0.000 C 
ATOM      4  C   UNL     1       2.543   5.828  18.005  0.00  0.00    +0.000 C 
ATOM      5  N   UNL     1       3.610   5.569  18.968  0.00  0.00    +0.000 N 
ATOM      6  C   UNL     1       4.974   5.725  18.762  0.00  0.00    +0.000 C 
ATOM      7  O   UNL     1       5.787   5.443  19.645  0.00  0.00    +0.000 OA
ATOM      8  C   UNL     1       3.150   5.000  20.237  0.00  0.00    +0.000 C 
ENDROOT
BRANCH   1   9
ATOM      9  C   UNL     1       1.872   3.201  21.373  0.00  0.00    +0.000 C 
ATOM     10  O   UNL     1       2.461   3.274  22.441  0.00  0.00    +0.000 OA
BRANCH   9  11
ATOM     11  O   UNL     1       0.603   2.736  21.309  0.00  0.00    +0.000 OA
ATOM     12  H   UNL     1       0.208   2.423  22.144  0.00  0.00    +0.000 HD
ENDBRANCH   9  11
ENDBRANCH   1   9
BRANCH   1  13
ATOM     13  C   UNL     1       3.522   2.568  19.556  0.00  0.00    +0.000 C 
BRANCH  13  15
ATOM     14  C   UNL     1       3.982   2.024  17.133  0.00  0.00    +0.000 C 
ATOM     15  C   UNL     1       3.103   1.724  18.342  0.00  0.00    +0.000 C 
ENDBRANCH  13  15
ENDBRANCH   1  13
BRANCH   6  16
ATOM     16  C   UNL     1       5.447   6.265  17.420  0.00  0.00    +0.000 C 
BRANCH  16  17
ATOM     17  C   UNL     1       6.961   6.118  17.240  0.00  0.00    +0.000 C 
BRANCH  17  18
ATOM     18  C   UNL     1       7.323   4.719  16.725  0.00  0.00    +0.000 C 
BRANCH  18  19
ATOM     19  C   UNL     1       6.985   4.532  15.288  0.00  0.00    +0.000 A 
ATOM     20  C   UNL     1       5.980   3.704  14.742  0.00  0.00    +0.000 A 
ATOM     21  N   UNL     1       5.921   3.782  13.411  0.00  0.00    +0.000 NA
ATOM     22  N   UNL     1       6.889   4.658  13.102  0.00  0.00    +0.000 N 
ATOM     23  C   UNL     1       7.557   5.136  14.191  0.00  0.00    +0.000 A 
ATOM     24  H   UNL     1       7.036   4.886  12.125  0.00  0.00    +0.000 HD
ENDBRANCH  18  19
ENDBRANCH  17  18
ENDBRANCH  16  17
ENDBRANCH   6  16
TORSDOF 8
ENDMDL
MODEL 6
REMARK VINA RESULT:      -6.3      3.134      6.026
REMARK  Name = 
REMARK  9 active torsions:
REMARK  status: ('A' for Active; 'I' for Inactive)
REMARK    1  A    between atoms: C_1  and  C_2
REMARK    2  A    between atoms: C_2  and  C_3
REMARK    3  A    between atoms: C_3  and  C_4
REMARK    4  A    between atoms: C_4  and  C_5
REMARK    5  A    between atoms: C_5  and  O_7
REMARK    6  A    between atoms: C_12  and  C_14
REMARK    7  A    between atoms: C_14  and  C_15
REMARK    8  A    between atoms: C_15  and  C_16
REMARK    9  A    between atoms: C_16  and  C_17
REMARK                            x       y       z     vdW  Elec       q    Type
REMARK                         _______ _______ _______ _____ _____    ______ ____
ROOT
ATOM      1  C   UNL     1       3.518   4.191  19.275  0.00  0.00    +0.000 C 
ATOM      2  C   UNL     1       2.564   4.120  20.503  0.00  0.00    +0.000 C 
ATOM      3  C   UNL     1       1.502   5.226  20.535  0.00  0.00    +0.000 C 
ATOM      4  C   UNL     1       2.105   6.614  20.319  0.00  0.00    +0.000 C 
ATOM      5  N   UNL     1       2.979   6.617  19.149  0.00  0.00    +0.000 N 
ATOM      6  C   UNL     1       2.826   7.374  17.997  0.00  0.00    +0.000 C 
ATOM      7  O   UNL     1       3.617   7.269  17.056  0.00  0.00    +0.000 OA
ATOM      8  C   UNL     1       4.065   5.635  19.208  0.00  0.00    +0.000 C 
ENDROOT
BRANCH   1   9
ATOM      9  C   UNL     1       4.713   3.260  19.519  0.00  0.00    +0.000 C 
ATOM     10  O   UNL     1       4.688   2.298  20.274  0.00  0.00    +0.000 OA
BRANCH   9  11
ATOM     11  O   UNL     1       5.832   3.570  18.825  0.00  0.00    +0.000 OA
ATOM     12  H   UNL     1       5.713   3.819  17.889  0.00  0.00    +0.000 HD
ENDBRANCH   9  11
ENDBRANCH   1   9
BRANCH   1  13
ATOM     13  C   UNL     1       2.805   3.810  17.944  0.00  0.00    +0.000 C 
BRANCH  13  15
ATOM     14  C   UNL     1       0.940   2.213  18.532  0.00  0.00    +0.000 C 
ATOM     15  C   UNL     1       2.299   2.363  17.859  0.00  0.00    +0.000 C 
ENDBRANCH  13  15
ENDBRANCH   1  13
BRANCH   6  16
ATOM     16  C   UNL     1       1.663   8.353  17.921  0.00  0.00    +0.000 C 
BRANCH  16  17
ATOM     17  C   UNL     1       2.118   9.805  18.101  0.00  0.00    +0.000 C 
BRANCH  17  18
ATOM     18  C   UNL     1       0.928  10.722  18.412  0.00  0.00    +0.000 C 
BRANCH  18  19
ATOM     19  C   UNL     1       0.525  10.673  19.844  0.00  0.00    +0.000 A 
ATOM     20  C   UNL     1       0.927  11.544  20.880  0.00  0.00    +0.000 A 
ATOM     21  N   UNL     1       0.362  11.239  22.051  0.00  0.00    +0.000 NA
ATOM     22  N   UNL     1      -0.399  10.172  21.767  0.00  0.00    +0.000 N 
ATOM     23  C   UNL     1      -0.337   9.792  20.458  0.00  0.00    +0.000 A 
ATOM     24  H   UNL     1      -0.939   9.754  22.517  0.00  0.00    +0.000 HD
ENDBRANCH  18  19
ENDBRANCH  17  18
ENDBRANCH  16  17
ENDBRANCH   6  16
TORSDOF 8
ENDMDL
MODEL 7
REMARK VINA RESULT:      -6.3      3.404      5.796
REMARK  Name = 
REMARK  9 active torsions:
REMARK  status: ('A' for Active; 'I' for Inactive)
REMARK    1  A    between atoms: C_1  and  C_2
REMARK    2  A    between atoms: C_2  and  C_3
REMARK    3  A    between atoms: C_3  and  C_4
REMARK    4  A    between atoms: C_4  and  C_5
REMARK    5  A    between atoms: C_5  and  O_7
REMARK    6  A    between atoms: C_12  and  C_14
REMARK    7  A    between atoms: C_14  and  C_15
REMARK    8  A    between atoms: C_15  and  C_16
REMARK    9  A    between atoms: C_16  and  C_17
REMARK                            x       y       z     vdW  Elec       q    Type
REMARK                         _______ _______ _______ _____ _____    ______ ____
ROOT
ATOM      1  C   UNL     1       3.788   4.768  18.979  0.00  0.00    +0.000 C 
ATOM      2  C   UNL     1       2.893   4.432  20.208  0.00  0.00    +0.000 C 
ATOM      3  C   UNL     1       1.672   5.348  20.362  0.00  0.00    +0.000 C 
ATOM      4  C   UNL     1       2.042   6.828  20.272  0.00  0.00    +0.000 C 
ATOM      5  N   UNL     1       2.870   7.079  19.096  0.00  0.00    +0.000 N 
ATOM      6  C   UNL     1       2.566   7.906  18.023  0.00  0.00    +0.000 C 
ATOM      7  O   UNL     1       3.336   8.015  17.066  0.00  0.00    +0.000 OA
ATOM      8  C   UNL     1       4.098   6.281  19.044  0.00  0.00    +0.000 C 
ENDROOT
BRANCH   1   9
ATOM      9  C   UNL     1       5.120   4.022  19.116  0.00  0.00    +0.000 C 
ATOM     10  O   UNL     1       6.198   4.474  18.758  0.00  0.00    +0.000 OA
BRANCH   9  11
ATOM     11  O   UNL     1       5.035   2.795  19.681  0.00  0.00    +0.000 OA
ATOM     12  H   UNL     1       4.603   2.098  19.152  0.00  0.00    +0.000 HD
ENDBRANCH   9  11
ENDBRANCH   1   9
BRANCH   1  13
ATOM     13  C   UNL     1       3.104   4.404  17.629  0.00  0.00    +0.000 C 
BRANCH  13  15
ATOM     14  C   UNL     1       2.404   1.978  17.666  0.00  0.00    +0.000 C 
ATOM     15  C   UNL     1       1.926   3.424  17.729  0.00  0.00    +0.000 C 
ENDBRANCH  13  15
ENDBRANCH   1  13
BRANCH   6  16
ATOM     16  C   UNL     1       1.262   8.689  18.059  0.00  0.00    +0.000 C 
BRANCH  16  17
ATOM     17  C   UNL     1       1.240   9.721  19.191  0.00  0.00    +0.000 C 
BRANCH  17  18
ATOM     18  C   UNL     1      -0.192   9.968  19.685  0.00  0.00    +0.000 C 
BRANCH  18  19
ATOM     19  C   UNL     1      -0.295   9.965  21.169  0.00  0.00    +0.000 A 
ATOM     20  C   UNL     1      -0.388  11.083  22.027  0.00  0.00    +0.000 A 
ATOM     21  N   UNL     1      -0.493  10.734  23.312  0.00  0.00    +0.000 NA
ATOM     22  N   UNL     1      -0.465   9.393  23.279  0.00  0.00    +0.000 N 
ATOM     23  C   UNL     1      -0.347   8.883  22.019  0.00  0.00    +0.000 A 
ATOM     24  H   UNL     1      -0.534   8.889  24.156  0.00  0.00    +0.000 HD
ENDBRANCH  18  19
ENDBRANCH  17  18
ENDBRANCH  16  17
ENDBRANCH   6  16
TORSDOF 8
ENDMDL
MODEL 8
REMARK VINA RESULT:      -6.3      3.806      6.594
REMARK  Name = 
REMARK  9 active torsions:
REMARK  status: ('A' for Active; 'I' for Inactive)
REMARK    1  A    between atoms: C_1  and  C_2
REMARK    2  A    between atoms: C_2  and  C_3
REMARK    3  A    between atoms: C_3  and  C_4
REMARK    4  A    between atoms: C_4  and  C_5
REMARK    5  A    between atoms: C_5  and  O_7
REMARK    6  A    between atoms: C_12  and  C_14
REMARK    7  A    between atoms: C_14  and  C_15
REMARK    8  A    between atoms: C_15  and  C_16
REMARK    9  A    between atoms: C_16  and  C_17
REMARK                            x       y       z     vdW  Elec       q    Type
REMARK                         _______ _______ _______ _____ _____    ______ ____
ROOT
ATOM      1  C   UNL     1       3.472   4.129  19.338  0.00  0.00    +0.000 C 
ATOM      2  C   UNL     1       2.542   3.947  20.572  0.00  0.00    +0.000 C 
ATOM      3  C   UNL     1       1.456   5.023  20.701  0.00  0.00    +0.000 C 
ATOM      4  C   UNL     1       2.022   6.437  20.575  0.00  0.00    +0.000 C 
ATOM      5  N   UNL     1       2.876   6.544  19.395  0.00  0.00    +0.000 N 
ATOM      6  C   UNL     1       2.685   7.378  18.303  0.00  0.00    +0.000 C 
ATOM      7  O   UNL     1       3.461   7.359  17.344  0.00  0.00    +0.000 OA
ATOM      8  C   UNL     1       3.985   5.587  19.366  0.00  0.00    +0.000 C 
ENDROOT
BRANCH   1   9
ATOM      9  C   UNL     1       4.692   3.213  19.496  0.00  0.00    +0.000 C 
ATOM     10  O   UNL     1       4.728   2.242  20.239  0.00  0.00    +0.000 OA
BRANCH   9  11
ATOM     11  O   UNL     1       5.762   3.545  18.736  0.00  0.00    +0.000 OA
ATOM     12  H   UNL     1       5.879   4.493  18.535  0.00  0.00    +0.000 HD
ENDBRANCH   9  11
ENDBRANCH   1   9
BRANCH   1  13
ATOM     13  C   UNL     1       2.745   3.827  17.995  0.00  0.00    +0.000 C 
BRANCH  13  15
ATOM     14  C   UNL     1       0.884   2.195  18.494  0.00  0.00    +0.000 C 
ATOM     15  C   UNL     1       2.241   2.386  17.827  0.00  0.00    +0.000 C 
ENDBRANCH  13  15
ENDBRANCH   1  13
BRANCH   6  16
ATOM     16  C   UNL     1       1.499   8.331  18.316  0.00  0.00    +0.000 C 
BRANCH  16  17
ATOM     17  C   UNL     1       1.907   9.767  17.972  0.00  0.00    +0.000 C 
BRANCH  17  18
ATOM     18  C   UNL     1       1.342  10.762  18.992  0.00  0.00    +0.000 C 
BRANCH  18  19
ATOM     19  C   UNL     1       0.051  11.360  18.556  0.00  0.00    +0.000 A 
ATOM     20  C   UNL     1      -1.125  10.680  18.171  0.00  0.00    +0.000 A 
ATOM     21  N   UNL     1      -2.119  11.515  17.858  0.00  0.00    +0.000 NA
ATOM     22  N   UNL     1      -1.581  12.730  18.040  0.00  0.00    +0.000 N 
ATOM     23  C   UNL     1      -0.283  12.693  18.458  0.00  0.00    +0.000 A 
ATOM     24  H   UNL     1      -2.161  13.543  17.863  0.00  0.00    +0.000 HD
ENDBRANCH  18  19
ENDBRANCH  17  18
ENDBRANCH  16  17
ENDBRANCH   6  16
TORSDOF 8
ENDMDL
MODEL 9
REMARK VINA RESULT:      -6.3      3.107      6.064
REMARK  Name = 
REMARK  9 active torsions:
REMARK  status: ('A' for Active; 'I' for Inactive)
REMARK    1  A    between atoms: C_1  and  C_2
REMARK    2  A    between atoms: C_2  and  C_3
REMARK    3  A    between atoms: C_3  and  C_4
REMARK    4  A    between atoms: C_4  and  C_5
REMARK    5  A    between atoms: C_5  and  O_7
REMARK    6  A    between atoms: C_12  and  C_14
REMARK    7  A    between atoms: C_14  and  C_15
REMARK    8  A    between atoms: C_15  and  C_16
REMARK    9  A    between atoms: C_16  and  C_17
REMARK                            x       y       z     vdW  Elec       q    Type
REMARK                         _______ _______ _______ _____ _____    ______ ____
ROOT
ATOM      1  C   UNL     1       3.220   2.863  19.099  0.00  0.00    +0.000 C 
ATOM      2  C   UNL     1       1.800   2.454  19.589  0.00  0.00    +0.000 C 
ATOM      3  C   UNL     1       0.816   3.626  19.702  0.00  0.00    +0.000 C 
ATOM      4  C   UNL     1       1.406   4.805  20.477  0.00  0.00    +0.000 C 
ATOM      5  N   UNL     1       2.730   5.144  19.964  0.00  0.00    +0.000 N 
ATOM      6  C   UNL     1       3.119   6.348  19.395  0.00  0.00    +0.000 C 
ATOM      7  O   UNL     1       4.265   6.510  18.967  0.00  0.00    +0.000 OA
ATOM      8  C   UNL     1       3.687   4.036  19.991  0.00  0.00    +0.000 C 
ENDROOT
BRANCH   1   9
ATOM      9  C   UNL     1       4.184   1.694  19.340  0.00  0.00    +0.000 C 
ATOM     10  O   UNL     1       5.029   1.674  20.222  0.00  0.00    +0.000 OA
BRANCH   9  11
ATOM     11  O   UNL     1       4.036   0.646  18.495  0.00  0.00    +0.000 OA
ATOM     12  H   UNL     1       4.847   0.161  18.252  0.00  0.00    +0.000 HD
ENDBRANCH   9  11
ENDBRANCH   1   9
BRANCH   1  13
ATOM     13  C   UNL     1       3.237   3.272  17.598  0.00  0.00    +0.000 C 
BRANCH  13  15
ATOM     14  C   UNL     1       4.664   4.840  16.225  0.00  0.00    +0.000 C 
ATOM     15  C   UNL     1       4.628   3.527  17.000  0.00  0.00    +0.000 C 
ENDBRANCH  13  15
ENDBRANCH   1  13
BRANCH   6  16
ATOM     16  C   UNL     1       2.102   7.478  19.321  0.00  0.00    +0.000 C 
BRANCH  16  17
ATOM     17  C   UNL     1       1.989   8.062  17.909  0.00  0.00    +0.000 C 
BRANCH  17  18
ATOM     18  C   UNL     1       2.094   9.592  17.934  0.00  0.00    +0.000 C 
BRANCH  18  19
ATOM     19  C   UNL     1       0.868  10.242  18.473  0.00  0.00    +0.000 A 
ATOM     20  C   UNL     1       0.794  11.264  19.444  0.00  0.00    +0.000 A 
ATOM     21  N   UNL     1      -0.462  11.645  19.690  0.00  0.00    +0.000 NA
ATOM     22  N   UNL     1      -1.193  10.866  18.878  0.00  0.00    +0.000 N 
ATOM     23  C   UNL     1      -0.444  10.007  18.129  0.00  0.00    +0.000 A 
ATOM     24  H   UNL     1      -2.201  10.977  18.886  0.00  0.00    +0.000 HD
ENDBRANCH  18  19
ENDBRANCH  17  18
ENDBRANCH  16  17
ENDBRANCH   6  16
TORSDOF 8
ENDMDL
