MODEL 1
REMARK VINA RESULT:      -7.7      0.000      0.000
REMARK  Name = 
REMARK  1 active torsions:
REMARK  status: ('A' for Active; 'I' for Inactive)
REMARK    1  A    between atoms: C_2  and  C_13
REMARK                            x       y       z     vdW  Elec       q    Type
REMARK                         _______ _______ _______ _____ _____    ______ ____
ROOT
ATOM      1  O   UNL     1       1.865   5.730  20.118  0.00  0.00    +0.000 OA
ATOM      2  C   UNL     1       2.466   6.404  19.291  0.00  0.00    +0.000 C 
ATOM      3  N   UNL     1       2.427   7.772  19.168  0.00  0.00    +0.000 N 
ATOM      4  C   UNL     1       1.637   8.517  20.004  0.00  0.00    +0.000 A 
ATOM      5  N   UNL     1       0.990   9.595  19.637  0.00  0.00    +0.000 NA
ATOM      6  C   UNL     1       0.262   9.967  20.742  0.00  0.00    +0.000 A 
ATOM      7  C   UNL     1      -0.711  10.967  20.874  0.00  0.00    +0.000 A 
ATOM      8  C   UNL     1      -1.277  11.184  22.135  0.00  0.00    +0.000 A 
ATOM      9  C   UNL     1      -0.861  10.444  23.246  0.00  0.00    +0.000 A 
ATOM     10  C   UNL     1       0.093   9.424  23.127  0.00  0.00    +0.000 A 
ATOM     11  C   UNL     1       0.599   9.193  21.847  0.00  0.00    +0.000 A 
ATOM     12  N   UNL     1       1.444   8.243  21.335  0.00  0.00    +0.000 N 
ATOM     13  H   UNL     1       2.632   8.204  18.277  0.00  0.00    +0.000 HD
ATOM     14  H   UNL     1       1.855   7.465  21.830  0.00  0.00    +0.000 HD
ENDROOT
BRANCH   2  15
ATOM     15  C   UNL     1       3.308   5.718  18.286  0.00  0.00    +0.000 A 
ATOM     16  C   UNL     1       2.899   4.486  17.755  0.00  0.00    +0.000 A 
ATOM     17  C   UNL     1       3.737   3.798  16.872  0.00  0.00    +0.000 A 
ATOM     18  C   UNL     1       4.986   4.328  16.532  0.00  0.00    +0.000 A 
ATOM     19 CL   UNL     1       5.992   3.407  15.473  0.00  0.00    +0.000 Cl
ATOM     20  C   UNL     1       5.391   5.563  17.061  0.00  0.00    +0.000 A 
ATOM     21 CL   UNL     1       6.926   6.266  16.711  0.00  0.00    +0.000 Cl
ATOM     22  C   UNL     1       4.546   6.262  17.927  0.00  0.00    +0.000 A 
ENDBRANCH   2  15
TORSDOF 1
ENDMDL
MODEL 2
REMARK VINA RESULT:      -7.7      6.868      8.873
REMARK  Name = 
REMARK  1 active torsions:
REMARK  status: ('A' for Active; 'I' for Inactive)
REMARK    1  A    between atoms: C_2  and  C_13
REMARK                            x       y       z     vdW  Elec       q    Type
REMARK                         _______ _______ _______ _____ _____    ______ ____
ROOT
ATOM      1  O   UNL     1       7.441   9.831  17.449  0.00  0.00    +0.000 OA
ATOM      2  C   UNL     1       8.375   9.448  18.141  0.00  0.00    +0.000 C 
ATOM      3  N   UNL     1       8.612   8.159  18.553  0.00  0.00    +0.000 N 
ATOM      4  C   UNL     1       7.743   7.155  18.212  0.00  0.00    +0.000 A 
ATOM      5  N   UNL     1       7.437   6.150  18.995  0.00  0.00    +0.000 NA
ATOM      6  C   UNL     1       6.479   5.444  18.309  0.00  0.00    +0.000 A 
ATOM      7  C   UNL     1       5.701   4.357  18.729  0.00  0.00    +0.000 A 
ATOM      8  C   UNL     1       4.818   3.774  17.812  0.00  0.00    +0.000 A 
ATOM      9  C   UNL     1       4.736   4.244  16.498  0.00  0.00    +0.000 A 
ATOM     10  C   UNL     1       5.489   5.344  16.067  0.00  0.00    +0.000 A 
ATOM     11  C   UNL     1       6.318   5.939  17.019  0.00  0.00    +0.000 A 
ATOM     12  N   UNL     1       7.103   7.064  17.002  0.00  0.00    +0.000 N 
ATOM     13  H   UNL     1       9.154   7.988  19.389  0.00  0.00    +0.000 HD
ATOM     14  H   UNL     1       7.200   7.725  16.245  0.00  0.00    +0.000 HD
ENDROOT
BRANCH   2  15
ATOM     15  C   UNL     1       9.355  10.443  18.631  0.00  0.00    +0.000 A 
ATOM     16  C   UNL     1       9.459  10.703  20.006  0.00  0.00    +0.000 A 
ATOM     17  C   UNL     1      10.323  11.705  20.459  0.00  0.00    +0.000 A 
ATOM     18  C   UNL     1      11.068  12.456  19.545  0.00  0.00    +0.000 A 
ATOM     19 CL   UNL     1      12.081  13.709  20.166  0.00  0.00    +0.000 Cl
ATOM     20  C   UNL     1      10.966  12.191  18.170  0.00  0.00    +0.000 A 
ATOM     21 CL   UNL     1      11.831  13.092  16.982  0.00  0.00    +0.000 Cl
ATOM     22  C   UNL     1      10.119  11.176  17.717  0.00  0.00    +0.000 A 
ENDBRANCH   2  15
TORSDOF 1
ENDMDL
MODEL 3
REMARK VINA RESULT:      -7.7      3.835      7.989
REMARK  Name = 
REMARK  1 active torsions:
REMARK  status: ('A' for Active; 'I' for Inactive)
REMARK    1  A    between atoms: C_2  and  C_13
REMARK                            x       y       z     vdW  Elec       q    Type
REMARK                         _______ _______ _______ _____ _____    ______ ____
ROOT
ATOM      1  O   UNL     1       1.890   9.306  17.473  0.00  0.00    +0.000 OA
ATOM      2  C   UNL     1       1.709   8.864  18.600  0.00  0.00    +0.000 C 
ATOM      3  N   UNL     1       2.242   7.709  19.119  0.00  0.00    +0.000 N 
ATOM      4  C   UNL     1       3.046   6.912  18.347  0.00  0.00    +0.000 A 
ATOM      5  N   UNL     1       3.056   5.604  18.403  0.00  0.00    +0.000 NA
ATOM      6  C   UNL     1       3.924   5.211  17.412  0.00  0.00    +0.000 A 
ATOM      7  C   UNL     1       4.210   3.925  16.936  0.00  0.00    +0.000 A 
ATOM      8  C   UNL     1       5.184   3.785  15.940  0.00  0.00    +0.000 A 
ATOM      9  C   UNL     1       5.878   4.896  15.453  0.00  0.00    +0.000 A 
ATOM     10  C   UNL     1       5.588   6.192  15.901  0.00  0.00    +0.000 A 
ATOM     11  C   UNL     1       4.574   6.306  16.853  0.00  0.00    +0.000 A 
ATOM     12  N   UNL     1       3.957   7.384  17.436  0.00  0.00    +0.000 N 
ATOM     13  H   UNL     1       1.773   7.234  19.878  0.00  0.00    +0.000 HD
ATOM     14  H   UNL     1       4.124   8.360  17.237  0.00  0.00    +0.000 HD
ENDROOT
BRANCH   2  15
ATOM     15  C   UNL     1       0.809   9.596  19.519  0.00  0.00    +0.000 A 
ATOM     16  C   UNL     1       0.098  10.714  19.058  0.00  0.00    +0.000 A 
ATOM     17  C   UNL     1      -0.683  11.456  19.950  0.00  0.00    +0.000 A 
ATOM     18  C   UNL     1      -0.743  11.095  21.299  0.00  0.00    +0.000 A 
ATOM     19 CL   UNL     1      -1.688  12.079  22.357  0.00  0.00    +0.000 Cl
ATOM     20  C   UNL     1      -0.034   9.973  21.757  0.00  0.00    +0.000 A 
ATOM     21 CL   UNL     1      -0.036   9.483  23.410  0.00  0.00    +0.000 Cl
ATOM     22  C   UNL     1       0.730   9.218  20.863  0.00  0.00    +0.000 A 
ENDBRANCH   2  15
TORSDOF 1
ENDMDL
MODEL 4
REMARK VINA RESULT:      -7.6      0.895      1.653
REMARK  Name = 
REMARK  1 active torsions:
REMARK  status: ('A' for Active; 'I' for Inactive)
REMARK    1  A    between atoms: C_2  and  C_13
REMARK                            x       y       z     vdW  Elec       q    Type
REMARK                         _______ _______ _______ _____ _____    ______ ____
ROOT
ATOM      1  O   UNL     1       1.724   5.741  20.444  0.00  0.00    +0.000 OA
ATOM      2  C   UNL     1       2.382   6.360  19.618  0.00  0.00    +0.000 C 
ATOM      3  N   UNL     1       2.383   7.720  19.428  0.00  0.00    +0.000 N 
ATOM      4  C   UNL     1       1.572   8.523  20.187  0.00  0.00    +0.000 A 
ATOM      5  N   UNL     1       0.971   9.597  19.736  0.00  0.00    +0.000 NA
ATOM      6  C   UNL     1       0.198  10.038  20.783  0.00  0.00    +0.000 A 
ATOM      7  C   UNL     1      -0.754  11.065  20.817  0.00  0.00    +0.000 A 
ATOM      8  C   UNL     1      -1.377  11.357  22.036  0.00  0.00    +0.000 A 
ATOM      9  C   UNL     1      -1.035  10.663  23.201  0.00  0.00    +0.000 A 
ATOM     10  C   UNL     1      -0.103   9.617  23.180  0.00  0.00    +0.000 A 
ATOM     11  C   UNL     1       0.460   9.312  21.940  0.00  0.00    +0.000 A 
ATOM     12  N   UNL     1       1.306   8.319  21.517  0.00  0.00    +0.000 N 
ATOM     13  H   UNL     1       2.643   8.104  18.529  0.00  0.00    +0.000 HD
ATOM     14  H   UNL     1       1.672   7.557  22.069  0.00  0.00    +0.000 HD
ENDROOT
BRANCH   2  15
ATOM     15  C   UNL     1       3.255   5.606  18.691  0.00  0.00    +0.000 A 
ATOM     16  C   UNL     1       4.084   6.297  17.795  0.00  0.00    +0.000 A 
ATOM     17  C   UNL     1       4.842   5.584  16.860  0.00  0.00    +0.000 A 
ATOM     18  C   UNL     1       4.762   4.189  16.808  0.00  0.00    +0.000 A 
ATOM     19 CL   UNL     1       5.688   3.372  15.601  0.00  0.00    +0.000 Cl
ATOM     20  C   UNL     1       3.935   3.500  17.709  0.00  0.00    +0.000 A 
ATOM     21 CL   UNL     1       3.763   1.785  17.687  0.00  0.00    +0.000 Cl
ATOM     22  C   UNL     1       3.193   4.209  18.657  0.00  0.00    +0.000 A 
ENDBRANCH   2  15
TORSDOF 1
ENDMDL
MODEL 5
REMARK VINA RESULT:      -7.5      4.049      7.873
REMARK  Name = 
REMARK  1 active torsions:
REMARK  status: ('A' for Active; 'I' for Inactive)
REMARK    1  A    between atoms: C_2  and  C_13
REMARK                            x       y       z     vdW  Elec       q    Type
REMARK                         _______ _______ _______ _____ _____    ______ ____
ROOT
ATOM      1  O   UNL     1       1.843   8.460  19.389  0.00  0.00    +0.000 OA
ATOM      2  C   UNL     1       1.370   8.252  20.499  0.00  0.00    +0.000 C 
ATOM      3  N   UNL     1       1.344   7.049  21.163  0.00  0.00    +0.000 N 
ATOM      4  C   UNL     1       1.859   5.925  20.574  0.00  0.00    +0.000 A 
ATOM      5  N   UNL     1       1.350   4.725  20.710  0.00  0.00    +0.000 NA
ATOM      6  C   UNL     1       2.107   3.922  19.891  0.00  0.00    +0.000 A 
ATOM      7  C   UNL     1       1.924   2.578  19.543  0.00  0.00    +0.000 A 
ATOM      8  C   UNL     1       2.877   1.966  18.720  0.00  0.00    +0.000 A 
ATOM      9  C   UNL     1       4.003   2.668  18.280  0.00  0.00    +0.000 A 
ATOM     10  C   UNL     1       4.190   4.020  18.599  0.00  0.00    +0.000 A 
ATOM     11  C   UNL     1       3.195   4.618  19.374  0.00  0.00    +0.000 A 
ATOM     12  N   UNL     1       2.984   5.909  19.788  0.00  0.00    +0.000 N 
ATOM     13  H   UNL     1       0.639   6.878  21.868  0.00  0.00    +0.000 HD
ATOM     14  H   UNL     1       3.540   6.719  19.559  0.00  0.00    +0.000 HD
ENDROOT
BRANCH   2  15
ATOM     15  C   UNL     1       0.725   9.371  21.222  0.00  0.00    +0.000 A 
ATOM     16  C   UNL     1      -0.010   9.117  22.390  0.00  0.00    +0.000 A 
ATOM     17  C   UNL     1      -0.691  10.162  23.021  0.00  0.00    +0.000 A 
ATOM     18  C   UNL     1      -0.655  11.452  22.482  0.00  0.00    +0.000 A 
ATOM     19 CL   UNL     1      -1.555  12.688  23.285  0.00  0.00    +0.000 Cl
ATOM     20  C   UNL     1       0.084  11.704  21.316  0.00  0.00    +0.000 A 
ATOM     21 CL   UNL     1       0.154  13.260  20.577  0.00  0.00    +0.000 Cl
ATOM     22  C   UNL     1       0.783  10.665  20.695  0.00  0.00    +0.000 A 
ENDBRANCH   2  15
TORSDOF 1
ENDMDL
MODEL 6
REMARK VINA RESULT:      -7.4      3.991      7.989
REMARK  Name = 
REMARK  1 active torsions:
REMARK  status: ('A' for Active; 'I' for Inactive)
REMARK    1  A    between atoms: C_2  and  C_13
REMARK                            x       y       z     vdW  Elec       q    Type
REMARK                         _______ _______ _______ _____ _____    ______ ____
ROOT
ATOM      1  O   UNL     1       1.786   8.947  17.868  0.00  0.00    +0.000 OA
ATOM      2  C   UNL     1       1.829   8.514  19.012  0.00  0.00    +0.000 C 
ATOM      3  N   UNL     1       2.526   7.410  19.441  0.00  0.00    +0.000 N 
ATOM      4  C   UNL     1       3.245   6.659  18.549  0.00  0.00    +0.000 A 
ATOM      5  N   UNL     1       3.360   5.355  18.610  0.00  0.00    +0.000 NA
ATOM      6  C   UNL     1       4.076   5.007  17.490  0.00  0.00    +0.000 A 
ATOM      7  C   UNL     1       4.372   3.737  16.979  0.00  0.00    +0.000 A 
ATOM      8  C   UNL     1       5.173   3.648  15.834  0.00  0.00    +0.000 A 
ATOM      9  C   UNL     1       5.692   4.798  15.231  0.00  0.00    +0.000 A 
ATOM     10  C   UNL     1       5.386   6.077  15.714  0.00  0.00    +0.000 A 
ATOM     11  C   UNL     1       4.541   6.136  16.823  0.00  0.00    +0.000 A 
ATOM     12  N   UNL     1       3.953   7.177  17.494  0.00  0.00    +0.000 N 
ATOM     13  H   UNL     1       2.227   6.916  20.271  0.00  0.00    +0.000 HD
ATOM     14  H   UNL     1       4.012   8.159  17.264  0.00  0.00    +0.000 HD
ENDROOT
BRANCH   2  15
ATOM     15  C   UNL     1       1.045   9.196  20.065  0.00  0.00    +0.000 A 
ATOM     16  C   UNL     1       1.086   8.724  21.385  0.00  0.00    +0.000 A 
ATOM     17  C   UNL     1       0.277   9.315  22.360  0.00  0.00    +0.000 A 
ATOM     18  C   UNL     1      -0.583  10.364  22.018  0.00  0.00    +0.000 A 
ATOM     19 CL   UNL     1      -1.589  11.020  23.258  0.00  0.00    +0.000 Cl
ATOM     20  C   UNL     1      -0.619  10.837  20.697  0.00  0.00    +0.000 A 
ATOM     21 CL   UNL     1      -1.673  12.105  20.193  0.00  0.00    +0.000 Cl
ATOM     22  C   UNL     1       0.203  10.261  19.726  0.00  0.00    +0.000 A 
ENDBRANCH   2  15
TORSDOF 1
ENDMDL
MODEL 7
REMARK VINA RESULT:      -7.4      3.745      7.831
REMARK  Name = 
REMARK  1 active torsions:
REMARK  status: ('A' for Active; 'I' for Inactive)
REMARK    1  A    between atoms: C_2  and  C_13
REMARK                            x       y       z     vdW  Elec       q    Type
REMARK                         _______ _______ _______ _____ _____    ______ ____
ROOT
ATOM      1  O   UNL     1       1.775   6.816  20.942  0.00  0.00    +0.000 OA
ATOM      2  C   UNL     1       1.566   7.854  20.329  0.00  0.00    +0.000 C 
ATOM      3  N   UNL     1       1.995   8.153  19.059  0.00  0.00    +0.000 N 
ATOM      4  C   UNL     1       2.758   7.255  18.359  0.00  0.00    +0.000 A 
ATOM      5  N   UNL     1       3.733   7.591  17.551  0.00  0.00    +0.000 NA
ATOM      6  C   UNL     1       4.282   6.401  17.141  0.00  0.00    +0.000 A 
ATOM      7  C   UNL     1       5.435   6.165  16.381  0.00  0.00    +0.000 A 
ATOM      8  C   UNL     1       5.758   4.844  16.049  0.00  0.00    +0.000 A 
ATOM      9  C   UNL     1       4.933   3.785  16.439  0.00  0.00    +0.000 A 
ATOM     10  C   UNL     1       3.789   3.999  17.219  0.00  0.00    +0.000 A 
ATOM     11  C   UNL     1       3.524   5.321  17.581  0.00  0.00    +0.000 A 
ATOM     12  N   UNL     1       2.584   5.895  18.399  0.00  0.00    +0.000 N 
ATOM     13  H   UNL     1       2.107   9.118  18.778  0.00  0.00    +0.000 HD
ATOM     14  H   UNL     1       1.884   5.418  18.949  0.00  0.00    +0.000 HD
ENDROOT
BRANCH   2  15
ATOM     15  C   UNL     1       0.805   8.935  20.994  0.00  0.00    +0.000 A 
ATOM     16  C   UNL     1       0.647   8.924  22.388  0.00  0.00    +0.000 A 
ATOM     17  C   UNL     1      -0.146   9.897  23.004  0.00  0.00    +0.000 A 
ATOM     18  C   UNL     1      -0.792  10.869  22.233  0.00  0.00    +0.000 A 
ATOM     19 CL   UNL     1      -1.793  12.014  23.051  0.00  0.00    +0.000 Cl
ATOM     20  C   UNL     1      -0.629  10.880  20.839  0.00  0.00    +0.000 A 
ATOM     21 CL   UNL     1      -1.415  12.028  19.821  0.00  0.00    +0.000 Cl
ATOM     22  C   UNL     1       0.179   9.922  20.224  0.00  0.00    +0.000 A 
ENDBRANCH   2  15
TORSDOF 1
ENDMDL
MODEL 8
REMARK VINA RESULT:      -7.3      1.594      2.336
REMARK  Name = 
REMARK  1 active torsions:
REMARK  status: ('A' for Active; 'I' for Inactive)
REMARK    1  A    between atoms: C_2  and  C_13
REMARK                            x       y       z     vdW  Elec       q    Type
REMARK                         _______ _______ _______ _____ _____    ______ ____
ROOT
ATOM      1  O   UNL     1       2.194   7.190  19.923  0.00  0.00    +0.000 OA
ATOM      2  C   UNL     1       2.468   7.417  18.752  0.00  0.00    +0.000 C 
ATOM      3  N   UNL     1       1.997   8.459  17.990  0.00  0.00    +0.000 N 
ATOM      4  C   UNL     1       1.109   9.357  18.523  0.00  0.00    +0.000 A 
ATOM      5  N   UNL     1       0.127   9.906  17.852  0.00  0.00    +0.000 NA
ATOM      6  C   UNL     1      -0.560  10.656  18.776  0.00  0.00    +0.000 A 
ATOM      7  C   UNL     1      -1.773  11.344  18.642  0.00  0.00    +0.000 A 
ATOM      8  C   UNL     1      -2.243  12.086  19.732  0.00  0.00    +0.000 A 
ATOM      9  C   UNL     1      -1.505  12.167  20.917  0.00  0.00    +0.000 A 
ATOM     10  C   UNL     1      -0.302  11.466  21.077  0.00  0.00    +0.000 A 
ATOM     11  C   UNL     1       0.113  10.691  19.993  0.00  0.00    +0.000 A 
ATOM     12  N   UNL     1       1.151   9.811  19.817  0.00  0.00    +0.000 N 
ATOM     13  H   UNL     1       1.965   8.374  16.983  0.00  0.00    +0.000 HD
ATOM     14  H   UNL     1       1.831   9.528  20.507  0.00  0.00    +0.000 HD
ENDROOT
BRANCH   2  15
ATOM     15  C   UNL     1       3.370   6.487  18.036  0.00  0.00    +0.000 A 
ATOM     16  C   UNL     1       4.335   6.991  17.151  0.00  0.00    +0.000 A 
ATOM     17  C   UNL     1       5.126   6.108  16.410  0.00  0.00    +0.000 A 
ATOM     18  C   UNL     1       4.944   4.727  16.537  0.00  0.00    +0.000 A 
ATOM     19 CL   UNL     1       5.921   3.691  15.560  0.00  0.00    +0.000 Cl
ATOM     20  C   UNL     1       3.981   4.225  17.426  0.00  0.00    +0.000 A 
ATOM     21 CL   UNL     1       3.680   2.538  17.616  0.00  0.00    +0.000 Cl
ATOM     22  C   UNL     1       3.204   5.106  18.183  0.00  0.00    +0.000 A 
ENDBRANCH   2  15
TORSDOF 1
ENDMDL
MODEL 9
REMARK VINA RESULT:      -7.0      1.472      2.377
REMARK  Name = 
REMARK  1 active torsions:
REMARK  status: ('A' for Active; 'I' for Inactive)
REMARK    1  A    between atoms: C_2  and  C_13
REMARK                            x       y       z     vdW  Elec       q    Type
REMARK                         _______ _______ _______ _____ _____    ______ ____
ROOT
ATOM      1  O   UNL     1       2.667   9.023  17.665  0.00  0.00    +0.000 OA
ATOM      2  C   UNL     1       2.661   7.932  18.220  0.00  0.00    +0.000 C 
ATOM      3  N   UNL     1       1.957   7.596  19.351  0.00  0.00    +0.000 N 
ATOM      4  C   UNL     1       1.183   8.532  19.986  0.00  0.00    +0.000 A 
ATOM      5  N   UNL     1       1.040   8.607  21.286  0.00  0.00    +0.000 NA
ATOM      6  C   UNL     1       0.270   9.726  21.495  0.00  0.00    +0.000 A 
ATOM      7  C   UNL     1      -0.077  10.358  22.696  0.00  0.00    +0.000 A 
ATOM      8  C   UNL     1      -0.926  11.470  22.644  0.00  0.00    +0.000 A 
ATOM      9  C   UNL     1      -1.442  11.922  21.425  0.00  0.00    +0.000 A 
ATOM     10  C   UNL     1      -1.087  11.317  20.212  0.00  0.00    +0.000 A 
ATOM     11  C   UNL     1      -0.195  10.246  20.292  0.00  0.00    +0.000 A 
ATOM     12  N   UNL     1       0.445   9.491  19.341  0.00  0.00    +0.000 N 
ATOM     13  H   UNL     1       2.278   6.838  19.939  0.00  0.00    +0.000 HD
ATOM     14  H   UNL     1       0.400   9.611  18.340  0.00  0.00    +0.000 HD
ENDROOT
BRANCH   2  15
ATOM     15  C   UNL     1       3.505   6.846  17.673  0.00  0.00    +0.000 A 
ATOM     16  C   UNL     1       4.633   7.160  16.900  0.00  0.00    +0.000 A 
ATOM     17  C   UNL     1       5.377   6.133  16.311  0.00  0.00    +0.000 A 
ATOM     18  C   UNL     1       4.990   4.799  16.477  0.00  0.00    +0.000 A 
ATOM     19 CL   UNL     1       5.925   3.583  15.685  0.00  0.00    +0.000 Cl
ATOM     20  C   UNL     1       3.863   4.489  17.254  0.00  0.00    +0.000 A 
ATOM     21 CL   UNL     1       3.307   2.873  17.481  0.00  0.00    +0.000 Cl
ATOM     22  C   UNL     1       3.130   5.512  17.860  0.00  0.00    +0.000 A 
ENDBRANCH   2  15
TORSDOF 1
ENDMDL
