MODEL 1
REMARK VINA RESULT:      -9.2      0.000      0.000
REMARK  Name = 
REMARK  5 active torsions:
REMARK  status: ('A' for Active; 'I' for Inactive)
REMARK    1  A    between atoms: N_2  and  C_4
REMARK    2  A    between atoms: C_11  and  O_12
REMARK    3  A    between atoms: O_12  and  C_13
REMARK    4  A    between atoms: C_13  and  C_14
REMARK    5  A    between atoms: C_18  and  C_19
REMARK                            x       y       z     vdW  Elec       q    Type
REMARK                         _______ _______ _______ _____ _____    ______ ____
ROOT
ATOM      1  O   UNL     1       3.175   4.845  18.425  0.00  0.00    +0.000 OA
ENDROOT
BRANCH   1   9
ATOM      2  C   UNL     1       6.967   4.932  14.466  0.00  0.00    +0.000 A 
ATOM      3  C   UNL     1       5.785   4.241  14.668  0.00  0.00    +0.000 A 
ATOM      4  N   UNL     1       5.560   4.355  16.009  0.00  0.00    +0.000 N 
ATOM      5  C   UNL     1       6.604   5.035  16.559  0.00  0.00    +0.000 A 
ATOM      6  N   UNL     1       7.468   5.424  15.656  0.00  0.00    +0.000 NA
ATOM      7  O   UNL     1       6.786   5.148  17.865  0.00  0.00    +0.000 OA
ATOM      8  C   UNL     1       5.596   5.181  18.643  0.00  0.00    +0.000 C 
ATOM      9  C   UNL     1       4.459   4.218  18.237  0.00  0.00    +0.000 C 
ATOM     10  C   UNL     1       4.526   3.721  16.787  0.00  0.00    +0.000 C 
BRANCH   2  12
ATOM     11  O   UNL     1       8.640   5.894  13.238  0.00  0.00    +0.000 OA
ATOM     12  N   UNL     1       7.685   5.100  13.221  0.00  0.00    +0.000 N 
ATOM     13  O   UNL     1       7.304   4.452  12.239  0.00  0.00    +0.000 OA
ENDBRANCH   2  12
ENDBRANCH   1   9
BRANCH   1  14
ATOM     14  C   UNL     1       3.077   5.618  19.625  0.00  0.00    +0.000 C 
BRANCH  14  15
ATOM     15  C   UNL     1       2.507   6.984  19.334  0.00  0.00    +0.000 A 
ATOM     16  C   UNL     1       2.577   7.499  18.036  0.00  0.00    +0.000 A 
ATOM     17  C   UNL     1       1.991   8.725  17.737  0.00  0.00    +0.000 A 
ATOM     18  C   UNL     1       1.321   9.444  18.730  0.00  0.00    +0.000 A 
ATOM     19  C   UNL     1       1.226   8.963  20.048  0.00  0.00    +0.000 A 
ATOM     20  C   UNL     1       1.827   7.722  20.321  0.00  0.00    +0.000 A 
BRANCH  19  21
ATOM     21  C   UNL     1       0.530   9.740  21.107  0.00  0.00    +0.000 A 
ATOM     22  C   UNL     1       0.184   9.161  22.338  0.00  0.00    +0.000 A 
ATOM     23  C   UNL     1      -0.446   9.934  23.305  0.00  0.00    +0.000 A 
ATOM     24  N   UNL     1      -0.765  11.230  23.138  0.00  0.00    +0.000 NA
ATOM     25  C   UNL     1      -0.440  11.781  21.953  0.00  0.00    +0.000 A 
ATOM     26  C   UNL     1       0.198  11.088  20.929  0.00  0.00    +0.000 A 
ENDBRANCH  19  21
ENDBRANCH  14  15
ENDBRANCH   1  14
TORSDOF 5
ENDMDL
MODEL 2
REMARK VINA RESULT:      -8.9      0.792      1.251
REMARK  Name = 
REMARK  5 active torsions:
REMARK  status: ('A' for Active; 'I' for Inactive)
REMARK    1  A    between atoms: N_2  and  C_4
REMARK    2  A    between atoms: C_11  and  O_12
REMARK    3  A    between atoms: O_12  and  C_13
REMARK    4  A    between atoms: C_13  and  C_14
REMARK    5  A    between atoms: C_18  and  C_19
REMARK                            x       y       z     vdW  Elec       q    Type
REMARK                         _______ _______ _______ _____ _____    ______ ____
ROOT
ATOM      1  O   UNL     1       4.602   5.913  19.610  0.00  0.00    +0.000 OA
ENDROOT
BRANCH   1   9
ATOM      2  C   UNL     1       6.557   4.505  14.685  0.00  0.00    +0.000 A 
ATOM      3  C   UNL     1       5.357   4.314  15.347  0.00  0.00    +0.000 A 
ATOM      4  N   UNL     1       5.667   4.524  16.661  0.00  0.00    +0.000 N 
ATOM      5  C   UNL     1       7.004   4.766  16.748  0.00  0.00    +0.000 A 
ATOM      6  N   UNL     1       7.578   4.788  15.572  0.00  0.00    +0.000 NA
ATOM      7  O   UNL     1       7.655   4.822  17.899  0.00  0.00    +0.000 OA
ATOM      8  C   UNL     1       6.902   5.312  19.000  0.00  0.00    +0.000 C 
ATOM      9  C   UNL     1       5.435   4.844  19.118  0.00  0.00    +0.000 C 
ATOM     10  C   UNL     1       4.815   4.338  17.807  0.00  0.00    +0.000 C 
BRANCH   2  12
ATOM     11  O   UNL     1       7.693   5.103  12.792  0.00  0.00    +0.000 OA
ATOM     12  N   UNL     1       6.809   4.372  13.267  0.00  0.00    +0.000 N 
ATOM     13  O   UNL     1       6.136   3.551  12.632  0.00  0.00    +0.000 OA
ENDBRANCH   2  12
ENDBRANCH   1   9
BRANCH   1  14
ATOM     14  C   UNL     1       3.214   5.757  19.299  0.00  0.00    +0.000 C 
BRANCH  14  15
ATOM     15  C   UNL     1       2.556   7.100  19.109  0.00  0.00    +0.000 A 
ATOM     16  C   UNL     1       2.569   7.702  17.846  0.00  0.00    +0.000 A 
ATOM     17  C   UNL     1       1.903   8.906  17.638  0.00  0.00    +0.000 A 
ATOM     18  C   UNL     1       1.210   9.517  18.687  0.00  0.00    +0.000 A 
ATOM     19  C   UNL     1       1.172   8.946  19.971  0.00  0.00    +0.000 A 
ATOM     20  C   UNL     1       1.852   7.729  20.152  0.00  0.00    +0.000 A 
BRANCH  19  21
ATOM     21  C   UNL     1       0.451   9.608  21.090  0.00  0.00    +0.000 A 
ATOM     22  C   UNL     1      -0.293  10.783  20.895  0.00  0.00    +0.000 A 
ATOM     23  C   UNL     1      -0.967  11.352  21.967  0.00  0.00    +0.000 A 
ATOM     24  N   UNL     1      -0.950  10.849  23.216  0.00  0.00    +0.000 NA
ATOM     25  C   UNL     1      -0.228   9.728  23.402  0.00  0.00    +0.000 A 
ATOM     26  C   UNL     1       0.473   9.085  22.388  0.00  0.00    +0.000 A 
ENDBRANCH  19  21
ENDBRANCH  14  15
ENDBRANCH   1  14
TORSDOF 5
ENDMDL
MODEL 3
REMARK VINA RESULT:      -8.4      1.663      2.397
REMARK  Name = 
REMARK  5 active torsions:
REMARK  status: ('A' for Active; 'I' for Inactive)
REMARK    1  A    between atoms: N_2  and  C_4
REMARK    2  A    between atoms: C_11  and  O_12
REMARK    3  A    between atoms: O_12  and  C_13
REMARK    4  A    between atoms: C_13  and  C_14
REMARK    5  A    between atoms: C_18  and  C_19
REMARK                            x       y       z     vdW  Elec       q    Type
REMARK                         _______ _______ _______ _____ _____    ______ ____
ROOT
ATOM      1  O   UNL     1       3.125   5.236  18.193  0.00  0.00    +0.000 OA
ENDROOT
BRANCH   1   9
ATOM      2  C   UNL     1       6.983   5.001  14.304  0.00  0.00    +0.000 A 
ATOM      3  C   UNL     1       5.747   4.406  14.488  0.00  0.00    +0.000 A 
ATOM      4  N   UNL     1       5.507   4.545  15.824  0.00  0.00    +0.000 N 
ATOM      5  C   UNL     1       6.591   5.146  16.390  0.00  0.00    +0.000 A 
ATOM      6  N   UNL     1       7.499   5.460  15.501  0.00  0.00    +0.000 NA
ATOM      7  O   UNL     1       6.758   5.253  17.698  0.00  0.00    +0.000 OA
ATOM      8  C   UNL     1       5.560   5.384  18.454  0.00  0.00    +0.000 C 
ATOM      9  C   UNL     1       4.359   4.509  18.032  0.00  0.00    +0.000 C 
ATOM     10  C   UNL     1       4.413   3.999  16.585  0.00  0.00    +0.000 C 
BRANCH   2  12
ATOM     11  O   UNL     1       7.378   4.364  12.143  0.00  0.00    +0.000 OA
ATOM     12  N   UNL     1       7.735   5.105  13.073  0.00  0.00    +0.000 N 
ATOM     13  O   UNL     1       8.670   5.913  13.031  0.00  0.00    +0.000 OA
ENDBRANCH   2  12
ENDBRANCH   1   9
BRANCH   1  14
ATOM     14  C   UNL     1       3.232   6.633  17.901  0.00  0.00    +0.000 C 
BRANCH  14  15
ATOM     15  C   UNL     1       2.364   7.440  18.832  0.00  0.00    +0.000 A 
ATOM     16  C   UNL     1       2.146   6.989  20.138  0.00  0.00    +0.000 A 
ATOM     17  C   UNL     1       1.408   7.760  21.031  0.00  0.00    +0.000 A 
ATOM     18  C   UNL     1       0.887   8.993  20.631  0.00  0.00    +0.000 A 
ATOM     19  C   UNL     1       1.082   9.485  19.328  0.00  0.00    +0.000 A 
ATOM     20  C   UNL     1       1.832   8.686  18.448  0.00  0.00    +0.000 A 
BRANCH  19  21
ATOM     21  C   UNL     1       0.509  10.787  18.899  0.00  0.00    +0.000 A 
ATOM     22  C   UNL     1      -0.827  10.904  18.485  0.00  0.00    +0.000 A 
ATOM     23  C   UNL     1      -1.322  12.148  18.114  0.00  0.00    +0.000 A 
ATOM     24  N   UNL     1      -0.590  13.277  18.115  0.00  0.00    +0.000 NA
ATOM     25  C   UNL     1       0.693  13.160  18.504  0.00  0.00    +0.000 A 
ATOM     26  C   UNL     1       1.274  11.960  18.899  0.00  0.00    +0.000 A 
ENDBRANCH  19  21
ENDBRANCH  14  15
ENDBRANCH   1  14
TORSDOF 5
ENDMDL
MODEL 4
REMARK VINA RESULT:      -8.4      1.419      1.959
REMARK  Name = 
REMARK  5 active torsions:
REMARK  status: ('A' for Active; 'I' for Inactive)
REMARK    1  A    between atoms: N_2  and  C_4
REMARK    2  A    between atoms: C_11  and  O_12
REMARK    3  A    between atoms: O_12  and  C_13
REMARK    4  A    between atoms: C_13  and  C_14
REMARK    5  A    between atoms: C_18  and  C_19
REMARK                            x       y       z     vdW  Elec       q    Type
REMARK                         _______ _______ _______ _____ _____    ______ ____
ROOT
ATOM      1  O   UNL     1       1.652   3.911  19.571  0.00  0.00    +0.000 OA
ENDROOT
BRANCH   1   9
ATOM      2  C   UNL     1       6.010   4.698  16.338  0.00  0.00    +0.000 A 
ATOM      3  C   UNL     1       4.672   4.420  16.119  0.00  0.00    +0.000 A 
ATOM      4  N   UNL     1       4.236   3.928  17.315  0.00  0.00    +0.000 N 
ATOM      5  C   UNL     1       5.298   3.872  18.165  0.00  0.00    +0.000 A 
ATOM      6  N   UNL     1       6.389   4.351  17.622  0.00  0.00    +0.000 NA
ATOM      7  O   UNL     1       5.254   3.266  19.341  0.00  0.00    +0.000 OA
ATOM      8  C   UNL     1       3.990   3.295  19.991  0.00  0.00    +0.000 C 
ATOM      9  C   UNL     1       2.737   3.081  19.113  0.00  0.00    +0.000 C 
ATOM     10  C   UNL     1       2.944   3.368  17.619  0.00  0.00    +0.000 C 
BRANCH   2  12
ATOM     11  O   UNL     1       7.722   6.112  15.790  0.00  0.00    +0.000 OA
ATOM     12  N   UNL     1       6.969   5.212  15.385  0.00  0.00    +0.000 N 
ATOM     13  O   UNL     1       6.973   4.727  14.247  0.00  0.00    +0.000 OA
ENDBRANCH   2  12
ENDBRANCH   1   9
BRANCH   1  14
ATOM     14  C   UNL     1       2.015   4.814  20.620  0.00  0.00    +0.000 C 
BRANCH  14  15
ATOM     15  C   UNL     1       1.929   6.243  20.147  0.00  0.00    +0.000 A 
ATOM     16  C   UNL     1       2.399   6.578  18.874  0.00  0.00    +0.000 A 
ATOM     17  C   UNL     1       2.261   7.878  18.395  0.00  0.00    +0.000 A 
ATOM     18  C   UNL     1       1.642   8.853  19.182  0.00  0.00    +0.000 A 
ATOM     19  C   UNL     1       1.155   8.560  20.468  0.00  0.00    +0.000 A 
ATOM     20  C   UNL     1       1.308   7.239  20.924  0.00  0.00    +0.000 A 
BRANCH  19  21
ATOM     21  C   UNL     1       0.516   9.604  21.310  0.00  0.00    +0.000 A 
ATOM     22  C   UNL     1       0.503  10.954  20.926  0.00  0.00    +0.000 A 
ATOM     23  C   UNL     1      -0.127  11.891  21.736  0.00  0.00    +0.000 A 
ATOM     24  N   UNL     1      -0.734  11.589  22.898  0.00  0.00    +0.000 NA
ATOM     25  C   UNL     1      -0.712  10.295  23.269  0.00  0.00    +0.000 A 
ATOM     26  C   UNL     1      -0.113   9.288  22.519  0.00  0.00    +0.000 A 
ENDBRANCH  19  21
ENDBRANCH  14  15
ENDBRANCH   1  14
TORSDOF 5
ENDMDL
MODEL 5
REMARK VINA RESULT:      -8.2      1.906      3.218
REMARK  Name = 
REMARK  5 active torsions:
REMARK  status: ('A' for Active; 'I' for Inactive)
REMARK    1  A    between atoms: N_2  and  C_4
REMARK    2  A    between atoms: C_11  and  O_12
REMARK    3  A    between atoms: O_12  and  C_13
REMARK    4  A    between atoms: C_13  and  C_14
REMARK    5  A    between atoms: C_18  and  C_19
REMARK                            x       y       z     vdW  Elec       q    Type
REMARK                         _______ _______ _______ _____ _____    ______ ____
ROOT
ATOM      1  O   UNL     1       6.643   5.424  19.659  0.00  0.00    +0.000 OA
ENDROOT
BRANCH   1   9
ATOM      2  C   UNL     1       6.368   4.305  14.298  0.00  0.00    +0.000 A 
ATOM      3  C   UNL     1       6.579   3.553  15.441  0.00  0.00    +0.000 A 
ATOM      4  N   UNL     1       6.953   4.473  16.378  0.00  0.00    +0.000 N 
ATOM      5  C   UNL     1       7.009   5.693  15.777  0.00  0.00    +0.000 A 
ATOM      6  N   UNL     1       6.640   5.641  14.522  0.00  0.00    +0.000 NA
ATOM      7  O   UNL     1       7.522   6.764  16.361  0.00  0.00    +0.000 OA
ATOM      8  C   UNL     1       7.367   6.818  17.773  0.00  0.00    +0.000 C 
ATOM      9  C   UNL     1       7.570   5.503  18.558  0.00  0.00    +0.000 C 
ATOM     10  C   UNL     1       7.409   4.226  17.722  0.00  0.00    +0.000 C 
BRANCH   2  12
ATOM     11  O   UNL     1       6.908   3.636  12.179  0.00  0.00    +0.000 OA
ATOM     12  N   UNL     1       5.986   3.825  12.988  0.00  0.00    +0.000 N 
ATOM     13  O   UNL     1       4.783   3.641  12.766  0.00  0.00    +0.000 OA
ENDBRANCH   2  12
ENDBRANCH   1   9
BRANCH   1  14
ATOM     14  C   UNL     1       5.748   4.310  19.585  0.00  0.00    +0.000 C 
BRANCH  14  15
ATOM     15  C   UNL     1       4.434   4.722  18.970  0.00  0.00    +0.000 A 
ATOM     16  C   UNL     1       3.706   3.797  18.215  0.00  0.00    +0.000 A 
ATOM     17  C   UNL     1       2.458   4.139  17.703  0.00  0.00    +0.000 A 
ATOM     18  C   UNL     1       1.920   5.406  17.949  0.00  0.00    +0.000 A 
ATOM     19  C   UNL     1       2.618   6.365  18.702  0.00  0.00    +0.000 A 
ATOM     20  C   UNL     1       3.876   5.992  19.208  0.00  0.00    +0.000 A 
BRANCH  19  21
ATOM     21  C   UNL     1       2.054   7.718  18.945  0.00  0.00    +0.000 A 
ATOM     22  C   UNL     1       1.974   8.677  17.922  0.00  0.00    +0.000 A 
ATOM     23  C   UNL     1       1.417   9.921  18.192  0.00  0.00    +0.000 A 
ATOM     24  N   UNL     1       0.946  10.286  19.398  0.00  0.00    +0.000 NA
ATOM     25  C   UNL     1       1.033   9.368  20.380  0.00  0.00    +0.000 A 
ATOM     26  C   UNL     1       1.567   8.096  20.201  0.00  0.00    +0.000 A 
ENDBRANCH  19  21
ENDBRANCH  14  15
ENDBRANCH   1  14
TORSDOF 5
ENDMDL
MODEL 6
REMARK VINA RESULT:      -8.1      1.759      2.434
REMARK  Name = 
REMARK  5 active torsions:
REMARK  status: ('A' for Active; 'I' for Inactive)
REMARK    1  A    between atoms: N_2  and  C_4
REMARK    2  A    between atoms: C_11  and  O_12
REMARK    3  A    between atoms: O_12  and  C_13
REMARK    4  A    between atoms: C_13  and  C_14
REMARK    5  A    between atoms: C_18  and  C_19
REMARK                            x       y       z     vdW  Elec       q    Type
REMARK                         _______ _______ _______ _____ _____    ______ ____
ROOT
ATOM      1  O   UNL     1       1.152   4.795  20.116  0.00  0.00    +0.000 OA
ENDROOT
BRANCH   1   9
ATOM      2  C   UNL     1       5.826   4.583  17.258  0.00  0.00    +0.000 A 
ATOM      3  C   UNL     1       4.508   4.866  16.949  0.00  0.00    +0.000 A 
ATOM      4  N   UNL     1       3.801   4.332  17.988  0.00  0.00    +0.000 N 
ATOM      5  C   UNL     1       4.680   3.716  18.827  0.00  0.00    +0.000 A 
ATOM      6  N   UNL     1       5.920   3.864  18.435  0.00  0.00    +0.000 NA
ATOM      7  O   UNL     1       4.301   2.939  19.828  0.00  0.00    +0.000 OA
ATOM      8  C   UNL     1       3.066   3.293  20.437  0.00  0.00    +0.000 C 
ATOM      9  C   UNL     1       1.919   3.739  19.504  0.00  0.00    +0.000 C 
ATOM     10  C   UNL     1       2.370   4.234  18.123  0.00  0.00    +0.000 C 
BRANCH   2  12
ATOM     11  O   UNL     1       6.837   5.673  15.519  0.00  0.00    +0.000 OA
ATOM     12  N   UNL     1       7.001   4.896  16.473  0.00  0.00    +0.000 N 
ATOM     13  O   UNL     1       8.073   4.373  16.800  0.00  0.00    +0.000 OA
ENDBRANCH   2  12
ENDBRANCH   1   9
BRANCH   1  14
ATOM     14  C   UNL     1       1.945   5.749  20.829  0.00  0.00    +0.000 C 
BRANCH  14  15
ATOM     15  C   UNL     1       1.725   7.138  20.285  0.00  0.00    +0.000 A 
ATOM     16  C   UNL     1       2.214   7.468  19.017  0.00  0.00    +0.000 A 
ATOM     17  C   UNL     1       1.956   8.722  18.471  0.00  0.00    +0.000 A 
ATOM     18  C   UNL     1       1.199   9.656  19.184  0.00  0.00    +0.000 A 
ATOM     19  C   UNL     1       0.689   9.366  20.461  0.00  0.00    +0.000 A 
ATOM     20  C   UNL     1       0.964   8.092  20.987  0.00  0.00    +0.000 A 
BRANCH  19  21
ATOM     21  C   UNL     1      -0.098  10.369  21.225  0.00  0.00    +0.000 A 
ATOM     22  C   UNL     1      -0.600  10.090  22.507  0.00  0.00    +0.000 A 
ATOM     23  C   UNL     1      -1.311  11.068  23.191  0.00  0.00    +0.000 A 
ATOM     24  N   UNL     1      -1.569  12.293  22.695  0.00  0.00    +0.000 NA
ATOM     25  C   UNL     1      -1.095  12.553  21.462  0.00  0.00    +0.000 A 
ATOM     26  C   UNL     1      -0.367  11.640  20.707  0.00  0.00    +0.000 A 
ENDBRANCH  19  21
ENDBRANCH  14  15
ENDBRANCH   1  14
TORSDOF 5
ENDMDL
MODEL 7
REMARK VINA RESULT:      -8.1      1.917      3.178
REMARK  Name = 
REMARK  5 active torsions:
REMARK  status: ('A' for Active; 'I' for Inactive)
REMARK    1  A    between atoms: N_2  and  C_4
REMARK    2  A    between atoms: C_11  and  O_12
REMARK    3  A    between atoms: O_12  and  C_13
REMARK    4  A    between atoms: C_13  and  C_14
REMARK    5  A    between atoms: C_18  and  C_19
REMARK                            x       y       z     vdW  Elec       q    Type
REMARK                         _______ _______ _______ _____ _____    ______ ____
ROOT
ATOM      1  O   UNL     1       6.329   5.188  19.538  0.00  0.00    +0.000 OA
ENDROOT
BRANCH   1   9
ATOM      2  C   UNL     1       6.098   4.243  14.143  0.00  0.00    +0.000 A 
ATOM      3  C   UNL     1       6.621   3.563  15.229  0.00  0.00    +0.000 A 
ATOM      4  N   UNL     1       6.726   4.519  16.198  0.00  0.00    +0.000 N 
ATOM      5  C   UNL     1       6.334   5.710  15.666  0.00  0.00    +0.000 A 
ATOM      6  N   UNL     1       5.923   5.584  14.429  0.00  0.00    +0.000 NA
ATOM      7  O   UNL     1       6.497   6.868  16.284  0.00  0.00    +0.000 OA
ATOM      8  C   UNL     1       6.425   6.814  17.703  0.00  0.00    +0.000 C 
ATOM      9  C   UNL     1       7.104   5.615  18.401  0.00  0.00    +0.000 C 
ATOM     10  C   UNL     1       7.325   4.390  17.503  0.00  0.00    +0.000 C 
BRANCH   2  12
ATOM     11  O   UNL     1       6.795   3.403  12.132  0.00  0.00    +0.000 OA
ATOM     12  N   UNL     1       5.814   3.712  12.827  0.00  0.00    +0.000 N 
ATOM     13  O   UNL     1       4.629   3.605  12.488  0.00  0.00    +0.000 OA
ENDBRANCH   2  12
ENDBRANCH   1   9
BRANCH   1  14
ATOM     14  C   UNL     1       5.371   4.169  19.238  0.00  0.00    +0.000 C 
BRANCH  14  15
ATOM     15  C   UNL     1       3.984   4.607  19.635  0.00  0.00    +0.000 A 
ATOM     16  C   UNL     1       3.133   3.703  20.278  0.00  0.00    +0.000 A 
ATOM     17  C   UNL     1       1.877   4.114  20.716  0.00  0.00    +0.000 A 
ATOM     18  C   UNL     1       1.464   5.436  20.523  0.00  0.00    +0.000 A 
ATOM     19  C   UNL     1       2.288   6.377  19.882  0.00  0.00    +0.000 A 
ATOM     20  C   UNL     1       3.551   5.933  19.451  0.00  0.00    +0.000 A 
BRANCH  19  21
ATOM     21  C   UNL     1       1.838   7.775  19.660  0.00  0.00    +0.000 A 
ATOM     22  C   UNL     1       1.937   8.390  18.402  0.00  0.00    +0.000 A 
ATOM     23  C   UNL     1       1.481   9.693  18.239  0.00  0.00    +0.000 A 
ATOM     24  N   UNL     1       0.947  10.430  19.230  0.00  0.00    +0.000 NA
ATOM     25  C   UNL     1       0.863   9.841  20.438  0.00  0.00    +0.000 A 
ATOM     26  C   UNL     1       1.285   8.540  20.693  0.00  0.00    +0.000 A 
ENDBRANCH  19  21
ENDBRANCH  14  15
ENDBRANCH   1  14
TORSDOF 5
ENDMDL
MODEL 8
REMARK VINA RESULT:      -8.1      0.883      1.405
REMARK  Name = 
REMARK  5 active torsions:
REMARK  status: ('A' for Active; 'I' for Inactive)
REMARK    1  A    between atoms: N_2  and  C_4
REMARK    2  A    between atoms: C_11  and  O_12
REMARK    3  A    between atoms: O_12  and  C_13
REMARK    4  A    between atoms: C_13  and  C_14
REMARK    5  A    between atoms: C_18  and  C_19
REMARK                            x       y       z     vdW  Elec       q    Type
REMARK                         _______ _______ _______ _____ _____    ______ ____
ROOT
ATOM      1  O   UNL     1       3.348   4.738  19.674  0.00  0.00    +0.000 OA
ENDROOT
BRANCH   1   9
ATOM      2  C   UNL     1       6.595   4.589  15.259  0.00  0.00    +0.000 A 
ATOM      3  C   UNL     1       5.470   3.893  15.664  0.00  0.00    +0.000 A 
ATOM      4  N   UNL     1       5.416   4.107  17.012  0.00  0.00    +0.000 N 
ATOM      5  C   UNL     1       6.501   4.848  17.368  0.00  0.00    +0.000 A 
ATOM      6  N   UNL     1       7.230   5.183  16.333  0.00  0.00    +0.000 NA
ATOM      7  O   UNL     1       6.846   5.067  18.627  0.00  0.00    +0.000 OA
ATOM      8  C   UNL     1       5.765   5.137  19.548  0.00  0.00    +0.000 C 
ATOM      9  C   UNL     1       4.615   4.123  19.368  0.00  0.00    +0.000 C 
ATOM     10  C   UNL     1       4.509   3.515  17.962  0.00  0.00    +0.000 C 
BRANCH   2  12
ATOM     11  O   UNL     1       6.720   3.847  13.098  0.00  0.00    +0.000 OA
ATOM     12  N   UNL     1       7.143   4.674  13.922  0.00  0.00    +0.000 N 
ATOM     13  O   UNL     1       7.984   5.551  13.695  0.00  0.00    +0.000 OA
ENDBRANCH   2  12
ENDBRANCH   1   9
BRANCH   1  14
ATOM     14  C   UNL     1       2.642   5.214  18.524  0.00  0.00    +0.000 C 
BRANCH  14  15
ATOM     15  C   UNL     1       2.451   6.708  18.597  0.00  0.00    +0.000 A 
ATOM     16  C   UNL     1       2.842   7.508  17.519  0.00  0.00    +0.000 A 
ATOM     17  C   UNL     1       2.606   8.879  17.541  0.00  0.00    +0.000 A 
ATOM     18  C   UNL     1       1.967   9.464  18.638  0.00  0.00    +0.000 A 
ATOM     19  C   UNL     1       1.556   8.698  19.743  0.00  0.00    +0.000 A 
ATOM     20  C   UNL     1       1.807   7.315  19.692  0.00  0.00    +0.000 A 
BRANCH  19  21
ATOM     21  C   UNL     1       0.895   9.325  20.917  0.00  0.00    +0.000 A 
ATOM     22  C   UNL     1       0.194  10.537  20.807  0.00  0.00    +0.000 A 
ATOM     23  C   UNL     1      -0.426  11.073  21.929  0.00  0.00    +0.000 A 
ATOM     24  N   UNL     1      -0.394  10.502  23.147  0.00  0.00    +0.000 NA
ATOM     25  C   UNL     1       0.287   9.345  23.251  0.00  0.00    +0.000 A 
ATOM     26  C   UNL     1       0.932   8.731  22.183  0.00  0.00    +0.000 A 
ENDBRANCH  19  21
ENDBRANCH  14  15
ENDBRANCH   1  14
TORSDOF 5
ENDMDL
MODEL 9
REMARK VINA RESULT:      -7.9      1.781      2.535
REMARK  Name = 
REMARK  5 active torsions:
REMARK  status: ('A' for Active; 'I' for Inactive)
REMARK    1  A    between atoms: N_2  and  C_4
REMARK    2  A    between atoms: C_11  and  O_12
REMARK    3  A    between atoms: O_12  and  C_13
REMARK    4  A    between atoms: C_13  and  C_14
REMARK    5  A    between atoms: C_18  and  C_19
REMARK                            x       y       z     vdW  Elec       q    Type
REMARK                         _______ _______ _______ _____ _____    ______ ____
ROOT
ATOM      1  O   UNL     1       4.146   6.169  19.223  0.00  0.00    +0.000 OA
ENDROOT
BRANCH   1   9
ATOM      2  C   UNL     1       6.841   4.928  14.612  0.00  0.00    +0.000 A 
ATOM      3  C   UNL     1       5.507   4.989  14.975  0.00  0.00    +0.000 A 
ATOM      4  N   UNL     1       5.531   4.935  16.339  0.00  0.00    +0.000 N 
ATOM      5  C   UNL     1       6.826   4.790  16.735  0.00  0.00    +0.000 A 
ATOM      6  N   UNL     1       7.655   4.805  15.723  0.00  0.00    +0.000 NA
ATOM      7  O   UNL     1       7.174   4.516  17.982  0.00  0.00    +0.000 OA
ATOM      8  C   UNL     1       6.315   5.047  18.983  0.00  0.00    +0.000 C 
ATOM      9  C   UNL     1       4.795   4.986  18.716  0.00  0.00    +0.000 C 
ATOM     10  C   UNL     1       4.409   4.843  17.237  0.00  0.00    +0.000 C 
BRANCH   2  12
ATOM     11  O   UNL     1       6.918   4.075  12.492  0.00  0.00    +0.000 OA
ATOM     12  N   UNL     1       7.390   4.916  13.274  0.00  0.00    +0.000 N 
ATOM     13  O   UNL     1       8.279   5.731  13.004  0.00  0.00    +0.000 OA
ENDBRANCH   2  12
ENDBRANCH   1   9
BRANCH   1  14
ATOM     14  C   UNL     1       2.959   6.530  18.511  0.00  0.00    +0.000 C 
BRANCH  14  15
ATOM     15  C   UNL     1       2.097   7.447  19.341  0.00  0.00    +0.000 A 
ATOM     16  C   UNL     1       1.777   7.090  20.655  0.00  0.00    +0.000 A 
ATOM     17  C   UNL     1       1.043   7.959  21.457  0.00  0.00    +0.000 A 
ATOM     18  C   UNL     1       0.631   9.197  20.958  0.00  0.00    +0.000 A 
ATOM     19  C   UNL     1       0.931   9.596  19.644  0.00  0.00    +0.000 A 
ATOM     20  C   UNL     1       1.674   8.698  18.856  0.00  0.00    +0.000 A 
BRANCH  19  21
ATOM     21  C   UNL     1       0.473  10.904  19.108  0.00  0.00    +0.000 A 
ATOM     22  C   UNL     1       1.326  12.018  19.058  0.00  0.00    +0.000 A 
ATOM     23  C   UNL     1       0.859  13.215  18.528  0.00  0.00    +0.000 A 
ATOM     24  N   UNL     1      -0.389  13.389  18.056  0.00  0.00    +0.000 NA
ATOM     25  C   UNL     1      -1.208  12.321  18.114  0.00  0.00    +0.000 A 
ATOM     26  C   UNL     1      -0.826  11.083  18.621  0.00  0.00    +0.000 A 
ENDBRANCH  19  21
ENDBRANCH  14  15
ENDBRANCH   1  14
TORSDOF 5
ENDMDL
