MODEL 1
REMARK VINA RESULT:      -7.3      0.000      0.000
REMARK  Name = 
REMARK  8 active torsions:
REMARK  status: ('A' for Active; 'I' for Inactive)
REMARK    1  A    between atoms: C_1  and  C_2
REMARK    2  A    between atoms: C_2  and  C_3
REMARK    3  A    between atoms: C_3  and  C_4
REMARK    4  A    between atoms: C_4  and  N_5
REMARK    5  A    between atoms: C_7  and  S_8
REMARK    6  A    between atoms: S_8  and  C_11
REMARK    7  A    between atoms: C_14  and  C_15
REMARK    8  A    between atoms: C_24  and  N_25
REMARK                            x       y       z     vdW  Elec       q    Type
REMARK                         _______ _______ _______ _____ _____    ______ ____
ROOT
ATOM      1  N   UNL     1      -1.564  11.851  19.378  0.00  0.00    +0.000 N 
ATOM      2  C   UNL     1      -2.601  12.508  20.035  0.00  0.00    +0.000 A 
ATOM      3  C   UNL     1      -2.791  12.567  21.359  0.00  0.00    +0.000 A 
ATOM      4  C   UNL     1      -1.857  11.824  22.216  0.00  0.00    +0.000 A 
ATOM      5  O   UNL     1      -1.956  11.810  23.437  0.00  0.00    +0.000 OA
ATOM      6  C   UNL     1      -0.794  11.042  21.552  0.00  0.00    +0.000 A 
ATOM      7  C   UNL     1       0.047  10.258  22.354  0.00  0.00    +0.000 A 
ATOM      8  C   UNL     1       0.945   9.382  21.759  0.00  0.00    +0.000 A 
ATOM      9  F   UNL     1       1.669   8.585  22.560  0.00  0.00    +0.000 F 
ATOM     10  C   UNL     1       1.030   9.280  20.369  0.00  0.00    +0.000 A 
ATOM     11  C   UNL     1       0.270  10.195  19.603  0.00  0.00    +0.000 A 
ATOM     12  C   UNL     1      -0.690  11.054  20.148  0.00  0.00    +0.000 A 
ENDROOT
BRANCH  10  13
ATOM     13  N   UNL     1       1.778   8.332  19.666  0.00  0.00    +0.000 N 
ATOM     14  C   UNL     1       1.749   6.914  20.035  0.00  0.00    +0.000 C 
ATOM     15  C   UNL     1       3.042   6.274  19.511  0.00  0.00    +0.000 C 
ATOM     16  C   UNL     1       3.273   6.543  18.019  0.00  0.00    +0.000 C 
ATOM     17  C   UNL     1       3.101   8.019  17.668  0.00  0.00    +0.000 C 
ATOM     18  C   UNL     1       1.774   8.538  18.205  0.00  0.00    +0.000 C 
ENDBRANCH  10  13
BRANCH   3  19
ATOM     19  S   UNL     1      -4.150  13.415  21.981  0.00  0.00    +0.000 S 
ATOM     20  O   UNL     1      -4.795  14.154  20.910  0.00  0.00    +0.000 OA
ATOM     21  O   UNL     1      -4.947  12.496  22.783  0.00  0.00    +0.000 OA
BRANCH  19  22
ATOM     22  C   UNL     1      -3.491  14.658  23.074  0.00  0.00    +0.000 A 
ATOM     23  C   UNL     1      -2.705  15.687  22.548  0.00  0.00    +0.000 A 
ATOM     24  C   UNL     1      -2.092  16.593  23.416  0.00  0.00    +0.000 A 
ATOM     25  C   UNL     1      -2.277  16.484  24.801  0.00  0.00    +0.000 A 
ATOM     26  C   UNL     1      -1.565  17.405  25.749  0.00  0.00    +0.000 C 
ATOM     27  C   UNL     1      -3.125  15.491  25.306  0.00  0.00    +0.000 A 
ATOM     28  C   UNL     1      -3.731  14.574  24.448  0.00  0.00    +0.000 A 
ENDBRANCH  19  22
ENDBRANCH   3  19
BRANCH   1  29
ATOM     29  C   UNL     1      -1.441  11.939  17.903  0.00  0.00    +0.000 C 
BRANCH  29  30
ATOM     30  C   UNL     1      -2.688  11.352  17.234  0.00  0.00    +0.000 C 
BRANCH  30  32
ATOM     31  C   UNL     1      -2.969   9.883  15.230  0.00  0.00    +0.000 C 
ATOM     32  C   UNL     1      -2.442   9.961  16.655  0.00  0.00    +0.000 C 
ENDBRANCH  30  32
ENDBRANCH  29  30
ENDBRANCH   1  29
TORSDOF 6
ENDMDL
MODEL 2
REMARK VINA RESULT:      -7.2      2.209      3.456
REMARK  Name = 
REMARK  8 active torsions:
REMARK  status: ('A' for Active; 'I' for Inactive)
REMARK    1  A    between atoms: C_1  and  C_2
REMARK    2  A    between atoms: C_2  and  C_3
REMARK    3  A    between atoms: C_3  and  C_4
REMARK    4  A    between atoms: C_4  and  N_5
REMARK    5  A    between atoms: C_7  and  S_8
REMARK    6  A    between atoms: S_8  and  C_11
REMARK    7  A    between atoms: C_14  and  C_15
REMARK    8  A    between atoms: C_24  and  N_25
REMARK                            x       y       z     vdW  Elec       q    Type
REMARK                         _______ _______ _______ _____ _____    ______ ____
ROOT
ATOM      1  N   UNL     1      -1.679  11.752  19.487  0.00  0.00    +0.000 N 
ATOM      2  C   UNL     1      -2.698  12.398  20.181  0.00  0.00    +0.000 A 
ATOM      3  C   UNL     1      -2.820  12.487  21.512  0.00  0.00    +0.000 A 
ATOM      4  C   UNL     1      -1.822  11.794  22.337  0.00  0.00    +0.000 A 
ATOM      5  O   UNL     1      -1.856  11.810  23.562  0.00  0.00    +0.000 OA
ATOM      6  C   UNL     1      -0.772  11.024  21.637  0.00  0.00    +0.000 A 
ATOM      7  C   UNL     1       0.132  10.286  22.414  0.00  0.00    +0.000 A 
ATOM      8  C   UNL     1       1.022   9.419  21.794  0.00  0.00    +0.000 A 
ATOM      9  F   UNL     1       1.811   8.665  22.576  0.00  0.00    +0.000 F 
ATOM     10  C   UNL     1       1.038   9.283  20.405  0.00  0.00    +0.000 A 
ATOM     11  C   UNL     1       0.212  10.154  19.657  0.00  0.00    +0.000 A 
ATOM     12  C   UNL     1      -0.742  11.002  20.230  0.00  0.00    +0.000 A 
ENDROOT
BRANCH  10  13
ATOM     13  N   UNL     1       1.775   8.337  19.687  0.00  0.00    +0.000 N 
ATOM     14  C   UNL     1       1.742   6.916  20.044  0.00  0.00    +0.000 C 
ATOM     15  C   UNL     1       3.028   6.274  19.504  0.00  0.00    +0.000 C 
ATOM     16  C   UNL     1       3.248   6.555  18.013  0.00  0.00    +0.000 C 
ATOM     17  C   UNL     1       3.081   8.034  17.677  0.00  0.00    +0.000 C 
ATOM     18  C   UNL     1       1.761   8.556  18.228  0.00  0.00    +0.000 C 
ENDBRANCH  10  13
BRANCH   3  19
ATOM     19  S   UNL     1      -4.169  13.314  22.183  0.00  0.00    +0.000 S 
ATOM     20  O   UNL     1      -4.806  12.476  23.182  0.00  0.00    +0.000 OA
ATOM     21  O   UNL     1      -3.755  14.662  22.552  0.00  0.00    +0.000 OA
BRANCH  19  22
ATOM     22  C   UNL     1      -5.360  13.455  20.864  0.00  0.00    +0.000 A 
ATOM     23  C   UNL     1      -6.091  12.328  20.478  0.00  0.00    +0.000 A 
ATOM     24  C   UNL     1      -6.938  12.408  19.371  0.00  0.00    +0.000 A 
ATOM     25  C   UNL     1      -7.068  13.610  18.663  0.00  0.00    +0.000 A 
ATOM     26  C   UNL     1      -7.917  13.690  17.427  0.00  0.00    +0.000 C 
ATOM     27  C   UNL     1      -6.383  14.748  19.107  0.00  0.00    +0.000 A 
ATOM     28  C   UNL     1      -5.526  14.675  20.205  0.00  0.00    +0.000 A 
ENDBRANCH  19  22
ENDBRANCH   3  19
BRANCH   1  29
ATOM     29  C   UNL     1      -1.635  11.804  18.006  0.00  0.00    +0.000 C 
BRANCH  29  30
ATOM     30  C   UNL     1      -2.409  10.621  17.415  0.00  0.00    +0.000 C 
BRANCH  30  32
ATOM     31  C   UNL     1      -4.596  11.601  16.700  0.00  0.00    +0.000 C 
ATOM     32  C   UNL     1      -3.272  11.024  16.222  0.00  0.00    +0.000 C 
ENDBRANCH  30  32
ENDBRANCH  29  30
ENDBRANCH   1  29
TORSDOF 6
ENDMDL
MODEL 3
REMARK VINA RESULT:      -7.0      4.048      6.086
REMARK  Name = 
REMARK  8 active torsions:
REMARK  status: ('A' for Active; 'I' for Inactive)
REMARK    1  A    between atoms: C_1  and  C_2
REMARK    2  A    between atoms: C_2  and  C_3
REMARK    3  A    between atoms: C_3  and  C_4
REMARK    4  A    between atoms: C_4  and  N_5
REMARK    5  A    between atoms: C_7  and  S_8
REMARK    6  A    between atoms: S_8  and  C_11
REMARK    7  A    between atoms: C_14  and  C_15
REMARK    8  A    between atoms: C_24  and  N_25
REMARK                            x       y       z     vdW  Elec       q    Type
REMARK                         _______ _______ _______ _____ _____    ______ ____
ROOT
ATOM      1  N   UNL     1       0.652   9.485  20.682  0.00  0.00    +0.000 N 
ATOM      2  C   UNL     1       0.629  10.861  20.468  0.00  0.00    +0.000 A 
ATOM      3  C   UNL     1       1.133  11.508  19.410  0.00  0.00    +0.000 A 
ATOM      4  C   UNL     1       1.834  10.712  18.393  0.00  0.00    +0.000 A 
ATOM      5  O   UNL     1       2.337  11.217  17.396  0.00  0.00    +0.000 OA
ATOM      6  C   UNL     1       1.956   9.258  18.627  0.00  0.00    +0.000 A 
ATOM      7  C   UNL     1       2.698   8.502  17.709  0.00  0.00    +0.000 A 
ATOM      8  C   UNL     1       2.978   7.170  17.982  0.00  0.00    +0.000 A 
ATOM      9  F   UNL     1       3.766   6.505  17.123  0.00  0.00    +0.000 F 
ATOM     10  C   UNL     1       2.517   6.568  19.155  0.00  0.00    +0.000 A 
ATOM     11  C   UNL     1       1.649   7.326  19.976  0.00  0.00    +0.000 A 
ATOM     12  C   UNL     1       1.384   8.685  19.779  0.00  0.00    +0.000 A 
ENDROOT
BRANCH  10  13
ATOM     13  N   UNL     1       2.863   5.292  19.606  0.00  0.00    +0.000 N 
ATOM     14  C   UNL     1       4.251   4.821  19.567  0.00  0.00    +0.000 C 
ATOM     15  C   UNL     1       4.217   3.286  19.555  0.00  0.00    +0.000 C 
ATOM     16  C   UNL     1       3.375   2.704  20.696  0.00  0.00    +0.000 C 
ATOM     17  C   UNL     1       2.007   3.374  20.800  0.00  0.00    +0.000 C 
ATOM     18  C   UNL     1       2.161   4.888  20.839  0.00  0.00    +0.000 C 
ENDBRANCH  10  13
BRANCH   3  19
ATOM     19  S   UNL     1       1.024  13.222  19.338  0.00  0.00    +0.000 S 
ATOM     20  O   UNL     1       0.675  13.631  17.990  0.00  0.00    +0.000 OA
ATOM     21  O   UNL     1       0.206  13.686  20.451  0.00  0.00    +0.000 OA
BRANCH  19  22
ATOM     22  C   UNL     1       2.681  13.827  19.594  0.00  0.00    +0.000 A 
ATOM     23  C   UNL     1       3.180  13.928  20.896  0.00  0.00    +0.000 A 
ATOM     24  C   UNL     1       4.432  14.509  21.107  0.00  0.00    +0.000 A 
ATOM     25  C   UNL     1       5.190  14.972  20.023  0.00  0.00    +0.000 A 
ATOM     26  C   UNL     1       6.503  15.666  20.240  0.00  0.00    +0.000 C 
ATOM     27  C   UNL     1       4.706  14.798  18.719  0.00  0.00    +0.000 A 
ATOM     28  C   UNL     1       3.452  14.229  18.501  0.00  0.00    +0.000 A 
ENDBRANCH  19  22
ENDBRANCH   3  19
BRANCH   1  29
ATOM     29  C   UNL     1      -0.019   8.904  21.869  0.00  0.00    +0.000 C 
BRANCH  29  30
ATOM     30  C   UNL     1      -0.038   9.921  23.014  0.00  0.00    +0.000 C 
BRANCH  30  32
ATOM     31  C   UNL     1      -1.360  12.043  23.091  0.00  0.00    +0.000 C 
ATOM     32  C   UNL     1      -1.422  10.530  23.234  0.00  0.00    +0.000 C 
ENDBRANCH  30  32
ENDBRANCH  29  30
ENDBRANCH   1  29
TORSDOF 6
ENDMDL
MODEL 4
REMARK VINA RESULT:      -6.9      3.445      5.352
REMARK  Name = 
REMARK  8 active torsions:
REMARK  status: ('A' for Active; 'I' for Inactive)
REMARK    1  A    between atoms: C_1  and  C_2
REMARK    2  A    between atoms: C_2  and  C_3
REMARK    3  A    between atoms: C_3  and  C_4
REMARK    4  A    between atoms: C_4  and  N_5
REMARK    5  A    between atoms: C_7  and  S_8
REMARK    6  A    between atoms: S_8  and  C_11
REMARK    7  A    between atoms: C_14  and  C_15
REMARK    8  A    between atoms: C_24  and  N_25
REMARK                            x       y       z     vdW  Elec       q    Type
REMARK                         _______ _______ _______ _____ _____    ______ ____
ROOT
ATOM      1  N   UNL     1       0.785   9.199  20.781  0.00  0.00    +0.000 N 
ATOM      2  C   UNL     1       0.739  10.572  20.553  0.00  0.00    +0.000 A 
ATOM      3  C   UNL     1       1.188  11.212  19.467  0.00  0.00    +0.000 A 
ATOM      4  C   UNL     1       1.849  10.411  18.427  0.00  0.00    +0.000 A 
ATOM      5  O   UNL     1       2.300  10.909  17.403  0.00  0.00    +0.000 OA
ATOM      6  C   UNL     1       1.995   8.961  18.671  0.00  0.00    +0.000 A 
ATOM      7  C   UNL     1       2.702   8.202  17.728  0.00  0.00    +0.000 A 
ATOM      8  C   UNL     1       3.007   6.876  18.002  0.00  0.00    +0.000 A 
ATOM      9  F   UNL     1       3.762   6.209  17.115  0.00  0.00    +0.000 F 
ATOM     10  C   UNL     1       2.606   6.282  19.201  0.00  0.00    +0.000 A 
ATOM     11  C   UNL     1       1.770   7.042  20.053  0.00  0.00    +0.000 A 
ATOM     12  C   UNL     1       1.482   8.396  19.854  0.00  0.00    +0.000 A 
ENDROOT
BRANCH  10  13
ATOM     13  N   UNL     1       2.985   5.015  19.650  0.00  0.00    +0.000 N 
ATOM     14  C   UNL     1       4.374   4.555  19.549  0.00  0.00    +0.000 C 
ATOM     15  C   UNL     1       4.354   3.020  19.557  0.00  0.00    +0.000 C 
ATOM     16  C   UNL     1       3.572   2.444  20.744  0.00  0.00    +0.000 C 
ATOM     17  C   UNL     1       2.205   3.103  20.905  0.00  0.00    +0.000 C 
ATOM     18  C   UNL     1       2.347   4.619  20.920  0.00  0.00    +0.000 C 
ENDBRANCH  10  13
BRANCH   3  19
ATOM     19  S   UNL     1       1.059  12.924  19.381  0.00  0.00    +0.000 S 
ATOM     20  O   UNL     1       1.875  13.526  20.419  0.00  0.00    +0.000 OA
ATOM     21  O   UNL     1       1.258  13.338  17.998  0.00  0.00    +0.000 OA
BRANCH  19  22
ATOM     22  C   UNL     1      -0.623  13.309  19.826  0.00  0.00    +0.000 A 
ATOM     23  C   UNL     1      -0.891  14.478  20.543  0.00  0.00    +0.000 A 
ATOM     24  C   UNL     1      -2.191  14.723  20.992  0.00  0.00    +0.000 A 
ATOM     25  C   UNL     1      -3.221  13.814  20.713  0.00  0.00    +0.000 A 
ATOM     26  C   UNL     1      -4.605  14.027  21.253  0.00  0.00    +0.000 C 
ATOM     27  C   UNL     1      -2.948  12.684  19.931  0.00  0.00    +0.000 A 
ATOM     28  C   UNL     1      -1.651  12.426  19.489  0.00  0.00    +0.000 A 
ENDBRANCH  19  22
ENDBRANCH   3  19
BRANCH   1  29
ATOM     29  C   UNL     1       0.175   8.625  22.004  0.00  0.00    +0.000 C 
BRANCH  29  30
ATOM     30  C   UNL     1       0.082   9.694  23.098  0.00  0.00    +0.000 C 
BRANCH  30  32
ATOM     31  C   UNL     1      -1.238  11.818  23.163  0.00  0.00    +0.000 C 
ATOM     32  C   UNL     1      -1.316  10.299  23.208  0.00  0.00    +0.000 C 
ENDBRANCH  30  32
ENDBRANCH  29  30
ENDBRANCH   1  29
TORSDOF 6
ENDMDL
MODEL 5
REMARK VINA RESULT:      -6.8      2.193      3.106
REMARK  Name = 
REMARK  8 active torsions:
REMARK  status: ('A' for Active; 'I' for Inactive)
REMARK    1  A    between atoms: C_1  and  C_2
REMARK    2  A    between atoms: C_2  and  C_3
REMARK    3  A    between atoms: C_3  and  C_4
REMARK    4  A    between atoms: C_4  and  N_5
REMARK    5  A    between atoms: C_7  and  S_8
REMARK    6  A    between atoms: S_8  and  C_11
REMARK    7  A    between atoms: C_14  and  C_15
REMARK    8  A    between atoms: C_24  and  N_25
REMARK                            x       y       z     vdW  Elec       q    Type
REMARK                         _______ _______ _______ _____ _____    ______ ____
ROOT
ATOM      1  N   UNL     1      -1.821  11.984  19.510  0.00  0.00    +0.000 N 
ATOM      2  C   UNL     1      -2.853  12.622  20.192  0.00  0.00    +0.000 A 
ATOM      3  C   UNL     1      -3.001  12.694  21.520  0.00  0.00    +0.000 A 
ATOM      4  C   UNL     1      -2.020  11.989  22.356  0.00  0.00    +0.000 A 
ATOM      5  O   UNL     1      -2.079  11.989  23.580  0.00  0.00    +0.000 OA
ATOM      6  C   UNL     1      -0.958  11.226  21.667  0.00  0.00    +0.000 A 
ATOM      7  C   UNL     1      -0.070  10.477  22.452  0.00  0.00    +0.000 A 
ATOM      8  C   UNL     1       0.831   9.617  21.839  0.00  0.00    +0.000 A 
ATOM      9  F   UNL     1       1.603   8.851  22.626  0.00  0.00    +0.000 F 
ATOM     10  C   UNL     1       0.874   9.498  20.448  0.00  0.00    +0.000 A 
ATOM     11  C   UNL     1       0.064  10.381  19.696  0.00  0.00    +0.000 A 
ATOM     12  C   UNL     1      -0.900  11.222  20.260  0.00  0.00    +0.000 A 
ENDROOT
BRANCH  10  13
ATOM     13  N   UNL     1       1.624   8.561  19.732  0.00  0.00    +0.000 N 
ATOM     14  C   UNL     1       1.648   7.148  20.123  0.00  0.00    +0.000 C 
ATOM     15  C   UNL     1       2.940   6.537  19.563  0.00  0.00    +0.000 C 
ATOM     16  C   UNL     1       3.112   6.790  18.061  0.00  0.00    +0.000 C 
ATOM     17  C   UNL     1       2.886   8.254  17.695  0.00  0.00    +0.000 C 
ATOM     18  C   UNL     1       1.564   8.745  18.270  0.00  0.00    +0.000 C 
ENDBRANCH  10  13
BRANCH   3  19
ATOM     19  S   UNL     1      -4.363  13.514  22.176  0.00  0.00    +0.000 S 
ATOM     20  O   UNL     1      -5.330  12.545  22.657  0.00  0.00    +0.000 OA
ATOM     21  O   UNL     1      -3.890  14.551  23.084  0.00  0.00    +0.000 OA
BRANCH  19  22
ATOM     22  C   UNL     1      -5.156  14.320  20.798  0.00  0.00    +0.000 A 
ATOM     23  C   UNL     1      -4.929  15.682  20.578  0.00  0.00    +0.000 A 
ATOM     24  C   UNL     1      -5.638  16.340  19.571  0.00  0.00    +0.000 A 
ATOM     25  C   UNL     1      -6.557  15.640  18.777  0.00  0.00    +0.000 A 
ATOM     26  C   UNL     1      -7.381  16.350  17.743  0.00  0.00    +0.000 C 
ATOM     27  C   UNL     1      -6.719  14.261  18.965  0.00  0.00    +0.000 A 
ATOM     28  C   UNL     1      -6.023  13.598  19.975  0.00  0.00    +0.000 A 
ENDBRANCH  19  22
ENDBRANCH   3  19
BRANCH   1  29
ATOM     29  C   UNL     1      -1.748  12.055  18.031  0.00  0.00    +0.000 C 
BRANCH  29  30
ATOM     30  C   UNL     1      -2.588  10.935  17.408  0.00  0.00    +0.000 C 
BRANCH  30  32
ATOM     31  C   UNL     1      -5.075  10.995  17.665  0.00  0.00    +0.000 C 
ATOM     32  C   UNL     1      -3.898  11.447  16.813  0.00  0.00    +0.000 C 
ENDBRANCH  30  32
ENDBRANCH  29  30
ENDBRANCH   1  29
TORSDOF 6
ENDMDL
MODEL 6
REMARK VINA RESULT:      -6.8      3.289      4.510
REMARK  Name = 
REMARK  8 active torsions:
REMARK  status: ('A' for Active; 'I' for Inactive)
REMARK    1  A    between atoms: C_1  and  C_2
REMARK    2  A    between atoms: C_2  and  C_3
REMARK    3  A    between atoms: C_3  and  C_4
REMARK    4  A    between atoms: C_4  and  N_5
REMARK    5  A    between atoms: C_7  and  S_8
REMARK    6  A    between atoms: S_8  and  C_11
REMARK    7  A    between atoms: C_14  and  C_15
REMARK    8  A    between atoms: C_24  and  N_25
REMARK                            x       y       z     vdW  Elec       q    Type
REMARK                         _______ _______ _______ _____ _____    ______ ____
ROOT
ATOM      1  N   UNL     1      -3.774  10.963  17.908  0.00  0.00    +0.000 N 
ATOM      2  C   UNL     1      -4.928  11.601  18.355  0.00  0.00    +0.000 A 
ATOM      3  C   UNL     1      -5.008  12.492  19.351  0.00  0.00    +0.000 A 
ATOM      4  C   UNL     1      -3.778  12.797  20.094  0.00  0.00    +0.000 A 
ATOM      5  O   UNL     1      -3.754  13.592  21.027  0.00  0.00    +0.000 OA
ATOM      6  C   UNL     1      -2.548  12.076  19.706  0.00  0.00    +0.000 A 
ATOM      7  C   UNL     1      -1.389  12.292  20.465  0.00  0.00    +0.000 A 
ATOM      8  C   UNL     1      -0.264  11.510  20.241  0.00  0.00    +0.000 A 
ATOM      9  F   UNL     1       0.795  11.688  21.046  0.00  0.00    +0.000 F 
ATOM     10  C   UNL     1      -0.266  10.519  19.258  0.00  0.00    +0.000 A 
ATOM     11  C   UNL     1      -1.404  10.437  18.420  0.00  0.00    +0.000 A 
ATOM     12  C   UNL     1      -2.583  11.157  18.639  0.00  0.00    +0.000 A 
ENDROOT
BRANCH  10  13
ATOM     13  N   UNL     1       0.743   9.576  19.048  0.00  0.00    +0.000 N 
ATOM     14  C   UNL     1       1.824   9.818  18.088  0.00  0.00    +0.000 C 
ATOM     15  C   UNL     1       2.384   8.451  17.669  0.00  0.00    +0.000 C 
ATOM     16  C   UNL     1       2.775   7.579  18.868  0.00  0.00    +0.000 C 
ATOM     17  C   UNL     1       1.673   7.524  19.922  0.00  0.00    +0.000 C 
ATOM     18  C   UNL     1       1.218   8.930  20.287  0.00  0.00    +0.000 C 
ENDBRANCH  10  13
BRANCH   3  19
ATOM     19  S   UNL     1      -6.537  13.156  19.771  0.00  0.00    +0.000 S 
ATOM     20  O   UNL     1      -7.589  12.230  19.396  0.00  0.00    +0.000 OA
ATOM     21  O   UNL     1      -6.476  13.636  21.146  0.00  0.00    +0.000 OA
BRANCH  19  22
ATOM     22  C   UNL     1      -6.761  14.572  18.712  0.00  0.00    +0.000 A 
ATOM     23  C   UNL     1      -7.055  14.376  17.360  0.00  0.00    +0.000 A 
ATOM     24  C   UNL     1      -7.116  15.479  16.506  0.00  0.00    +0.000 A 
ATOM     25  C   UNL     1      -6.901  16.772  17.001  0.00  0.00    +0.000 A 
ATOM     26  C   UNL     1      -6.889  17.959  16.082  0.00  0.00    +0.000 C 
ATOM     27  C   UNL     1      -6.678  16.956  18.372  0.00  0.00    +0.000 A 
ATOM     28  C   UNL     1      -6.604  15.859  19.230  0.00  0.00    +0.000 A 
ENDBRANCH  19  22
ENDBRANCH   3  19
BRANCH   1  29
ATOM     29  C   UNL     1      -3.829  10.054  16.738  0.00  0.00    +0.000 C 
BRANCH  29  30
ATOM     30  C   UNL     1      -3.655  10.854  15.443  0.00  0.00    +0.000 C 
BRANCH  30  32
ATOM     31  C   UNL     1      -3.963   9.933  13.138  0.00  0.00    +0.000 C 
ATOM     32  C   UNL     1      -3.019  10.029  14.326  0.00  0.00    +0.000 C 
ENDBRANCH  30  32
ENDBRANCH  29  30
ENDBRANCH   1  29
TORSDOF 6
ENDMDL
MODEL 7
REMARK VINA RESULT:      -6.8      5.699     11.006
REMARK  Name = 
REMARK  8 active torsions:
REMARK  status: ('A' for Active; 'I' for Inactive)
REMARK    1  A    between atoms: C_1  and  C_2
REMARK    2  A    between atoms: C_2  and  C_3
REMARK    3  A    between atoms: C_3  and  C_4
REMARK    4  A    between atoms: C_4  and  N_5
REMARK    5  A    between atoms: C_7  and  S_8
REMARK    6  A    between atoms: S_8  and  C_11
REMARK    7  A    between atoms: C_14  and  C_15
REMARK    8  A    between atoms: C_24  and  N_25
REMARK                            x       y       z     vdW  Elec       q    Type
REMARK                         _______ _______ _______ _____ _____    ______ ____
ROOT
ATOM      1  N   UNL     1       2.371   6.015  19.818  0.00  0.00    +0.000 N 
ATOM      2  C   UNL     1       3.403   5.157  19.446  0.00  0.00    +0.000 A 
ATOM      3  C   UNL     1       4.434   5.456  18.646  0.00  0.00    +0.000 A 
ATOM      4  C   UNL     1       4.468   6.798  18.048  0.00  0.00    +0.000 A 
ATOM      5  O   UNL     1       5.365   7.159  17.297  0.00  0.00    +0.000 OA
ATOM      6  C   UNL     1       3.344   7.709  18.350  0.00  0.00    +0.000 A 
ATOM      7  C   UNL     1       3.320   8.959  17.715  0.00  0.00    +0.000 A 
ATOM      8  C   UNL     1       2.201   9.771  17.839  0.00  0.00    +0.000 A 
ATOM      9  F   UNL     1       2.180  10.920  17.145  0.00  0.00    +0.000 F 
ATOM     10  C   UNL     1       1.104   9.366  18.602  0.00  0.00    +0.000 A 
ATOM     11  C   UNL     1       1.234   8.168  19.342  0.00  0.00    +0.000 A 
ATOM     12  C   UNL     1       2.311   7.285  19.208  0.00  0.00    +0.000 A 
ENDROOT
BRANCH  10  13
ATOM     13  N   UNL     1      -0.127  10.024  18.672  0.00  0.00    +0.000 N 
ATOM     14  C   UNL     1      -0.239  11.370  19.243  0.00  0.00    +0.000 C 
ATOM     15  C   UNL     1      -1.691  11.556  19.705  0.00  0.00    +0.000 C 
ATOM     16  C   UNL     1      -2.709  11.240  18.603  0.00  0.00    +0.000 C 
ATOM     17  C   UNL     1      -2.420   9.906  17.919  0.00  0.00    +0.000 C 
ATOM     18  C   UNL     1      -0.966   9.844  17.472  0.00  0.00    +0.000 C 
ENDBRANCH  10  13
BRANCH   3  19
ATOM     19  S   UNL     1       5.601   4.247  18.285  0.00  0.00    +0.000 S 
ATOM     20  O   UNL     1       6.872   4.600  18.892  0.00  0.00    +0.000 OA
ATOM     21  O   UNL     1       5.023   2.940  18.569  0.00  0.00    +0.000 OA
BRANCH  19  22
ATOM     22  C   UNL     1       5.879   4.348  16.528  0.00  0.00    +0.000 A 
ATOM     23  C   UNL     1       4.857   3.975  15.650  0.00  0.00    +0.000 A 
ATOM     24  C   UNL     1       5.111   3.943  14.277  0.00  0.00    +0.000 A 
ATOM     25  C   UNL     1       6.373   4.295  13.781  0.00  0.00    +0.000 A 
ATOM     26  C   UNL     1       6.683   4.192  12.316  0.00  0.00    +0.000 C 
ATOM     27  C   UNL     1       7.364   4.734  14.669  0.00  0.00    +0.000 A 
ATOM     28  C   UNL     1       7.123   4.759  16.042  0.00  0.00    +0.000 A 
ENDBRANCH  19  22
ENDBRANCH   3  19
BRANCH   1  29
ATOM     29  C   UNL     1       1.335   5.563  20.777  0.00  0.00    +0.000 C 
BRANCH  29  30
ATOM     30  C   UNL     1       1.261   4.032  20.790  0.00  0.00    +0.000 C 
BRANCH  30  32
ATOM     31  C   UNL     1       1.258   2.159  19.132  0.00  0.00    +0.000 C 
ATOM     32  C   UNL     1       0.596   3.468  19.536  0.00  0.00    +0.000 C 
ENDBRANCH  30  32
ENDBRANCH  29  30
ENDBRANCH   1  29
TORSDOF 6
ENDMDL
MODEL 8
REMARK VINA RESULT:      -6.7      3.071      4.070
REMARK  Name = 
REMARK  8 active torsions:
REMARK  status: ('A' for Active; 'I' for Inactive)
REMARK    1  A    between atoms: C_1  and  C_2
REMARK    2  A    between atoms: C_2  and  C_3
REMARK    3  A    between atoms: C_3  and  C_4
REMARK    4  A    between atoms: C_4  and  N_5
REMARK    5  A    between atoms: C_7  and  S_8
REMARK    6  A    between atoms: S_8  and  C_11
REMARK    7  A    between atoms: C_14  and  C_15
REMARK    8  A    between atoms: C_24  and  N_25
REMARK                            x       y       z     vdW  Elec       q    Type
REMARK                         _______ _______ _______ _____ _____    ______ ____
ROOT
ATOM      1  N   UNL     1       1.409  10.426  19.276  0.00  0.00    +0.000 N 
ATOM      2  C   UNL     1       0.531  11.266  19.956  0.00  0.00    +0.000 A 
ATOM      3  C   UNL     1      -0.117  10.985  21.093  0.00  0.00    +0.000 A 
ATOM      4  C   UNL     1       0.058   9.643  21.665  0.00  0.00    +0.000 A 
ATOM      5  O   UNL     1      -0.501   9.290  22.696  0.00  0.00    +0.000 OA
ATOM      6  C   UNL     1       0.915   8.692  20.926  0.00  0.00    +0.000 A 
ATOM      7  C   UNL     1       1.019   7.382  21.414  0.00  0.00    +0.000 A 
ATOM      8  C   UNL     1       1.674   6.417  20.661  0.00  0.00    +0.000 A 
ATOM      9  F   UNL     1       1.675   5.156  21.120  0.00  0.00    +0.000 F 
ATOM     10  C   UNL     1       2.244   6.738  19.427  0.00  0.00    +0.000 A 
ATOM     11  C   UNL     1       2.243   8.101  19.046  0.00  0.00    +0.000 A 
ATOM     12  C   UNL     1       1.549   9.099  19.737  0.00  0.00    +0.000 A 
ENDROOT
BRANCH  10  13
ATOM     13  N   UNL     1       2.786   5.826  18.518  0.00  0.00    +0.000 N 
ATOM     14  C   UNL     1       1.948   4.827  17.850  0.00  0.00    +0.000 C 
ATOM     15  C   UNL     1       2.862   3.671  17.418  0.00  0.00    +0.000 C 
ATOM     16  C   UNL     1       4.069   4.145  16.601  0.00  0.00    +0.000 C 
ATOM     17  C   UNL     1       4.788   5.317  17.264  0.00  0.00    +0.000 C 
ATOM     18  C   UNL     1       3.795   6.416  17.617  0.00  0.00    +0.000 C 
ENDBRANCH  10  13
BRANCH   3  19
ATOM     19  S   UNL     1      -1.182  12.152  21.769  0.00  0.00    +0.000 S 
ATOM     20  O   UNL     1      -2.499  12.014  21.173  0.00  0.00    +0.000 OA
ATOM     21  O   UNL     1      -1.057  12.112  23.221  0.00  0.00    +0.000 OA
BRANCH  19  22
ATOM     22  C   UNL     1      -0.583  13.737  21.217  0.00  0.00    +0.000 A 
ATOM     23  C   UNL     1      -1.134  14.315  20.070  0.00  0.00    +0.000 A 
ATOM     24  C   UNL     1      -0.587  15.499  19.570  0.00  0.00    +0.000 A 
ATOM     25  C   UNL     1       0.493  16.112  20.221  0.00  0.00    +0.000 A 
ATOM     26  C   UNL     1       1.138  17.342  19.653  0.00  0.00    +0.000 C 
ATOM     27  C   UNL     1       0.985  15.556  21.409  0.00  0.00    +0.000 A 
ATOM     28  C   UNL     1       0.453  14.368  21.908  0.00  0.00    +0.000 A 
ENDBRANCH  19  22
ENDBRANCH   3  19
BRANCH   1  29
ATOM     29  C   UNL     1       2.115  10.907  18.065  0.00  0.00    +0.000 C 
BRANCH  29  30
ATOM     30  C   UNL     1       1.903  12.416  17.897  0.00  0.00    +0.000 C 
BRANCH  30  32
ATOM     31  C   UNL     1       3.152  14.577  18.053  0.00  0.00    +0.000 C 
ATOM     32  C   UNL     1       2.881  13.241  18.729  0.00  0.00    +0.000 C 
ENDBRANCH  30  32
ENDBRANCH  29  30
ENDBRANCH   1  29
TORSDOF 6
ENDMDL
MODEL 9
REMARK VINA RESULT:      -6.6      3.177      4.462
REMARK  Name = 
REMARK  8 active torsions:
REMARK  status: ('A' for Active; 'I' for Inactive)
REMARK    1  A    between atoms: C_1  and  C_2
REMARK    2  A    between atoms: C_2  and  C_3
REMARK    3  A    between atoms: C_3  and  C_4
REMARK    4  A    between atoms: C_4  and  N_5
REMARK    5  A    between atoms: C_7  and  S_8
REMARK    6  A    between atoms: S_8  and  C_11
REMARK    7  A    between atoms: C_14  and  C_15
REMARK    8  A    between atoms: C_24  and  N_25
REMARK                            x       y       z     vdW  Elec       q    Type
REMARK                         _______ _______ _______ _____ _____    ______ ____
ROOT
ATOM      1  N   UNL     1       0.335  10.569  20.958  0.00  0.00    +0.000 N 
ATOM      2  C   UNL     1       0.388  11.957  20.861  0.00  0.00    +0.000 A 
ATOM      3  C   UNL     1       0.924  12.662  19.858  0.00  0.00    +0.000 A 
ATOM      4  C   UNL     1       1.574  11.918  18.770  0.00  0.00    +0.000 A 
ATOM      5  O   UNL     1       2.100  12.477  17.815  0.00  0.00    +0.000 OA
ATOM      6  C   UNL     1       1.615  10.445  18.880  0.00  0.00    +0.000 A 
ATOM      7  C   UNL     1       2.310   9.730  17.894  0.00  0.00    +0.000 A 
ATOM      8  C   UNL     1       2.515   8.366  18.051  0.00  0.00    +0.000 A 
ATOM      9  F   UNL     1       3.261   7.734  17.131  0.00  0.00    +0.000 F 
ATOM     10  C   UNL     1       2.026   7.693  19.172  0.00  0.00    +0.000 A 
ATOM     11  C   UNL     1       1.206   8.425  20.062  0.00  0.00    +0.000 A 
ATOM     12  C   UNL     1       1.016   9.809  19.984  0.00  0.00    +0.000 A 
ENDROOT
BRANCH  10  13
ATOM     13  N   UNL     1       2.302   6.365  19.511  0.00  0.00    +0.000 N 
ATOM     14  C   UNL     1       3.653   5.812  19.383  0.00  0.00    +0.000 C 
ATOM     15  C   UNL     1       3.518   4.289  19.255  0.00  0.00    +0.000 C 
ATOM     16  C   UNL     1       2.676   3.672  20.378  0.00  0.00    +0.000 C 
ATOM     17  C   UNL     1       1.360   4.417  20.584  0.00  0.00    +0.000 C 
ATOM     18  C   UNL     1       1.614   5.910  20.734  0.00  0.00    +0.000 C 
ENDBRANCH  10  13
BRANCH   3  19
ATOM     19  S   UNL     1       0.912  14.380  19.932  0.00  0.00    +0.000 S 
ATOM     20  O   UNL     1       2.178  14.854  20.459  0.00  0.00    +0.000 OA
ATOM     21  O   UNL     1       0.441  14.899  18.654  0.00  0.00    +0.000 OA
BRANCH  19  22
ATOM     22  C   UNL     1      -0.298  14.806  21.169  0.00  0.00    +0.000 A 
ATOM     23  C   UNL     1      -1.614  15.069  20.778  0.00  0.00    +0.000 A 
ATOM     24  C   UNL     1      -2.535  15.515  21.729  0.00  0.00    +0.000 A 
ATOM     25  C   UNL     1      -2.149  15.682  23.066  0.00  0.00    +0.000 A 
ATOM     26  C   UNL     1      -3.106  16.232  24.082  0.00  0.00    +0.000 C 
ATOM     27  C   UNL     1      -0.845  15.346  23.453  0.00  0.00    +0.000 A 
ATOM     28  C   UNL     1       0.084  14.910  22.508  0.00  0.00    +0.000 A 
ENDBRANCH  19  22
ENDBRANCH   3  19
BRANCH   1  29
ATOM     29  C   UNL     1      -0.363   9.927  22.098  0.00  0.00    +0.000 C 
BRANCH  29  30
ATOM     30  C   UNL     1      -0.906  10.996  23.052  0.00  0.00    +0.000 C 
BRANCH  30  32
ATOM     31  C   UNL     1      -3.062  12.161  23.550  0.00  0.00    +0.000 C 
ATOM     32  C   UNL     1      -2.079  11.771  22.457  0.00  0.00    +0.000 C 
ENDBRANCH  30  32
ENDBRANCH  29  30
ENDBRANCH   1  29
TORSDOF 6
ENDMDL
