MODEL 1
REMARK VINA RESULT:      -9.1      0.000      0.000
REMARK  Name = 
REMARK  5 active torsions:
REMARK  status: ('A' for Active; 'I' for Inactive)
REMARK    1  A    between atoms: C_11  and  O_12
REMARK    2  A    between atoms: O_12  and  C_13
REMARK    3  A    between atoms: N_22  and  C_23
REMARK    4  A    between atoms: C_23  and  C_24
REMARK    5  A    between atoms: C_27  and  O_28
REMARK                            x       y       z     vdW  Elec       q    Type
REMARK                         _______ _______ _______ _____ _____    ______ ____
ROOT
ATOM      1  O   UNL     1       1.313   9.277  21.121  0.00  0.00    +0.000 OA
ATOM      2  C   UNL     1       1.661   8.246  20.566  0.00  0.00    +0.000 A 
ATOM      3  N   UNL     1       1.696   6.979  21.163  0.00  0.00    +0.000 N 
ATOM      4  C   UNL     1       2.116   6.055  20.205  0.00  0.00    +0.000 A 
ATOM      5  C   UNL     1       2.298   4.698  20.307  0.00  0.00    +0.000 A 
ATOM      6  N   UNL     1       2.001   4.063  21.460  0.00  0.00    +0.000 NA
ATOM      7  C   UNL     1       2.217   2.733  21.522  0.00  0.00    +0.000 A 
ATOM      8  C   UNL     1       2.781   2.003  20.493  0.00  0.00    +0.000 A 
ATOM      9  C   UNL     1       3.091   2.667  19.307  0.00  0.00    +0.000 A 
ATOM     10  C   UNL     1       2.808   4.047  19.161  0.00  0.00    +0.000 A 
ATOM     11  C   UNL     1       2.994   4.823  17.980  0.00  0.00    +0.000 A 
ATOM     12  N   UNL     1       2.725   6.157  17.889  0.00  0.00    +0.000 NA
ATOM     13  C   UNL     1       2.346   6.730  19.022  0.00  0.00    +0.000 A 
ATOM     14  N   UNL     1       2.088   8.084  19.243  0.00  0.00    +0.000 N 
ATOM     15  H   UNL     1       1.451   6.764  22.115  0.00  0.00    +0.000 HD
ENDROOT
BRANCH  11  16
ATOM     16  O   UNL     1       3.462   4.189  16.828  0.00  0.00    +0.000 OA
BRANCH  16  17
ATOM     17  C   UNL     1       4.809   4.349  16.542  0.00  0.00    +0.000 A 
ATOM     18  C   UNL     1       5.236   4.397  15.210  0.00  0.00    +0.000 A 
ATOM     19  C   UNL     1       6.580   4.663  14.917  0.00  0.00    +0.000 A 
ATOM     20  C   UNL     1       7.493   4.876  15.951  0.00  0.00    +0.000 A 
ATOM     21  C   UNL     1       7.071   4.770  17.268  0.00  0.00    +0.000 A 
ATOM     22  F   UNL     1       7.940   4.984  18.263  0.00  0.00    +0.000 F 
ATOM     23  C   UNL     1       5.751   4.471  17.573  0.00  0.00    +0.000 A 
ENDBRANCH  16  17
ENDBRANCH  11  16
BRANCH  14  24
ATOM     24  C   UNL     1       2.174   9.102  18.231  0.00  0.00    +0.000 C 
BRANCH  24  25
ATOM     25  C   UNL     1       1.024  10.092  18.180  0.00  0.00    +0.000 A 
ATOM     26  C   UNL     1      -0.265   9.638  17.843  0.00  0.00    +0.000 A 
ATOM     27  C   UNL     1      -1.384  10.465  18.002  0.00  0.00    +0.000 A 
ATOM     28  C   UNL     1      -1.217  11.755  18.493  0.00  0.00    +0.000 A 
ATOM     29  C   UNL     1       0.049  12.240  18.785  0.00  0.00    +0.000 A 
ATOM     30  C   UNL     1       1.164  11.414  18.629  0.00  0.00    +0.000 A 
BRANCH  28  31
ATOM     31  O   UNL     1      -2.282  12.575  18.726  0.00  0.00    +0.000 OA
ATOM     32  H   UNL     1      -2.109  13.082  19.535  0.00  0.00    +0.000 HD
ENDBRANCH  28  31
ENDBRANCH  24  25
ENDBRANCH  14  24
TORSDOF 5
ENDMDL
MODEL 2
REMARK VINA RESULT:      -9.0      0.866      1.233
REMARK  Name = 
REMARK  5 active torsions:
REMARK  status: ('A' for Active; 'I' for Inactive)
REMARK    1  A    between atoms: C_11  and  O_12
REMARK    2  A    between atoms: O_12  and  C_13
REMARK    3  A    between atoms: N_22  and  C_23
REMARK    4  A    between atoms: C_23  and  C_24
REMARK    5  A    between atoms: C_27  and  O_28
REMARK                            x       y       z     vdW  Elec       q    Type
REMARK                         _______ _______ _______ _____ _____    ______ ____
ROOT
ATOM      1  O   UNL     1       1.183   9.287  21.129  0.00  0.00    +0.000 OA
ATOM      2  C   UNL     1       1.573   8.267  20.581  0.00  0.00    +0.000 A 
ATOM      3  N   UNL     1       1.650   7.005  21.184  0.00  0.00    +0.000 N 
ATOM      4  C   UNL     1       2.112   6.092  20.233  0.00  0.00    +0.000 A 
ATOM      5  C   UNL     1       2.342   4.744  20.343  0.00  0.00    +0.000 A 
ATOM      6  N   UNL     1       2.059   4.103  21.497  0.00  0.00    +0.000 NA
ATOM      7  C   UNL     1       2.324   2.783  21.566  0.00  0.00    +0.000 A 
ATOM      8  C   UNL     1       2.922   2.069  20.545  0.00  0.00    +0.000 A 
ATOM      9  C   UNL     1       3.218   2.740  19.358  0.00  0.00    +0.000 A 
ATOM     10  C   UNL     1       2.885   4.107  19.205  0.00  0.00    +0.000 A 
ATOM     11  C   UNL     1       3.052   4.885  18.021  0.00  0.00    +0.000 A 
ATOM     12  N   UNL     1       2.735   6.208  17.922  0.00  0.00    +0.000 NA
ATOM     13  C   UNL     1       2.326   6.771  19.050  0.00  0.00    +0.000 A 
ATOM     14  N   UNL     1       2.017   8.115  19.262  0.00  0.00    +0.000 N 
ATOM     15  H   UNL     1       1.405   6.785  22.135  0.00  0.00    +0.000 HD
ENDROOT
BRANCH  11  16
ATOM     16  O   UNL     1       3.552   4.263  16.875  0.00  0.00    +0.000 OA
BRANCH  16  17
ATOM     17  C   UNL     1       4.882   4.513  16.572  0.00  0.00    +0.000 A 
ATOM     18  C   UNL     1       5.832   4.554  17.599  0.00  0.00    +0.000 A 
ATOM     19  C   UNL     1       7.190   4.701  17.287  0.00  0.00    +0.000 A 
ATOM     20  C   UNL     1       7.596   4.812  15.956  0.00  0.00    +0.000 A 
ATOM     21  C   UNL     1       6.640   4.828  14.951  0.00  0.00    +0.000 A 
ATOM     22  F   UNL     1       7.024   4.923  13.671  0.00  0.00    +0.000 F 
ATOM     23  C   UNL     1       5.289   4.720  15.247  0.00  0.00    +0.000 A 
ENDBRANCH  16  17
ENDBRANCH  11  16
BRANCH  14  24
ATOM     24  C   UNL     1       2.073   9.131  18.247  0.00  0.00    +0.000 C 
BRANCH  24  25
ATOM     25  C   UNL     1       0.904  10.098  18.202  0.00  0.00    +0.000 A 
ATOM     26  C   UNL     1      -0.380   9.617  17.882  0.00  0.00    +0.000 A 
ATOM     27  C   UNL     1      -1.513  10.422  18.048  0.00  0.00    +0.000 A 
ATOM     28  C   UNL     1      -1.367  11.717  18.529  0.00  0.00    +0.000 A 
ATOM     29  C   UNL     1      -0.108  12.229  18.806  0.00  0.00    +0.000 A 
ATOM     30  C   UNL     1       1.022  11.425  18.643  0.00  0.00    +0.000 A 
BRANCH  28  31
ATOM     31  O   UNL     1      -2.445  12.517  18.769  0.00  0.00    +0.000 OA
ATOM     32  H   UNL     1      -2.163  13.255  19.333  0.00  0.00    +0.000 HD
ENDBRANCH  28  31
ENDBRANCH  24  25
ENDBRANCH  14  24
TORSDOF 5
ENDMDL
MODEL 3
REMARK VINA RESULT:      -9.0      1.025      1.376
REMARK  Name = 
REMARK  5 active torsions:
REMARK  status: ('A' for Active; 'I' for Inactive)
REMARK    1  A    between atoms: C_11  and  O_12
REMARK    2  A    between atoms: O_12  and  C_13
REMARK    3  A    between atoms: N_22  and  C_23
REMARK    4  A    between atoms: C_23  and  C_24
REMARK    5  A    between atoms: C_27  and  O_28
REMARK                            x       y       z     vdW  Elec       q    Type
REMARK                         _______ _______ _______ _____ _____    ______ ____
ROOT
ATOM      1  O   UNL     1       0.807   9.535  21.617  0.00  0.00    +0.000 OA
ATOM      2  C   UNL     1       1.247   8.592  20.976  0.00  0.00    +0.000 A 
ATOM      3  N   UNL     1       1.462   7.303  21.479  0.00  0.00    +0.000 N 
ATOM      4  C   UNL     1       1.941   6.501  20.441  0.00  0.00    +0.000 A 
ATOM      5  C   UNL     1       2.287   5.173  20.438  0.00  0.00    +0.000 A 
ATOM      6  N   UNL     1       2.125   4.432  21.555  0.00  0.00    +0.000 NA
ATOM      7  C   UNL     1       2.501   3.138  21.513  0.00  0.00    +0.000 A 
ATOM      8  C   UNL     1       3.095   2.551  20.411  0.00  0.00    +0.000 A 
ATOM      9  C   UNL     1       3.266   3.325  19.264  0.00  0.00    +0.000 A 
ATOM     10  C   UNL     1       2.814   4.666  19.229  0.00  0.00    +0.000 A 
ATOM     11  C   UNL     1       2.848   5.535  18.099  0.00  0.00    +0.000 A 
ATOM     12  N   UNL     1       2.419   6.830  18.116  0.00  0.00    +0.000 NA
ATOM     13  C   UNL     1       2.031   7.276  19.301  0.00  0.00    +0.000 A 
ATOM     14  N   UNL     1       1.625   8.571  19.628  0.00  0.00    +0.000 N 
ATOM     15  H   UNL     1       1.291   6.997  22.423  0.00  0.00    +0.000 HD
ENDROOT
BRANCH  11  16
ATOM     16  O   UNL     1       3.330   5.040  16.887  0.00  0.00    +0.000 OA
BRANCH  16  17
ATOM     17  C   UNL     1       4.703   5.105  16.699  0.00  0.00    +0.000 A 
ATOM     18  C   UNL     1       5.358   4.077  16.011  0.00  0.00    +0.000 A 
ATOM     19  C   UNL     1       6.726   4.189  15.729  0.00  0.00    +0.000 A 
ATOM     20  C   UNL     1       7.436   5.320  16.137  0.00  0.00    +0.000 A 
ATOM     21  C   UNL     1       6.789   6.305  16.868  0.00  0.00    +0.000 A 
ATOM     22  F   UNL     1       7.461   7.397  17.253  0.00  0.00    +0.000 F 
ATOM     23  C   UNL     1       5.443   6.191  17.187  0.00  0.00    +0.000 A 
ENDBRANCH  16  17
ENDBRANCH  11  16
BRANCH  14  24
ATOM     24  C   UNL     1       1.539   9.656  18.689  0.00  0.00    +0.000 C 
BRANCH  24  25
ATOM     25  C   UNL     1       0.147  10.199  18.418  0.00  0.00    +0.000 A 
ATOM     26  C   UNL     1      -0.165  11.519  18.794  0.00  0.00    +0.000 A 
ATOM     27  C   UNL     1      -1.351  12.128  18.364  0.00  0.00    +0.000 A 
ATOM     28  C   UNL     1      -2.234  11.416  17.562  0.00  0.00    +0.000 A 
ATOM     29  C   UNL     1      -1.970  10.098  17.219  0.00  0.00    +0.000 A 
ATOM     30  C   UNL     1      -0.786   9.492  17.645  0.00  0.00    +0.000 A 
BRANCH  28  31
ATOM     31  O   UNL     1      -3.369  11.987  17.066  0.00  0.00    +0.000 OA
ATOM     32  H   UNL     1      -3.763  12.542  17.758  0.00  0.00    +0.000 HD
ENDBRANCH  28  31
ENDBRANCH  24  25
ENDBRANCH  14  24
TORSDOF 5
ENDMDL
MODEL 4
REMARK VINA RESULT:      -8.9      1.516      1.691
REMARK  Name = 
REMARK  5 active torsions:
REMARK  status: ('A' for Active; 'I' for Inactive)
REMARK    1  A    between atoms: C_11  and  O_12
REMARK    2  A    between atoms: O_12  and  C_13
REMARK    3  A    between atoms: N_22  and  C_23
REMARK    4  A    between atoms: C_23  and  C_24
REMARK    5  A    between atoms: C_27  and  O_28
REMARK                            x       y       z     vdW  Elec       q    Type
REMARK                         _______ _______ _______ _____ _____    ______ ____
ROOT
ATOM      1  O   UNL     1      -0.077   9.337  21.545  0.00  0.00    +0.000 OA
ATOM      2  C   UNL     1       0.641   8.516  20.993  0.00  0.00    +0.000 A 
ATOM      3  N   UNL     1       0.754   7.168  21.353  0.00  0.00    +0.000 N 
ATOM      4  C   UNL     1       1.644   6.551  20.472  0.00  0.00    +0.000 A 
ATOM      5  C   UNL     1       2.068   5.247  20.414  0.00  0.00    +0.000 A 
ATOM      6  N   UNL     1       1.562   4.335  21.270  0.00  0.00    +0.000 NA
ATOM      7  C   UNL     1       2.025   3.071  21.191  0.00  0.00    +0.000 A 
ATOM      8  C   UNL     1       3.029   2.678  20.326  0.00  0.00    +0.000 A 
ATOM      9  C   UNL     1       3.552   3.628  19.449  0.00  0.00    +0.000 A 
ATOM     10  C   UNL     1       3.043   4.949  19.435  0.00  0.00    +0.000 A 
ATOM     11  C   UNL     1       3.425   5.988  18.536  0.00  0.00    +0.000 A 
ATOM     12  N   UNL     1       2.922   7.255  18.571  0.00  0.00    +0.000 NA
ATOM     13  C   UNL     1       2.089   7.500  19.571  0.00  0.00    +0.000 A 
ATOM     14  N   UNL     1       1.492   8.717  19.899  0.00  0.00    +0.000 N 
ATOM     15  H   UNL     1       0.269   6.712  22.109  0.00  0.00    +0.000 HD
ENDROOT
BRANCH  11  16
ATOM     16  O   UNL     1       4.360   5.701  17.539  0.00  0.00    +0.000 OA
BRANCH  16  17
ATOM     17  C   UNL     1       5.658   6.131  17.772  0.00  0.00    +0.000 A 
ATOM     18  C   UNL     1       6.142   7.265  17.109  0.00  0.00    +0.000 A 
ATOM     19  C   UNL     1       7.414   7.763  17.419  0.00  0.00    +0.000 A 
ATOM     20  C   UNL     1       8.200   7.129  18.382  0.00  0.00    +0.000 A 
ATOM     21  C   UNL     1       7.733   5.973  18.991  0.00  0.00    +0.000 A 
ATOM     22  F   UNL     1       8.477   5.366  19.924  0.00  0.00    +0.000 F 
ATOM     23  C   UNL     1       6.490   5.447  18.668  0.00  0.00    +0.000 A 
ENDBRANCH  16  17
ENDBRANCH  11  16
BRANCH  14  24
ATOM     24  C   UNL     1       1.676   9.937  19.160  0.00  0.00    +0.000 C 
BRANCH  24  25
ATOM     25  C   UNL     1       0.431  10.530  18.526  0.00  0.00    +0.000 A 
ATOM     26  C   UNL     1      -0.455   9.691  17.823  0.00  0.00    +0.000 A 
ATOM     27  C   UNL     1      -1.715  10.149  17.421  0.00  0.00    +0.000 A 
ATOM     28  C   UNL     1      -2.094  11.454  17.715  0.00  0.00    +0.000 A 
ATOM     29  C   UNL     1      -1.220  12.313  18.364  0.00  0.00    +0.000 A 
ATOM     30  C   UNL     1       0.036  11.855  18.767  0.00  0.00    +0.000 A 
BRANCH  28  31
ATOM     31  O   UNL     1      -3.334  11.926  17.402  0.00  0.00    +0.000 OA
ATOM     32  H   UNL     1      -3.668  11.431  16.635  0.00  0.00    +0.000 HD
ENDBRANCH  28  31
ENDBRANCH  24  25
ENDBRANCH  14  24
TORSDOF 5
ENDMDL
MODEL 5
REMARK VINA RESULT:      -8.7      3.104      8.085
REMARK  Name = 
REMARK  5 active torsions:
REMARK  status: ('A' for Active; 'I' for Inactive)
REMARK    1  A    between atoms: C_11  and  O_12
REMARK    2  A    between atoms: O_12  and  C_13
REMARK    3  A    between atoms: N_22  and  C_23
REMARK    4  A    between atoms: C_23  and  C_24
REMARK    5  A    between atoms: C_27  and  O_28
REMARK                            x       y       z     vdW  Elec       q    Type
REMARK                         _______ _______ _______ _____ _____    ______ ____
ROOT
ATOM      1  O   UNL     1       3.316   5.241  20.001  0.00  0.00    +0.000 OA
ATOM      2  C   UNL     1       2.664   6.275  19.967  0.00  0.00    +0.000 A 
ATOM      3  N   UNL     1       2.033   6.869  21.068  0.00  0.00    +0.000 N 
ATOM      4  C   UNL     1       1.418   8.046  20.637  0.00  0.00    +0.000 A 
ATOM      5  C   UNL     1       0.691   8.971  21.343  0.00  0.00    +0.000 A 
ATOM      6  N   UNL     1       0.535   8.831  22.677  0.00  0.00    +0.000 NA
ATOM      7  C   UNL     1      -0.207   9.752  23.325  0.00  0.00    +0.000 A 
ATOM      8  C   UNL     1      -0.863  10.789  22.690  0.00  0.00    +0.000 A 
ATOM      9  C   UNL     1      -0.702  10.923  21.311  0.00  0.00    +0.000 A 
ATOM     10  C   UNL     1       0.133  10.032  20.595  0.00  0.00    +0.000 A 
ATOM     11  C   UNL     1       0.450  10.108  19.207  0.00  0.00    +0.000 A 
ATOM     12  N   UNL     1       1.245   9.215  18.552  0.00  0.00    +0.000 NA
ATOM     13  C   UNL     1       1.656   8.189  19.284  0.00  0.00    +0.000 A 
ATOM     14  N   UNL     1       2.404   7.091  18.860  0.00  0.00    +0.000 N 
ATOM     15  H   UNL     1       2.030   6.518  22.012  0.00  0.00    +0.000 HD
ENDROOT
BRANCH  11  16
ATOM     16  O   UNL     1      -0.063  11.171  18.460  0.00  0.00    +0.000 OA
BRANCH  16  17
ATOM     17  C   UNL     1      -1.367  11.032  18.009  0.00  0.00    +0.000 A 
ATOM     18  C   UNL     1      -2.375  11.842  18.542  0.00  0.00    +0.000 A 
ATOM     19  C   UNL     1      -3.672  11.778  18.016  0.00  0.00    +0.000 A 
ATOM     20  C   UNL     1      -3.961  10.904  16.967  0.00  0.00    +0.000 A 
ATOM     21  C   UNL     1      -2.967  10.065  16.485  0.00  0.00    +0.000 A 
ATOM     22  F   UNL     1      -3.235   9.232  15.471  0.00  0.00    +0.000 F 
ATOM     23  C   UNL     1      -1.687  10.091  17.020  0.00  0.00    +0.000 A 
ENDBRANCH  16  17
ENDBRANCH  11  16
BRANCH  14  24
ATOM     24  C   UNL     1       2.885   6.906  17.518  0.00  0.00    +0.000 C 
BRANCH  24  25
ATOM     25  C   UNL     1       4.230   6.215  17.378  0.00  0.00    +0.000 A 
ATOM     26  C   UNL     1       4.281   4.887  16.913  0.00  0.00    +0.000 A 
ATOM     27  C   UNL     1       5.499   4.295  16.558  0.00  0.00    +0.000 A 
ATOM     28  C   UNL     1       6.675   5.026  16.672  0.00  0.00    +0.000 A 
ATOM     29  C   UNL     1       6.655   6.320  17.173  0.00  0.00    +0.000 A 
ATOM     30  C   UNL     1       5.439   6.912  17.525  0.00  0.00    +0.000 A 
BRANCH  28  31
ATOM     31  O   UNL     1       7.876   4.516  16.278  0.00  0.00    +0.000 OA
ATOM     32  H   UNL     1       8.551   4.782  16.923  0.00  0.00    +0.000 HD
ENDBRANCH  28  31
ENDBRANCH  24  25
ENDBRANCH  14  24
TORSDOF 5
ENDMDL
MODEL 6
REMARK VINA RESULT:      -8.7      3.424      8.186
REMARK  Name = 
REMARK  5 active torsions:
REMARK  status: ('A' for Active; 'I' for Inactive)
REMARK    1  A    between atoms: C_11  and  O_12
REMARK    2  A    between atoms: O_12  and  C_13
REMARK    3  A    between atoms: N_22  and  C_23
REMARK    4  A    between atoms: C_23  and  C_24
REMARK    5  A    between atoms: C_27  and  O_28
REMARK                            x       y       z     vdW  Elec       q    Type
REMARK                         _______ _______ _______ _____ _____    ______ ____
ROOT
ATOM      1  O   UNL     1       3.364   5.257  19.962  0.00  0.00    +0.000 OA
ATOM      2  C   UNL     1       2.705   6.287  19.938  0.00  0.00    +0.000 A 
ATOM      3  N   UNL     1       2.075   6.870  21.044  0.00  0.00    +0.000 N 
ATOM      4  C   UNL     1       1.451   8.046  20.623  0.00  0.00    +0.000 A 
ATOM      5  C   UNL     1       0.721   8.962  21.338  0.00  0.00    +0.000 A 
ATOM      6  N   UNL     1       0.572   8.814  22.671  0.00  0.00    +0.000 NA
ATOM      7  C   UNL     1      -0.174   9.726  23.328  0.00  0.00    +0.000 A 
ATOM      8  C   UNL     1      -0.838  10.763  22.701  0.00  0.00    +0.000 A 
ATOM      9  C   UNL     1      -0.685  10.906  21.323  0.00  0.00    +0.000 A 
ATOM     10  C   UNL     1       0.153  10.024  20.598  0.00  0.00    +0.000 A 
ATOM     11  C   UNL     1       0.463  10.111  19.209  0.00  0.00    +0.000 A 
ATOM     12  N   UNL     1       1.262   9.226  18.546  0.00  0.00    +0.000 NA
ATOM     13  C   UNL     1       1.682   8.199  19.270  0.00  0.00    +0.000 A 
ATOM     14  N   UNL     1       2.436   7.108  18.837  0.00  0.00    +0.000 N 
ATOM     15  H   UNL     1       2.079   6.514  21.986  0.00  0.00    +0.000 HD
ENDROOT
BRANCH  11  16
ATOM     16  O   UNL     1      -0.059  11.174  18.470  0.00  0.00    +0.000 OA
BRANCH  16  17
ATOM     17  C   UNL     1      -1.375  11.042  18.050  0.00  0.00    +0.000 A 
ATOM     18  C   UNL     1      -1.713  10.041  17.133  0.00  0.00    +0.000 A 
ATOM     19  C   UNL     1      -3.055   9.838  16.786  0.00  0.00    +0.000 A 
ATOM     20  C   UNL     1      -4.053  10.634  17.350  0.00  0.00    +0.000 A 
ATOM     21  C   UNL     1      -3.700  11.660  18.215  0.00  0.00    +0.000 A 
ATOM     22  F   UNL     1      -4.654  12.420  18.768  0.00  0.00    +0.000 F 
ATOM     23  C   UNL     1      -2.372  11.897  18.539  0.00  0.00    +0.000 A 
ENDBRANCH  16  17
ENDBRANCH  11  16
BRANCH  14  24
ATOM     24  C   UNL     1       2.912   6.933  17.491  0.00  0.00    +0.000 C 
BRANCH  24  25
ATOM     25  C   UNL     1       4.254   6.240  17.340  0.00  0.00    +0.000 A 
ATOM     26  C   UNL     1       4.298   4.911  16.878  0.00  0.00    +0.000 A 
ATOM     27  C   UNL     1       5.511   4.315  16.513  0.00  0.00    +0.000 A 
ATOM     28  C   UNL     1       6.689   5.044  16.615  0.00  0.00    +0.000 A 
ATOM     29  C   UNL     1       6.677   6.339  17.113  0.00  0.00    +0.000 A 
ATOM     30  C   UNL     1       5.466   6.934  17.474  0.00  0.00    +0.000 A 
BRANCH  28  31
ATOM     31  O   UNL     1       7.886   4.530  16.211  0.00  0.00    +0.000 OA
ATOM     32  H   UNL     1       8.562   4.770  16.867  0.00  0.00    +0.000 HD
ENDBRANCH  28  31
ENDBRANCH  24  25
ENDBRANCH  14  24
TORSDOF 5
ENDMDL
MODEL 7
REMARK VINA RESULT:      -8.3      2.903      7.849
REMARK  Name = 
REMARK  5 active torsions:
REMARK  status: ('A' for Active; 'I' for Inactive)
REMARK    1  A    between atoms: C_11  and  O_12
REMARK    2  A    between atoms: O_12  and  C_13
REMARK    3  A    between atoms: N_22  and  C_23
REMARK    4  A    between atoms: C_23  and  C_24
REMARK    5  A    between atoms: C_27  and  O_28
REMARK                            x       y       z     vdW  Elec       q    Type
REMARK                         _______ _______ _______ _____ _____    ______ ____
ROOT
ATOM      1  O   UNL     1       3.249   5.454  19.847  0.00  0.00    +0.000 OA
ATOM      2  C   UNL     1       2.648   6.518  19.836  0.00  0.00    +0.000 A 
ATOM      3  N   UNL     1       1.951   7.063  20.922  0.00  0.00    +0.000 N 
ATOM      4  C   UNL     1       1.427   8.297  20.531  0.00  0.00    +0.000 A 
ATOM      5  C   UNL     1       0.682   9.204  21.242  0.00  0.00    +0.000 A 
ATOM      6  N   UNL     1       0.406   8.978  22.544  0.00  0.00    +0.000 NA
ATOM      7  C   UNL     1      -0.349   9.886  23.195  0.00  0.00    +0.000 A 
ATOM      8  C   UNL     1      -0.902  10.997  22.587  0.00  0.00    +0.000 A 
ATOM      9  C   UNL     1      -0.618  11.220  21.239  0.00  0.00    +0.000 A 
ATOM     10  C   UNL     1       0.236  10.341  20.531  0.00  0.00    +0.000 A 
ATOM     11  C   UNL     1       0.675  10.500  19.183  0.00  0.00    +0.000 A 
ATOM     12  N   UNL     1       1.484   9.616  18.532  0.00  0.00    +0.000 NA
ATOM     13  C   UNL     1       1.785   8.523  19.217  0.00  0.00    +0.000 A 
ATOM     14  N   UNL     1       2.520   7.422  18.776  0.00  0.00    +0.000 N 
ATOM     15  H   UNL     1       1.852   6.647  21.834  0.00  0.00    +0.000 HD
ENDROOT
BRANCH  11  16
ATOM     16  O   UNL     1       0.274  11.636  18.478  0.00  0.00    +0.000 OA
BRANCH  16  17
ATOM     17  C   UNL     1       1.068  12.763  18.627  0.00  0.00    +0.000 A 
ATOM     18  C   UNL     1       0.563  13.884  19.294  0.00  0.00    +0.000 A 
ATOM     19  C   UNL     1       1.395  14.984  19.539  0.00  0.00    +0.000 A 
ATOM     20  C   UNL     1       2.724  14.966  19.113  0.00  0.00    +0.000 A 
ATOM     21  C   UNL     1       3.198  13.873  18.403  0.00  0.00    +0.000 A 
ATOM     22  F   UNL     1       4.475  13.844  18.001  0.00  0.00    +0.000 F 
ATOM     23  C   UNL     1       2.375  12.792  18.121  0.00  0.00    +0.000 A 
ENDBRANCH  16  17
ENDBRANCH  11  16
BRANCH  14  24
ATOM     24  C   UNL     1       3.106   7.308  17.467  0.00  0.00    +0.000 C 
BRANCH  24  25
ATOM     25  C   UNL     1       4.384   6.494  17.375  0.00  0.00    +0.000 A 
ATOM     26  C   UNL     1       4.334   5.183  16.863  0.00  0.00    +0.000 A 
ATOM     27  C   UNL     1       5.507   4.486  16.552  0.00  0.00    +0.000 A 
ATOM     28  C   UNL     1       6.739   5.094  16.759  0.00  0.00    +0.000 A 
ATOM     29  C   UNL     1       6.815   6.366  17.307  0.00  0.00    +0.000 A 
ATOM     30  C   UNL     1       5.644   7.063  17.614  0.00  0.00    +0.000 A 
BRANCH  28  31
ATOM     31  O   UNL     1       7.907   4.481  16.411  0.00  0.00    +0.000 OA
ATOM     32  H   UNL     1       8.106   3.799  17.073  0.00  0.00    +0.000 HD
ENDBRANCH  28  31
ENDBRANCH  24  25
ENDBRANCH  14  24
TORSDOF 5
ENDMDL
MODEL 8
REMARK VINA RESULT:      -8.3      3.362      8.005
REMARK  Name = 
REMARK  5 active torsions:
REMARK  status: ('A' for Active; 'I' for Inactive)
REMARK    1  A    between atoms: C_11  and  O_12
REMARK    2  A    between atoms: O_12  and  C_13
REMARK    3  A    between atoms: N_22  and  C_23
REMARK    4  A    between atoms: C_23  and  C_24
REMARK    5  A    between atoms: C_27  and  O_28
REMARK                            x       y       z     vdW  Elec       q    Type
REMARK                         _______ _______ _______ _____ _____    ______ ____
ROOT
ATOM      1  O   UNL     1       3.187   5.389  19.907  0.00  0.00    +0.000 OA
ATOM      2  C   UNL     1       2.590   6.455  19.885  0.00  0.00    +0.000 A 
ATOM      3  N   UNL     1       1.911   7.024  20.970  0.00  0.00    +0.000 N 
ATOM      4  C   UNL     1       1.386   8.252  20.563  0.00  0.00    +0.000 A 
ATOM      5  C   UNL     1       0.655   9.176  21.267  0.00  0.00    +0.000 A 
ATOM      6  N   UNL     1       0.398   8.976  22.577  0.00  0.00    +0.000 NA
ATOM      7  C   UNL     1      -0.344   9.899  23.222  0.00  0.00    +0.000 A 
ATOM      8  C   UNL     1      -0.902  11.001  22.601  0.00  0.00    +0.000 A 
ATOM      9  C   UNL     1      -0.637  11.197  21.246  0.00  0.00    +0.000 A 
ATOM     10  C   UNL     1       0.204  10.301  20.542  0.00  0.00    +0.000 A 
ATOM     11  C   UNL     1       0.623  10.432  19.185  0.00  0.00    +0.000 A 
ATOM     12  N   UNL     1       1.419   9.533  18.539  0.00  0.00    +0.000 NA
ATOM     13  C   UNL     1       1.726   8.452  19.240  0.00  0.00    +0.000 A 
ATOM     14  N   UNL     1       2.449   7.339  18.809  0.00  0.00    +0.000 N 
ATOM     15  H   UNL     1       1.824   6.626  21.891  0.00  0.00    +0.000 HD
ENDROOT
BRANCH  11  16
ATOM     16  O   UNL     1       0.216  11.556  18.464  0.00  0.00    +0.000 OA
BRANCH  16  17
ATOM     17  C   UNL     1       1.010  12.687  18.589  0.00  0.00    +0.000 A 
ATOM     18  C   UNL     1       2.377  12.610  18.300  0.00  0.00    +0.000 A 
ATOM     19  C   UNL     1       3.161  13.771  18.324  0.00  0.00    +0.000 A 
ATOM     20  C   UNL     1       2.583  15.001  18.640  0.00  0.00    +0.000 A 
ATOM     21  C   UNL     1       1.239  15.056  18.981  0.00  0.00    +0.000 A 
ATOM     22  F   UNL     1       0.676  16.235  19.274  0.00  0.00    +0.000 F 
ATOM     23  C   UNL     1       0.458  13.909  18.997  0.00  0.00    +0.000 A 
ENDBRANCH  16  17
ENDBRANCH  11  16
BRANCH  14  24
ATOM     24  C   UNL     1       3.016   7.199  17.495  0.00  0.00    +0.000 C 
BRANCH  24  25
ATOM     25  C   UNL     1       4.314   6.416  17.405  0.00  0.00    +0.000 A 
ATOM     26  C   UNL     1       4.292   5.093  16.924  0.00  0.00    +0.000 A 
ATOM     27  C   UNL     1       5.480   4.420  16.615  0.00  0.00    +0.000 A 
ATOM     28  C   UNL     1       6.698   5.065  16.793  0.00  0.00    +0.000 A 
ATOM     29  C   UNL     1       6.746   6.351  17.311  0.00  0.00    +0.000 A 
ATOM     30  C   UNL     1       5.561   7.024  17.616  0.00  0.00    +0.000 A 
BRANCH  28  31
ATOM     31  O   UNL     1       7.878   4.475  16.446  0.00  0.00    +0.000 OA
ATOM     32  H   UNL     1       8.604   5.071  16.690  0.00  0.00    +0.000 HD
ENDBRANCH  28  31
ENDBRANCH  24  25
ENDBRANCH  14  24
TORSDOF 5
ENDMDL
MODEL 9
REMARK VINA RESULT:      -8.2      3.280      7.989
REMARK  Name = 
REMARK  5 active torsions:
REMARK  status: ('A' for Active; 'I' for Inactive)
REMARK    1  A    between atoms: C_11  and  O_12
REMARK    2  A    between atoms: O_12  and  C_13
REMARK    3  A    between atoms: N_22  and  C_23
REMARK    4  A    between atoms: C_23  and  C_24
REMARK    5  A    between atoms: C_27  and  O_28
REMARK                            x       y       z     vdW  Elec       q    Type
REMARK                         _______ _______ _______ _____ _____    ______ ____
ROOT
ATOM      1  O   UNL     1       3.584   5.216  19.398  0.00  0.00    +0.000 OA
ATOM      2  C   UNL     1       2.970   6.272  19.446  0.00  0.00    +0.000 A 
ATOM      3  N   UNL     1       2.288   6.760  20.568  0.00  0.00    +0.000 N 
ATOM      4  C   UNL     1       1.741   8.002  20.241  0.00  0.00    +0.000 A 
ATOM      5  C   UNL     1       0.999   8.868  21.005  0.00  0.00    +0.000 A 
ATOM      6  N   UNL     1       0.753   8.583  22.302  0.00  0.00    +0.000 NA
ATOM      7  C   UNL     1      -0.000   9.451  23.007  0.00  0.00    +0.000 A 
ATOM      8  C   UNL     1      -0.580  10.580  22.458  0.00  0.00    +0.000 A 
ATOM      9  C   UNL     1      -0.327  10.864  21.116  0.00  0.00    +0.000 A 
ATOM     10  C   UNL     1       0.524  10.029  20.354  0.00  0.00    +0.000 A 
ATOM     11  C   UNL     1       0.933  10.251  19.006  0.00  0.00    +0.000 A 
ATOM     12  N   UNL     1       1.740   9.407  18.300  0.00  0.00    +0.000 NA
ATOM     13  C   UNL     1       2.069   8.290  18.931  0.00  0.00    +0.000 A 
ATOM     14  N   UNL     1       2.808   7.218  18.428  0.00  0.00    +0.000 N 
ATOM     15  H   UNL     1       2.213   6.304  21.463  0.00  0.00    +0.000 HD
ENDROOT
BRANCH  11  16
ATOM     16  O   UNL     1       0.504  11.411  18.358  0.00  0.00    +0.000 OA
BRANCH  16  17
ATOM     17  C   UNL     1       1.248  12.557  18.593  0.00  0.00    +0.000 A 
ATOM     18  C   UNL     1       2.577  12.622  18.159  0.00  0.00    +0.000 A 
ATOM     19  C   UNL     1       3.299  13.815  18.301  0.00  0.00    +0.000 A 
ATOM     20  C   UNL     1       2.698  14.934  18.878  0.00  0.00    +0.000 A 
ATOM     21  C   UNL     1       1.399  14.840  19.356  0.00  0.00    +0.000 A 
ATOM     22  F   UNL     1       0.812  15.914  19.901  0.00  0.00    +0.000 F 
ATOM     23  C   UNL     1       0.684  13.656  19.256  0.00  0.00    +0.000 A 
ENDBRANCH  16  17
ENDBRANCH  11  16
BRANCH  14  24
ATOM     24  C   UNL     1       3.369   7.169  17.105  0.00  0.00    +0.000 C 
BRANCH  24  25
ATOM     25  C   UNL     1       4.682   6.422  16.962  0.00  0.00    +0.000 A 
ATOM     26  C   UNL     1       5.859   6.983  17.494  0.00  0.00    +0.000 A 
ATOM     27  C   UNL     1       7.038   6.233  17.583  0.00  0.00    +0.000 A 
ATOM     28  C   UNL     1       7.048   4.919  17.133  0.00  0.00    +0.000 A 
ATOM     29  C   UNL     1       5.915   4.360  16.561  0.00  0.00    +0.000 A 
ATOM     30  C   UNL     1       4.738   5.107  16.475  0.00  0.00    +0.000 A 
BRANCH  28  31
ATOM     31  O   UNL     1       8.152   4.128  17.258  0.00  0.00    +0.000 OA
ATOM     32  H   UNL     1       8.820   4.610  17.773  0.00  0.00    +0.000 HD
ENDBRANCH  28  31
ENDBRANCH  24  25
ENDBRANCH  14  24
TORSDOF 5
ENDMDL
