MODEL 1
REMARK VINA RESULT:      -6.7      0.000      0.000
REMARK  Name = 
REMARK  9 active torsions:
REMARK  status: ('A' for Active; 'I' for Inactive)
REMARK    1  A    between atoms: C_1  and  C_2
REMARK    2  A    between atoms: C_2  and  C_3
REMARK    3  A    between atoms: C_3  and  N_4
REMARK    4  A    between atoms: C_8  and  S_9
REMARK    5  A    between atoms: S_9  and  C_10
REMARK    6  A    between atoms: C_10  and  C_11
REMARK    7  A    between atoms: C_11  and  N_12
REMARK    8  A    between atoms: N_12  and  S_13
REMARK    9  A    between atoms: S_13  and  C_16
REMARK                            x       y       z     vdW  Elec       q    Type
REMARK                         _______ _______ _______ _____ _____    ______ ____
ROOT
ATOM      1  C   UNL     1       4.933   6.471  17.173  0.00  0.00    +0.000 C 
ENDROOT
BRANCH   1   2
ATOM      2  N   UNL     1       5.576   5.198  16.791  0.00  0.00    +0.000 NA
ATOM      3  H   UNL     1       5.037   4.531  16.239  0.00  0.00    +0.000 HD
BRANCH   2   4
ATOM      4  S   UNL     1       7.182   5.259  16.265  0.00  0.00    +0.000 S 
ATOM      5  O   UNL     1       7.562   6.654  16.296  0.00  0.00    +0.000 OA
ATOM      6  O   UNL     1       7.928   4.253  16.983  0.00  0.00    +0.000 OA
BRANCH   4   7
ATOM      7  C   UNL     1       7.043   4.781  14.562  0.00  0.00    +0.000 A 
ATOM      8  C   UNL     1       7.847   5.408  13.606  0.00  0.00    +0.000 A 
ATOM      9  C   UNL     1       7.715   5.058  12.261  0.00  0.00    +0.000 A 
ATOM     10  C   UNL     1       6.794   4.080  11.882  0.00  0.00    +0.000 A 
ATOM     11  C   UNL     1       6.018   3.431  12.846  0.00  0.00    +0.000 A 
ATOM     12  C   UNL     1       6.145   3.775  14.192  0.00  0.00    +0.000 A 
ENDBRANCH   4   7
ENDBRANCH   2   4
ENDBRANCH   1   2
BRANCH   1  13
ATOM     13  C   UNL     1       4.037   6.289  18.406  0.00  0.00    +0.000 C 
BRANCH  13  14
ATOM     14  S   UNL     1       4.555   4.805  19.344  0.00  0.00    +0.000 S 
BRANCH  14  19
ATOM     15  N   UNL     1       2.159   3.476  19.086  0.00  0.00    +0.000 N 
ATOM     16  C   UNL     1       1.630   2.450  18.339  0.00  0.00    +0.000 A 
ATOM     17  C   UNL     1       2.672   1.980  17.577  0.00  0.00    +0.000 A 
ATOM     18  N   UNL     1       3.810   2.705  17.813  0.00  0.00    +0.000 NA
ATOM     19  C   UNL     1       3.476   3.603  18.713  0.00  0.00    +0.000 A 
BRANCH  15  20
ATOM     20  C   UNL     1       1.385   4.255  20.041  0.00  0.00    +0.000 C 
BRANCH  20  22
ATOM     21  C   UNL     1       1.760   2.497  21.825  0.00  0.00    +0.000 C 
ATOM     22  C   UNL     1       1.788   3.981  21.494  0.00  0.00    +0.000 C 
ENDBRANCH  20  22
ENDBRANCH  15  20
ENDBRANCH  14  19
ENDBRANCH  13  14
ENDBRANCH   1  13
TORSDOF 8
ENDMDL
MODEL 2
REMARK VINA RESULT:      -6.6      1.060      2.149
REMARK  Name = 
REMARK  9 active torsions:
REMARK  status: ('A' for Active; 'I' for Inactive)
REMARK    1  A    between atoms: C_1  and  C_2
REMARK    2  A    between atoms: C_2  and  C_3
REMARK    3  A    between atoms: C_3  and  N_4
REMARK    4  A    between atoms: C_8  and  S_9
REMARK    5  A    between atoms: S_9  and  C_10
REMARK    6  A    between atoms: C_10  and  C_11
REMARK    7  A    between atoms: C_11  and  N_12
REMARK    8  A    between atoms: N_12  and  S_13
REMARK    9  A    between atoms: S_13  and  C_16
REMARK                            x       y       z     vdW  Elec       q    Type
REMARK                         _______ _______ _______ _____ _____    ______ ____
ROOT
ATOM      1  C   UNL     1       4.711   6.566  17.563  0.00  0.00    +0.000 C 
ENDROOT
BRANCH   1   2
ATOM      2  N   UNL     1       5.098   5.702  16.430  0.00  0.00    +0.000 NA
ATOM      3  H   UNL     1       4.646   5.857  15.528  0.00  0.00    +0.000 HD
BRANCH   2   4
ATOM      4  S   UNL     1       6.743   5.362  16.231  0.00  0.00    +0.000 S 
ATOM      5  O   UNL     1       7.428   6.633  16.314  0.00  0.00    +0.000 OA
ATOM      6  O   UNL     1       7.082   4.259  17.099  0.00  0.00    +0.000 OA
BRANCH   4   7
ATOM      7  C   UNL     1       6.819   4.823  14.542  0.00  0.00    +0.000 A 
ATOM      8  C   UNL     1       7.733   5.425  13.671  0.00  0.00    +0.000 A 
ATOM      9  C   UNL     1       7.770   5.026  12.334  0.00  0.00    +0.000 A 
ATOM     10  C   UNL     1       6.909   4.026  11.879  0.00  0.00    +0.000 A 
ATOM     11  C   UNL     1       6.023   3.404  12.762  0.00  0.00    +0.000 A 
ATOM     12  C   UNL     1       5.979   3.797  14.100  0.00  0.00    +0.000 A 
ENDBRANCH   4   7
ENDBRANCH   2   4
ENDBRANCH   1   2
BRANCH   1  13
ATOM     13  C   UNL     1       4.395   5.731  18.812  0.00  0.00    +0.000 C 
BRANCH  13  14
ATOM     14  S   UNL     1       2.742   6.174  19.461  0.00  0.00    +0.000 S 
BRANCH  14  19
ATOM     15  N   UNL     1       1.679   3.636  19.519  0.00  0.00    +0.000 N 
ATOM     16  C   UNL     1       1.478   2.629  20.433  0.00  0.00    +0.000 A 
ATOM     17  C   UNL     1       1.903   3.138  21.636  0.00  0.00    +0.000 A 
ATOM     18  N   UNL     1       2.385   4.411  21.479  0.00  0.00    +0.000 NA
ATOM     19  C   UNL     1       2.251   4.685  20.201  0.00  0.00    +0.000 A 
BRANCH  15  20
ATOM     20  C   UNL     1       1.355   3.514  18.106  0.00  0.00    +0.000 C 
BRANCH  20  22
ATOM     21  C   UNL     1       3.402   2.055  17.796  0.00  0.00    +0.000 C 
ATOM     22  C   UNL     1       2.583   3.209  17.240  0.00  0.00    +0.000 C 
ENDBRANCH  20  22
ENDBRANCH  15  20
ENDBRANCH  14  19
ENDBRANCH  13  14
ENDBRANCH   1  13
TORSDOF 8
ENDMDL
MODEL 3
REMARK VINA RESULT:      -6.3      1.536      2.661
REMARK  Name = 
REMARK  9 active torsions:
REMARK  status: ('A' for Active; 'I' for Inactive)
REMARK    1  A    between atoms: C_1  and  C_2
REMARK    2  A    between atoms: C_2  and  C_3
REMARK    3  A    between atoms: C_3  and  N_4
REMARK    4  A    between atoms: C_8  and  S_9
REMARK    5  A    between atoms: S_9  and  C_10
REMARK    6  A    between atoms: C_10  and  C_11
REMARK    7  A    between atoms: C_11  and  N_12
REMARK    8  A    between atoms: N_12  and  S_13
REMARK    9  A    between atoms: S_13  and  C_16
REMARK                            x       y       z     vdW  Elec       q    Type
REMARK                         _______ _______ _______ _____ _____    ______ ____
ROOT
ATOM      1  C   UNL     1       4.241   3.907  16.499  0.00  0.00    +0.000 C 
ENDROOT
BRANCH   1   2
ATOM      2  N   UNL     1       5.680   3.577  16.534  0.00  0.00    +0.000 NA
ATOM      3  H   UNL     1       5.976   2.670  16.171  0.00  0.00    +0.000 HD
BRANCH   2   4
ATOM      4  S   UNL     1       6.773   4.790  16.095  0.00  0.00    +0.000 S 
ATOM      5  O   UNL     1       6.104   6.046  16.354  0.00  0.00    +0.000 OA
ATOM      6  O   UNL     1       8.053   4.476  16.685  0.00  0.00    +0.000 OA
BRANCH   4   7
ATOM      7  C   UNL     1       6.875   4.592  14.334  0.00  0.00    +0.000 A 
ATOM      8  C   UNL     1       6.098   3.613  13.708  0.00  0.00    +0.000 A 
ATOM      9  C   UNL     1       6.203   3.433  12.328  0.00  0.00    +0.000 A 
ATOM     10  C   UNL     1       7.070   4.235  11.583  0.00  0.00    +0.000 A 
ATOM     11  C   UNL     1       7.817   5.235  12.209  0.00  0.00    +0.000 A 
ATOM     12  C   UNL     1       7.718   5.422  13.588  0.00  0.00    +0.000 A 
ENDBRANCH   4   7
ENDBRANCH   2   4
ENDBRANCH   1   2
BRANCH   1  13
ATOM     13  C   UNL     1       3.572   3.604  17.847  0.00  0.00    +0.000 C 
BRANCH  13  14
ATOM     14  S   UNL     1       4.305   4.649  19.159  0.00  0.00    +0.000 S 
BRANCH  14  19
ATOM     15  N   UNL     1       2.233   6.310  19.880  0.00  0.00    +0.000 N 
ATOM     16  C   UNL     1       1.742   7.547  19.533  0.00  0.00    +0.000 A 
ATOM     17  C   UNL     1       2.531   7.974  18.493  0.00  0.00    +0.000 A 
ATOM     18  N   UNL     1       3.505   7.052  18.214  0.00  0.00    +0.000 NA
ATOM     19  C   UNL     1       3.314   6.068  19.065  0.00  0.00    +0.000 A 
BRANCH  15  20
ATOM     20  C   UNL     1       1.675   5.496  20.949  0.00  0.00    +0.000 C 
BRANCH  20  22
ATOM     21  C   UNL     1       1.348   2.992  21.136  0.00  0.00    +0.000 C 
ATOM     22  C   UNL     1       0.921   4.268  20.427  0.00  0.00    +0.000 C 
ENDBRANCH  20  22
ENDBRANCH  15  20
ENDBRANCH  14  19
ENDBRANCH  13  14
ENDBRANCH   1  13
TORSDOF 8
ENDMDL
MODEL 4
REMARK VINA RESULT:      -6.2      0.903      1.122
REMARK  Name = 
REMARK  9 active torsions:
REMARK  status: ('A' for Active; 'I' for Inactive)
REMARK    1  A    between atoms: C_1  and  C_2
REMARK    2  A    between atoms: C_2  and  C_3
REMARK    3  A    between atoms: C_3  and  N_4
REMARK    4  A    between atoms: C_8  and  S_9
REMARK    5  A    between atoms: S_9  and  C_10
REMARK    6  A    between atoms: C_10  and  C_11
REMARK    7  A    between atoms: C_11  and  N_12
REMARK    8  A    between atoms: N_12  and  S_13
REMARK    9  A    between atoms: S_13  and  C_16
REMARK                            x       y       z     vdW  Elec       q    Type
REMARK                         _______ _______ _______ _____ _____    ______ ____
ROOT
ATOM      1  C   UNL     1       4.624   6.063  16.709  0.00  0.00    +0.000 C 
ENDROOT
BRANCH   1   2
ATOM      2  N   UNL     1       5.556   4.924  16.826  0.00  0.00    +0.000 NA
ATOM      3  H   UNL     1       5.218   3.995  16.572  0.00  0.00    +0.000 HD
BRANCH   2   4
ATOM      4  S   UNL     1       7.145   5.154  16.295  0.00  0.00    +0.000 S 
ATOM      5  O   UNL     1       7.397   6.575  16.389  0.00  0.00    +0.000 OA
ATOM      6  O   UNL     1       7.986   4.188  16.962  0.00  0.00    +0.000 OA
BRANCH   4   7
ATOM      7  C   UNL     1       7.035   4.744  14.572  0.00  0.00    +0.000 A 
ATOM      8  C   UNL     1       7.860   5.403  13.656  0.00  0.00    +0.000 A 
ATOM      9  C   UNL     1       7.751   5.106  12.297  0.00  0.00    +0.000 A 
ATOM     10  C   UNL     1       6.831   4.150  11.863  0.00  0.00    +0.000 A 
ATOM     11  C   UNL     1       6.033   3.470  12.786  0.00  0.00    +0.000 A 
ATOM     12  C   UNL     1       6.137   3.761  14.146  0.00  0.00    +0.000 A 
ENDBRANCH   4   7
ENDBRANCH   2   4
ENDBRANCH   1   2
BRANCH   1  13
ATOM     13  C   UNL     1       3.755   6.196  17.966  0.00  0.00    +0.000 C 
BRANCH  13  14
ATOM     14  S   UNL     1       4.575   5.380  19.385  0.00  0.00    +0.000 S 
BRANCH  14  19
ATOM     15  N   UNL     1       2.730   3.363  19.066  0.00  0.00    +0.000 N 
ATOM     16  C   UNL     1       2.722   2.000  18.887  0.00  0.00    +0.000 A 
ATOM     17  C   UNL     1       4.038   1.615  18.956  0.00  0.00    +0.000 A 
ATOM     18  N   UNL     1       4.851   2.702  19.141  0.00  0.00    +0.000 NA
ATOM     19  C   UNL     1       4.047   3.740  19.193  0.00  0.00    +0.000 A 
BRANCH  15  20
ATOM     20  C   UNL     1       1.526   4.179  19.067  0.00  0.00    +0.000 C 
BRANCH  20  22
ATOM     21  C   UNL     1       1.411   5.953  20.871  0.00  0.00    +0.000 C 
ATOM     22  C   UNL     1       1.047   4.529  20.480  0.00  0.00    +0.000 C 
ENDBRANCH  20  22
ENDBRANCH  15  20
ENDBRANCH  14  19
ENDBRANCH  13  14
ENDBRANCH   1  13
TORSDOF 8
ENDMDL
MODEL 5
REMARK VINA RESULT:      -6.2      1.457      2.820
REMARK  Name = 
REMARK  9 active torsions:
REMARK  status: ('A' for Active; 'I' for Inactive)
REMARK    1  A    between atoms: C_1  and  C_2
REMARK    2  A    between atoms: C_2  and  C_3
REMARK    3  A    between atoms: C_3  and  N_4
REMARK    4  A    between atoms: C_8  and  S_9
REMARK    5  A    between atoms: S_9  and  C_10
REMARK    6  A    between atoms: C_10  and  C_11
REMARK    7  A    between atoms: C_11  and  N_12
REMARK    8  A    between atoms: N_12  and  S_13
REMARK    9  A    between atoms: S_13  and  C_16
REMARK                            x       y       z     vdW  Elec       q    Type
REMARK                         _______ _______ _______ _____ _____    ______ ____
ROOT
ATOM      1  C   UNL     1       4.242   3.728  16.750  0.00  0.00    +0.000 C 
ENDROOT
BRANCH   1   2
ATOM      2  N   UNL     1       5.715   3.645  16.801  0.00  0.00    +0.000 NA
ATOM      3  H   UNL     1       6.160   2.774  16.511  0.00  0.00    +0.000 HD
BRANCH   2   4
ATOM      4  S   UNL     1       6.594   4.983  16.254  0.00  0.00    +0.000 S 
ATOM      5  O   UNL     1       5.722   6.126  16.410  0.00  0.00    +0.000 OA
ATOM      6  O   UNL     1       7.903   4.938  16.862  0.00  0.00    +0.000 OA
BRANCH   4   7
ATOM      7  C   UNL     1       6.743   4.657  14.517  0.00  0.00    +0.000 A 
ATOM      8  C   UNL     1       5.874   3.743  13.913  0.00  0.00    +0.000 A 
ATOM      9  C   UNL     1       6.012   3.460  12.554  0.00  0.00    +0.000 A 
ATOM     10  C   UNL     1       7.004   4.096  11.805  0.00  0.00    +0.000 A 
ATOM     11  C   UNL     1       7.847   5.034  12.405  0.00  0.00    +0.000 A 
ATOM     12  C   UNL     1       7.715   5.323  13.764  0.00  0.00    +0.000 A 
ENDBRANCH   4   7
ENDBRANCH   2   4
ENDBRANCH   1   2
BRANCH   1  13
ATOM     13  C   UNL     1       3.598   2.629  17.607  0.00  0.00    +0.000 C 
BRANCH  13  14
ATOM     14  S   UNL     1       1.862   3.067  17.986  0.00  0.00    +0.000 S 
BRANCH  14  19
ATOM     15  N   UNL     1       2.580   4.120  20.426  0.00  0.00    +0.000 N 
ATOM     16  C   UNL     1       2.330   3.885  21.758  0.00  0.00    +0.000 A 
ATOM     17  C   UNL     1       1.540   2.763  21.789  0.00  0.00    +0.000 A 
ATOM     18  N   UNL     1       1.274   2.322  20.519  0.00  0.00    +0.000 NA
ATOM     19  C   UNL     1       1.899   3.157  19.718  0.00  0.00    +0.000 A 
BRANCH  15  20
ATOM     20  C   UNL     1       3.391   5.227  19.945  0.00  0.00    +0.000 C 
BRANCH  20  22
ATOM     21  C   UNL     1       2.549   6.810  18.156  0.00  0.00    +0.000 C 
ATOM     22  C   UNL     1       2.564   6.480  19.641  0.00  0.00    +0.000 C 
ENDBRANCH  20  22
ENDBRANCH  15  20
ENDBRANCH  14  19
ENDBRANCH  13  14
ENDBRANCH   1  13
TORSDOF 8
ENDMDL
MODEL 6
REMARK VINA RESULT:      -6.1      2.866      3.704
REMARK  Name = 
REMARK  9 active torsions:
REMARK  status: ('A' for Active; 'I' for Inactive)
REMARK    1  A    between atoms: C_1  and  C_2
REMARK    2  A    between atoms: C_2  and  C_3
REMARK    3  A    between atoms: C_3  and  N_4
REMARK    4  A    between atoms: C_8  and  S_9
REMARK    5  A    between atoms: S_9  and  C_10
REMARK    6  A    between atoms: C_10  and  C_11
REMARK    7  A    between atoms: C_11  and  N_12
REMARK    8  A    between atoms: N_12  and  S_13
REMARK    9  A    between atoms: S_13  and  C_16
REMARK                            x       y       z     vdW  Elec       q    Type
REMARK                         _______ _______ _______ _____ _____    ______ ____
ROOT
ATOM      1  C   UNL     1       4.783   4.656  18.021  0.00  0.00    +0.000 C 
ENDROOT
BRANCH   1   2
ATOM      2  N   UNL     1       5.103   4.842  16.591  0.00  0.00    +0.000 NA
ATOM      3  H   UNL     1       4.426   5.331  16.005  0.00  0.00    +0.000 HD
BRANCH   2   4
ATOM      4  S   UNL     1       6.683   5.295  16.195  0.00  0.00    +0.000 S 
ATOM      5  O   UNL     1       6.707   6.741  16.229  0.00  0.00    +0.000 OA
ATOM      6  O   UNL     1       7.590   4.503  16.991  0.00  0.00    +0.000 OA
BRANCH   4   7
ATOM      7  C   UNL     1       6.808   4.798  14.496  0.00  0.00    +0.000 A 
ATOM      8  C   UNL     1       7.743   5.423  13.666  0.00  0.00    +0.000 A 
ATOM      9  C   UNL     1       7.819   5.057  12.321  0.00  0.00    +0.000 A 
ATOM     10  C   UNL     1       6.973   4.067  11.818  0.00  0.00    +0.000 A 
ATOM     11  C   UNL     1       6.065   3.422  12.661  0.00  0.00    +0.000 A 
ATOM     12  C   UNL     1       5.983   3.781  14.006  0.00  0.00    +0.000 A 
ENDBRANCH   4   7
ENDBRANCH   2   4
ENDBRANCH   1   2
BRANCH   1  13
ATOM     13  C   UNL     1       4.515   6.002  18.707  0.00  0.00    +0.000 C 
BRANCH  13  14
ATOM     14  S   UNL     1       2.871   5.980  19.511  0.00  0.00    +0.000 S 
BRANCH  14  19
ATOM     15  N   UNL     1       1.570   8.371  19.913  0.00  0.00    +0.000 N 
ATOM     16  C   UNL     1       1.278   9.512  19.203  0.00  0.00    +0.000 A 
ATOM     17  C   UNL     1       1.757   9.286  17.936  0.00  0.00    +0.000 A 
ATOM     18  N   UNL     1       2.358   8.057  17.858  0.00  0.00    +0.000 NA
ATOM     19  C   UNL     1       2.243   7.531  19.057  0.00  0.00    +0.000 A 
BRANCH  15  20
ATOM     20  C   UNL     1       1.227   8.189  21.315  0.00  0.00    +0.000 C 
BRANCH  20  22
ATOM     21  C   UNL     1      -0.249   9.728  22.682  0.00  0.00    +0.000 C 
ATOM     22  C   UNL     1      -0.207   8.624  21.636  0.00  0.00    +0.000 C 
ENDBRANCH  20  22
ENDBRANCH  15  20
ENDBRANCH  14  19
ENDBRANCH  13  14
ENDBRANCH   1  13
TORSDOF 8
ENDMDL
MODEL 7
REMARK VINA RESULT:      -6.1      3.144      7.152
REMARK  Name = 
REMARK  9 active torsions:
REMARK  status: ('A' for Active; 'I' for Inactive)
REMARK    1  A    between atoms: C_1  and  C_2
REMARK    2  A    between atoms: C_2  and  C_3
REMARK    3  A    between atoms: C_3  and  N_4
REMARK    4  A    between atoms: C_8  and  S_9
REMARK    5  A    between atoms: S_9  and  C_10
REMARK    6  A    between atoms: C_10  and  C_11
REMARK    7  A    between atoms: C_11  and  N_12
REMARK    8  A    between atoms: N_12  and  S_13
REMARK    9  A    between atoms: S_13  and  C_16
REMARK                            x       y       z     vdW  Elec       q    Type
REMARK                         _______ _______ _______ _____ _____    ______ ____
ROOT
ATOM      1  C   UNL     1       2.839   1.916  19.073  0.00  0.00    +0.000 C 
ENDROOT
BRANCH   1   2
ATOM      2  N   UNL     1       3.152   3.122  19.865  0.00  0.00    +0.000 NA
ATOM      3  H   UNL     1       3.746   3.837  19.442  0.00  0.00    +0.000 HD
BRANCH   2   4
ATOM      4  S   UNL     1       1.895   3.827  20.749  0.00  0.00    +0.000 S 
ATOM      5  O   UNL     1       0.671   3.258  20.230  0.00  0.00    +0.000 OA
ATOM      6  O   UNL     1       2.233   3.749  22.151  0.00  0.00    +0.000 OA
BRANCH   4   7
ATOM      7  C   UNL     1       1.962   5.521  20.224  0.00  0.00    +0.000 A 
ATOM      8  C   UNL     1       1.441   6.517  21.055  0.00  0.00    +0.000 A 
ATOM      9  C   UNL     1       1.462   7.846  20.629  0.00  0.00    +0.000 A 
ATOM     10  C   UNL     1       2.010   8.172  19.387  0.00  0.00    +0.000 A 
ATOM     11  C   UNL     1       2.560   7.177  18.576  0.00  0.00    +0.000 A 
ATOM     12  C   UNL     1       2.544   5.846  18.995  0.00  0.00    +0.000 A 
ENDBRANCH   4   7
ENDBRANCH   2   4
ENDBRANCH   1   2
BRANCH   1  13
ATOM     13  C   UNL     1       3.664   1.876  17.779  0.00  0.00    +0.000 C 
BRANCH  13  14
ATOM     14  S   UNL     1       3.558   3.487  16.917  0.00  0.00    +0.000 S 
BRANCH  14  19
ATOM     15  N   UNL     1       5.932   4.507  15.968  0.00  0.00    +0.000 N 
ATOM     16  C   UNL     1       7.151   4.903  16.467  0.00  0.00    +0.000 A 
ATOM     17  C   UNL     1       7.102   4.626  17.811  0.00  0.00    +0.000 A 
ATOM     18  N   UNL     1       5.884   4.102  18.153  0.00  0.00    +0.000 NA
ATOM     19  C   UNL     1       5.194   4.050  17.035  0.00  0.00    +0.000 A 
BRANCH  15  20
ATOM     20  C   UNL     1       5.563   4.623  14.566  0.00  0.00    +0.000 C 
BRANCH  20  22
ATOM     21  C   UNL     1       6.070   3.354  12.434  0.00  0.00    +0.000 C 
ATOM     22  C   UNL     1       6.653   4.106  13.620  0.00  0.00    +0.000 C 
ENDBRANCH  20  22
ENDBRANCH  15  20
ENDBRANCH  14  19
ENDBRANCH  13  14
ENDBRANCH   1  13
TORSDOF 8
ENDMDL
MODEL 8
REMARK VINA RESULT:      -6.1      2.574      6.949
REMARK  Name = 
REMARK  9 active torsions:
REMARK  status: ('A' for Active; 'I' for Inactive)
REMARK    1  A    between atoms: C_1  and  C_2
REMARK    2  A    between atoms: C_2  and  C_3
REMARK    3  A    between atoms: C_3  and  N_4
REMARK    4  A    between atoms: C_8  and  S_9
REMARK    5  A    between atoms: S_9  and  C_10
REMARK    6  A    between atoms: C_10  and  C_11
REMARK    7  A    between atoms: C_11  and  N_12
REMARK    8  A    between atoms: N_12  and  S_13
REMARK    9  A    between atoms: S_13  and  C_16
REMARK                            x       y       z     vdW  Elec       q    Type
REMARK                         _______ _______ _______ _____ _____    ______ ____
ROOT
ATOM      1  C   UNL     1       3.558   6.414  18.394  0.00  0.00    +0.000 C 
ENDROOT
BRANCH   1   2
ATOM      2  N   UNL     1       2.215   5.893  18.071  0.00  0.00    +0.000 NA
ATOM      3  H   UNL     1       1.616   6.448  17.459  0.00  0.00    +0.000 HD
BRANCH   2   4
ATOM      4  S   UNL     1       2.079   4.245  17.715  0.00  0.00    +0.000 S 
ATOM      5  O   UNL     1       0.727   4.047  17.240  0.00  0.00    +0.000 OA
ATOM      6  O   UNL     1       3.225   3.860  16.926  0.00  0.00    +0.000 OA
BRANCH   4   7
ATOM      7  C   UNL     1       2.195   3.498  19.321  0.00  0.00    +0.000 A 
ATOM      8  C   UNL     1       1.074   3.489  20.155  0.00  0.00    +0.000 A 
ATOM      9  C   UNL     1       1.173   2.932  21.431  0.00  0.00    +0.000 A 
ATOM     10  C   UNL     1       2.381   2.380  21.860  0.00  0.00    +0.000 A 
ATOM     11  C   UNL     1       3.488   2.360  21.009  0.00  0.00    +0.000 A 
ATOM     12  C   UNL     1       3.397   2.914  19.732  0.00  0.00    +0.000 A 
ENDBRANCH   4   7
ENDBRANCH   2   4
ENDBRANCH   1   2
BRANCH   1  13
ATOM     13  C   UNL     1       3.955   7.547  17.438  0.00  0.00    +0.000 C 
BRANCH  13  14
ATOM     14  S   UNL     1       4.993   6.889  16.082  0.00  0.00    +0.000 S 
BRANCH  14  19
ATOM     15  N   UNL     1       6.668   4.781  16.653  0.00  0.00    +0.000 N 
ATOM     16  C   UNL     1       7.668   4.480  17.547  0.00  0.00    +0.000 A 
ATOM     17  C   UNL     1       7.749   5.565  18.385  0.00  0.00    +0.000 A 
ATOM     18  N   UNL     1       6.851   6.531  18.013  0.00  0.00    +0.000 NA
ATOM     19  C   UNL     1       6.222   6.044  16.966  0.00  0.00    +0.000 A 
BRANCH  15  20
ATOM     20  C   UNL     1       6.252   3.888  15.583  0.00  0.00    +0.000 C 
BRANCH  20  22
ATOM     21  C   UNL     1       6.034   3.654  13.071  0.00  0.00    +0.000 C 
ATOM     22  C   UNL     1       6.792   4.313  14.213  0.00  0.00    +0.000 C 
ENDBRANCH  20  22
ENDBRANCH  15  20
ENDBRANCH  14  19
ENDBRANCH  13  14
ENDBRANCH   1  13
TORSDOF 8
ENDMDL
MODEL 9
REMARK VINA RESULT:      -6.1      1.502      2.770
REMARK  Name = 
REMARK  9 active torsions:
REMARK  status: ('A' for Active; 'I' for Inactive)
REMARK    1  A    between atoms: C_1  and  C_2
REMARK    2  A    between atoms: C_2  and  C_3
REMARK    3  A    between atoms: C_3  and  N_4
REMARK    4  A    between atoms: C_8  and  S_9
REMARK    5  A    between atoms: S_9  and  C_10
REMARK    6  A    between atoms: C_10  and  C_11
REMARK    7  A    between atoms: C_11  and  N_12
REMARK    8  A    between atoms: N_12  and  S_13
REMARK    9  A    between atoms: S_13  and  C_16
REMARK                            x       y       z     vdW  Elec       q    Type
REMARK                         _______ _______ _______ _____ _____    ______ ____
ROOT
ATOM      1  C   UNL     1       6.274   4.254  17.879  0.00  0.00    +0.000 C 
ENDROOT
BRANCH   1   2
ATOM      2  N   UNL     1       5.471   4.763  16.750  0.00  0.00    +0.000 NA
ATOM      3  H   UNL     1       4.498   5.018  16.925  0.00  0.00    +0.000 HD
BRANCH   2   4
ATOM      4  S   UNL     1       6.206   5.869  15.702  0.00  0.00    +0.000 S 
ATOM      5  O   UNL     1       5.232   6.913  15.474  0.00  0.00    +0.000 OA
ATOM      6  O   UNL     1       7.526   6.159  16.209  0.00  0.00    +0.000 OA
BRANCH   4   7
ATOM      7  C   UNL     1       6.348   4.934  14.200  0.00  0.00    +0.000 A 
ATOM      8  C   UNL     1       5.368   3.988  13.887  0.00  0.00    +0.000 A 
ATOM      9  C   UNL     1       5.496   3.227  12.723  0.00  0.00    +0.000 A 
ATOM     10  C   UNL     1       6.589   3.424  11.877  0.00  0.00    +0.000 A 
ATOM     11  C   UNL     1       7.546   4.396  12.178  0.00  0.00    +0.000 A 
ATOM     12  C   UNL     1       7.425   5.160  13.339  0.00  0.00    +0.000 A 
ENDBRANCH   4   7
ENDBRANCH   2   4
ENDBRANCH   1   2
BRANCH   1  13
ATOM     13  C   UNL     1       5.393   3.989  19.108  0.00  0.00    +0.000 C 
BRANCH  13  14
ATOM     14  S   UNL     1       4.106   2.753  18.701  0.00  0.00    +0.000 S 
BRANCH  14  19
ATOM     15  N   UNL     1       2.066   4.406  19.525  0.00  0.00    +0.000 N 
ATOM     16  C   UNL     1       1.104   4.437  20.508  0.00  0.00    +0.000 A 
ATOM     17  C   UNL     1       1.335   3.325  21.280  0.00  0.00    +0.000 A 
ATOM     18  N   UNL     1       2.387   2.601  20.783  0.00  0.00    +0.000 NA
ATOM     19  C   UNL     1       2.802   3.262  19.725  0.00  0.00    +0.000 A 
BRANCH  15  20
ATOM     20  C   UNL     1       2.183   5.416  18.485  0.00  0.00    +0.000 C 
BRANCH  20  22
ATOM     21  C   UNL     1       2.750   7.821  17.931  0.00  0.00    +0.000 C 
ATOM     22  C   UNL     1       2.581   6.790  19.036  0.00  0.00    +0.000 C 
ENDBRANCH  20  22
ENDBRANCH  15  20
ENDBRANCH  14  19
ENDBRANCH  13  14
ENDBRANCH   1  13
TORSDOF 8
ENDMDL
