MODEL 1
REMARK VINA RESULT:      -6.1      0.000      0.000
REMARK  Name = 
REMARK  13 active torsions:
REMARK  status: ('A' for Active; 'I' for Inactive)
REMARK    1  A    between atoms: C_1  and  C_2
REMARK    2  A    between atoms: C_5  and  C_6
REMARK    3  A    between atoms: C_8  and  S_9
REMARK    4  A    between atoms: S_9  and  C_10
REMARK    5  A    between atoms: C_10  and  C_11
REMARK    6  A    between atoms: C_11  and  C_12
REMARK    7  A    between atoms: C_12  and  C_13
REMARK    8  A    between atoms: C_12  and  C_14
REMARK    9  A    between atoms: C_15  and  C_16
REMARK   10  A    between atoms: C_16  and  O_18
REMARK   11  A    between atoms: N_20  and  S_21
REMARK   12  A    between atoms: S_21  and  C_24
REMARK   13  A    between atoms: C_29  and  C_30
REMARK                            x       y       z     vdW  Elec       q    Type
REMARK                         _______ _______ _______ _____ _____    ______ ____
ROOT
ATOM      1  C   UNL     1       1.146  12.429  20.104  0.00  0.00    +0.000 C 
ATOM      2  C   UNL     1       1.356  11.237  19.134  0.00  0.00    +0.000 C 
ATOM      3  C   UNL     1       0.330  10.110  19.268  0.00  0.00    +0.000 C 
ATOM      4  C   UNL     1      -1.088  10.682  19.204  0.00  0.00    +0.000 C 
ATOM      5  C   UNL     1      -1.306  11.828  20.179  0.00  0.00    +0.000 C 
ATOM      6  N   UNL     1      -0.290  12.947  20.037  0.00  0.00    +0.000 NA
ENDROOT
BRANCH   1  11
ATOM      7  C   UNL     1       5.045  16.509  18.546  0.00  0.00    +0.000 C 
ATOM      8  C   UNL     1       4.055  15.462  18.959  0.00  0.00    +0.000 A 
ATOM      9  C   UNL     1       4.073  14.924  20.248  0.00  0.00    +0.000 A 
ATOM     10  C   UNL     1       3.148  13.944  20.620  0.00  0.00    +0.000 A 
ATOM     11  C   UNL     1       2.172  13.494  19.716  0.00  0.00    +0.000 A 
ATOM     12  C   UNL     1       2.162  14.039  18.423  0.00  0.00    +0.000 A 
ATOM     13  C   UNL     1       3.102  15.001  18.044  0.00  0.00    +0.000 A 
ENDBRANCH   1  11
BRANCH   6  14
ATOM     14  S   UNL     1      -0.596  14.143  21.354  0.00  0.00    +0.000 S 
ATOM     15  O   UNL     1      -2.014  14.119  21.613  0.00  0.00    +0.000 OA
ATOM     16  O   UNL     1       0.352  13.963  22.432  0.00  0.00    +0.000 OA
BRANCH  14  17
ATOM     17  C   UNL     1      -0.135  15.692  20.588  0.00  0.00    +0.000 A 
ATOM     18  C   UNL     1      -0.556  15.869  19.257  0.00  0.00    +0.000 A 
ATOM     19  C   UNL     1      -0.190  17.010  18.546  0.00  0.00    +0.000 A 
ATOM     20  C   UNL     1       0.577  17.991  19.162  0.00  0.00    +0.000 A 
ATOM     21  C   UNL     1       1.017  17.812  20.474  0.00  0.00    +0.000 A 
ATOM     22  C   UNL     1       0.702  16.647  21.198  0.00  0.00    +0.000 A 
ATOM     23  C   UNL     1       1.346  16.463  22.542  0.00  0.00    +0.000 C 
ENDBRANCH  14  17
ENDBRANCH   6  14
BRANCH   4  24
ATOM     24  C   UNL     1      -1.490  10.989  17.781  0.00  0.00    +0.000 C 
ATOM     25  O   UNL     1      -1.720  10.106  16.963  0.00  0.00    +0.000 OA
BRANCH  24  26
ATOM     26  O   UNL     1      -1.532  12.294  17.455  0.00  0.00    +0.000 OA
ATOM     27  H   UNL     1      -2.436  12.684  17.471  0.00  0.00    +0.000 HD
ENDBRANCH  24  26
ENDBRANCH   4  24
BRANCH   3  28
ATOM     28  S   UNL     1       0.656   9.180  20.836  0.00  0.00    +0.000 S 
BRANCH  28  29
ATOM     29  C   UNL     1       1.839   7.929  20.228  0.00  0.00    +0.000 C 
BRANCH  29  30
ATOM     30  C   UNL     1       2.041   8.046  18.718  0.00  0.00    +0.000 C 
BRANCH  30  31
ATOM     31  C   UNL     1       2.568   6.734  18.099  0.00  0.00    +0.000 C 
ATOM     32  C   UNL     1       3.996   6.871  17.567  0.00  0.00    +0.000 C 
ATOM     33  C   UNL     1       2.508   5.605  19.129  0.00  0.00    +0.000 C 
ENDBRANCH  30  31
ENDBRANCH  29  30
ENDBRANCH  28  29
ENDBRANCH   3  28
TORSDOF 9
ENDMDL
MODEL 2
REMARK VINA RESULT:      -6.1      0.299      1.084
REMARK  Name = 
REMARK  13 active torsions:
REMARK  status: ('A' for Active; 'I' for Inactive)
REMARK    1  A    between atoms: C_1  and  C_2
REMARK    2  A    between atoms: C_5  and  C_6
REMARK    3  A    between atoms: C_8  and  S_9
REMARK    4  A    between atoms: S_9  and  C_10
REMARK    5  A    between atoms: C_10  and  C_11
REMARK    6  A    between atoms: C_11  and  C_12
REMARK    7  A    between atoms: C_12  and  C_13
REMARK    8  A    between atoms: C_12  and  C_14
REMARK    9  A    between atoms: C_15  and  C_16
REMARK   10  A    between atoms: C_16  and  O_18
REMARK   11  A    between atoms: N_20  and  S_21
REMARK   12  A    between atoms: S_21  and  C_24
REMARK   13  A    between atoms: C_29  and  C_30
REMARK                            x       y       z     vdW  Elec       q    Type
REMARK                         _______ _______ _______ _____ _____    ______ ____
ROOT
ATOM      1  C   UNL     1       1.259  12.382  20.087  0.00  0.00    +0.000 C 
ATOM      2  C   UNL     1       1.495  11.161  19.160  0.00  0.00    +0.000 C 
ATOM      3  C   UNL     1       0.504  10.010  19.349  0.00  0.00    +0.000 C 
ATOM      4  C   UNL     1      -0.930  10.536  19.280  0.00  0.00    +0.000 C 
ATOM      5  C   UNL     1      -1.172  11.711  20.215  0.00  0.00    +0.000 C 
ATOM      6  N   UNL     1      -0.192  12.854  20.018  0.00  0.00    +0.000 NA
ENDROOT
BRANCH   1  11
ATOM      7  C   UNL     1       5.080  16.516  18.477  0.00  0.00    +0.000 C 
ATOM      8  C   UNL     1       4.094  15.459  18.874  0.00  0.00    +0.000 A 
ATOM      9  C   UNL     1       3.181  14.943  17.952  0.00  0.00    +0.000 A 
ATOM     10  C   UNL     1       2.262  13.962  18.335  0.00  0.00    +0.000 A 
ATOM     11  C   UNL     1       2.249  13.461  19.647  0.00  0.00    +0.000 A 
ATOM     12  C   UNL     1       3.169  13.985  20.568  0.00  0.00    +0.000 A 
ATOM     13  C   UNL     1       4.071  14.983  20.190  0.00  0.00    +0.000 A 
ENDBRANCH   1  11
BRANCH   6  14
ATOM     14  S   UNL     1      -0.520  14.089  21.293  0.00  0.00    +0.000 S 
ATOM     15  O   UNL     1      -1.938  14.052  21.550  0.00  0.00    +0.000 OA
ATOM     16  O   UNL     1       0.428  13.960  22.379  0.00  0.00    +0.000 OA
BRANCH  14  17
ATOM     17  C   UNL     1      -0.081  15.618  20.476  0.00  0.00    +0.000 A 
ATOM     18  C   UNL     1      -0.495  15.740  19.137  0.00  0.00    +0.000 A 
ATOM     19  C   UNL     1      -0.145  16.861  18.387  0.00  0.00    +0.000 A 
ATOM     20  C   UNL     1       0.600  17.878  18.974  0.00  0.00    +0.000 A 
ATOM     21  C   UNL     1       1.034  17.753  20.294  0.00  0.00    +0.000 A 
ATOM     22  C   UNL     1       0.734  16.608  21.057  0.00  0.00    +0.000 A 
ATOM     23  C   UNL     1       1.372  16.484  22.411  0.00  0.00    +0.000 C 
ENDBRANCH  14  17
ENDBRANCH   6  14
BRANCH   4  24
ATOM     24  C   UNL     1      -1.357  10.777  17.851  0.00  0.00    +0.000 C 
ATOM     25  O   UNL     1      -1.580   9.857  17.073  0.00  0.00    +0.000 OA
BRANCH  24  26
ATOM     26  O   UNL     1      -1.430  12.066  17.474  0.00  0.00    +0.000 OA
ATOM     27  H   UNL     1      -1.498  12.198  16.501  0.00  0.00    +0.000 HD
ENDBRANCH  24  26
ENDBRANCH   4  24
BRANCH   3  28
ATOM     28  S   UNL     1       0.876   9.149  20.946  0.00  0.00    +0.000 S 
BRANCH  28  29
ATOM     29  C   UNL     1       1.609   7.601  20.315  0.00  0.00    +0.000 C 
BRANCH  29  30
ATOM     30  C   UNL     1       2.238   7.806  18.938  0.00  0.00    +0.000 C 
BRANCH  30  31
ATOM     31  C   UNL     1       3.127   6.616  18.521  0.00  0.00    +0.000 C 
ATOM     32  C   UNL     1       2.308   5.395  18.098  0.00  0.00    +0.000 C 
ATOM     33  C   UNL     1       4.059   7.031  17.381  0.00  0.00    +0.000 C 
ENDBRANCH  30  31
ENDBRANCH  29  30
ENDBRANCH  28  29
ENDBRANCH   3  28
TORSDOF 9
ENDMDL
MODEL 3
REMARK VINA RESULT:      -5.8      2.384      7.570
REMARK  Name = 
REMARK  13 active torsions:
REMARK  status: ('A' for Active; 'I' for Inactive)
REMARK    1  A    between atoms: C_1  and  C_2
REMARK    2  A    between atoms: C_5  and  C_6
REMARK    3  A    between atoms: C_8  and  S_9
REMARK    4  A    between atoms: S_9  and  C_10
REMARK    5  A    between atoms: C_10  and  C_11
REMARK    6  A    between atoms: C_11  and  C_12
REMARK    7  A    between atoms: C_12  and  C_13
REMARK    8  A    between atoms: C_12  and  C_14
REMARK    9  A    between atoms: C_15  and  C_16
REMARK   10  A    between atoms: C_16  and  O_18
REMARK   11  A    between atoms: N_20  and  S_21
REMARK   12  A    between atoms: S_21  and  C_24
REMARK   13  A    between atoms: C_29  and  C_30
REMARK                            x       y       z     vdW  Elec       q    Type
REMARK                         _______ _______ _______ _____ _____    ______ ____
ROOT
ATOM      1  C   UNL     1      -0.503  13.011  20.002  0.00  0.00    +0.000 C 
ATOM      2  C   UNL     1      -0.212  14.411  19.402  0.00  0.00    +0.000 C 
ATOM      3  C   UNL     1       1.120  15.029  19.830  0.00  0.00    +0.000 C 
ATOM      4  C   UNL     1       2.259  14.036  19.594  0.00  0.00    +0.000 C 
ATOM      5  C   UNL     1       1.991  12.673  20.211  0.00  0.00    +0.000 C 
ATOM      6  N   UNL     1       0.671  12.060  19.777  0.00  0.00    +0.000 NA
ENDROOT
BRANCH   1  11
ATOM      7  C   UNL     1      -5.483  11.138  17.559  0.00  0.00    +0.000 C 
ATOM      8  C   UNL     1      -4.200  11.610  18.171  0.00  0.00    +0.000 A 
ATOM      9  C   UNL     1      -2.986  11.473  17.495  0.00  0.00    +0.000 A 
ATOM     10  C   UNL     1      -1.795  11.912  18.079  0.00  0.00    +0.000 A 
ATOM     11  C   UNL     1      -1.793  12.515  19.347  0.00  0.00    +0.000 A 
ATOM     12  C   UNL     1      -3.017  12.649  20.020  0.00  0.00    +0.000 A 
ATOM     13  C   UNL     1      -4.205  12.188  19.446  0.00  0.00    +0.000 A 
ENDBRANCH   1  11
BRANCH   6  14
ATOM     14  S   UNL     1       0.438  10.531  20.708  0.00  0.00    +0.000 S 
ATOM     15  O   UNL     1       1.096  10.716  21.977  0.00  0.00    +0.000 OA
ATOM     16  O   UNL     1      -0.944  10.109  20.651  0.00  0.00    +0.000 OA
BRANCH  14  17
ATOM     17  C   UNL     1       1.328   9.335  19.721  0.00  0.00    +0.000 A 
ATOM     18  C   UNL     1       1.600   9.713  18.393  0.00  0.00    +0.000 A 
ATOM     19  C   UNL     1       2.226   8.827  17.519  0.00  0.00    +0.000 A 
ATOM     20  C   UNL     1       2.606   7.568  17.968  0.00  0.00    +0.000 A 
ATOM     21  C   UNL     1       2.319   7.177  19.277  0.00  0.00    +0.000 A 
ATOM     22  C   UNL     1       1.644   8.036  20.165  0.00  0.00    +0.000 A 
ATOM     23  C   UNL     1       1.235   7.481  21.499  0.00  0.00    +0.000 C 
ENDBRANCH  14  17
ENDBRANCH   6  14
BRANCH   4  24
ATOM     24  C   UNL     1       2.654  13.994  18.136  0.00  0.00    +0.000 C 
ATOM     25  O   UNL     1       3.191  14.944  17.578  0.00  0.00    +0.000 OA
BRANCH  24  26
ATOM     26  O   UNL     1       2.335  12.865  17.478  0.00  0.00    +0.000 OA
ATOM     27  H   UNL     1       2.600  12.863  16.530  0.00  0.00    +0.000 HD
ENDBRANCH  24  26
ENDBRANCH   4  24
BRANCH   3  28
ATOM     28  S   UNL     1       0.996  15.568  21.598  0.00  0.00    +0.000 S 
BRANCH  28  29
ATOM     29  C   UNL     1      -0.517  16.585  21.519  0.00  0.00    +0.000 C 
BRANCH  29  30
ATOM     30  C   UNL     1      -1.218  16.642  22.875  0.00  0.00    +0.000 C 
BRANCH  30  31
ATOM     31  C   UNL     1      -2.522  15.815  22.891  0.00  0.00    +0.000 C 
ATOM     32  C   UNL     1      -3.296  15.918  21.576  0.00  0.00    +0.000 C 
ATOM     33  C   UNL     1      -2.209  14.348  23.192  0.00  0.00    +0.000 C 
ENDBRANCH  30  31
ENDBRANCH  29  30
ENDBRANCH  28  29
ENDBRANCH   3  28
TORSDOF 9
ENDMDL
MODEL 4
REMARK VINA RESULT:      -5.8      0.857      1.706
REMARK  Name = 
REMARK  13 active torsions:
REMARK  status: ('A' for Active; 'I' for Inactive)
REMARK    1  A    between atoms: C_1  and  C_2
REMARK    2  A    between atoms: C_5  and  C_6
REMARK    3  A    between atoms: C_8  and  S_9
REMARK    4  A    between atoms: S_9  and  C_10
REMARK    5  A    between atoms: C_10  and  C_11
REMARK    6  A    between atoms: C_11  and  C_12
REMARK    7  A    between atoms: C_12  and  C_13
REMARK    8  A    between atoms: C_12  and  C_14
REMARK    9  A    between atoms: C_15  and  C_16
REMARK   10  A    between atoms: C_16  and  O_18
REMARK   11  A    between atoms: N_20  and  S_21
REMARK   12  A    between atoms: S_21  and  C_24
REMARK   13  A    between atoms: C_29  and  C_30
REMARK                            x       y       z     vdW  Elec       q    Type
REMARK                         _______ _______ _______ _____ _____    ______ ____
ROOT
ATOM      1  C   UNL     1       1.162  12.742  20.192  0.00  0.00    +0.000 C 
ATOM      2  C   UNL     1       1.166  11.587  19.158  0.00  0.00    +0.000 C 
ATOM      3  C   UNL     1      -0.033  10.641  19.246  0.00  0.00    +0.000 C 
ATOM      4  C   UNL     1      -1.335  11.443  19.231  0.00  0.00    +0.000 C 
ATOM      5  C   UNL     1      -1.355  12.554  20.269  0.00  0.00    +0.000 C 
ATOM      6  N   UNL     1      -0.167  13.495  20.173  0.00  0.00    +0.000 NA
ENDROOT
BRANCH   1  11
ATOM      7  C   UNL     1       5.682  16.192  18.798  0.00  0.00    +0.000 C 
ATOM      8  C   UNL     1       4.533  15.305  19.170  0.00  0.00    +0.000 A 
ATOM      9  C   UNL     1       4.438  14.746  20.446  0.00  0.00    +0.000 A 
ATOM     10  C   UNL     1       3.364  13.916  20.779  0.00  0.00    +0.000 A 
ATOM     11  C   UNL     1       2.350  13.640  19.847  0.00  0.00    +0.000 A 
ATOM     12  C   UNL     1       2.454  14.205  18.567  0.00  0.00    +0.000 A 
ATOM     13  C   UNL     1       3.540  15.016  18.227  0.00  0.00    +0.000 A 
ENDBRANCH   1  11
BRANCH   6  14
ATOM     14  S   UNL     1      -0.263  14.652  21.555  0.00  0.00    +0.000 S 
ATOM     15  O   UNL     1      -1.656  14.987  21.717  0.00  0.00    +0.000 OA
ATOM     16  O   UNL     1       0.511  14.166  22.676  0.00  0.00    +0.000 OA
BRANCH  14  17
ATOM     17  C   UNL     1       0.645  16.065  20.944  0.00  0.00    +0.000 A 
ATOM     18  C   UNL     1       1.574  16.633  21.835  0.00  0.00    +0.000 A 
ATOM     19  C   UNL     1       2.283  17.779  21.483  0.00  0.00    +0.000 A 
ATOM     20  C   UNL     1       2.088  18.354  20.233  0.00  0.00    +0.000 A 
ATOM     21  C   UNL     1       1.152  17.810  19.351  0.00  0.00    +0.000 A 
ATOM     22  C   UNL     1       0.388  16.681  19.703  0.00  0.00    +0.000 A 
ATOM     23  C   UNL     1      -0.705  16.258  18.765  0.00  0.00    +0.000 C 
ENDBRANCH  14  17
ENDBRANCH   6  14
BRANCH   4  24
ATOM     24  C   UNL     1      -1.687  11.890  17.832  0.00  0.00    +0.000 C 
ATOM     25  O   UNL     1      -2.519  11.303  17.149  0.00  0.00    +0.000 OA
BRANCH  24  26
ATOM     26  O   UNL     1      -0.994  12.944  17.365  0.00  0.00    +0.000 OA
ATOM     27  H   UNL     1      -1.429  13.813  17.520  0.00  0.00    +0.000 HD
ENDBRANCH  24  26
ENDBRANCH   4  24
BRANCH   3  28
ATOM     28  S   UNL     1       0.140   9.585  20.757  0.00  0.00    +0.000 S 
BRANCH  28  29
ATOM     29  C   UNL     1       1.501   8.489  20.230  0.00  0.00    +0.000 C 
BRANCH  29  30
ATOM     30  C   UNL     1       1.416   7.128  20.920  0.00  0.00    +0.000 C 
BRANCH  30  31
ATOM     31  C   UNL     1       2.231   6.047  20.178  0.00  0.00    +0.000 C 
ATOM     32  C   UNL     1       1.560   4.673  20.227  0.00  0.00    +0.000 C 
ATOM     33  C   UNL     1       2.450   6.462  18.722  0.00  0.00    +0.000 C 
ENDBRANCH  30  31
ENDBRANCH  29  30
ENDBRANCH  28  29
ENDBRANCH   3  28
TORSDOF 9
ENDMDL
MODEL 5
REMARK VINA RESULT:      -5.7      0.624      1.038
REMARK  Name = 
REMARK  13 active torsions:
REMARK  status: ('A' for Active; 'I' for Inactive)
REMARK    1  A    between atoms: C_1  and  C_2
REMARK    2  A    between atoms: C_5  and  C_6
REMARK    3  A    between atoms: C_8  and  S_9
REMARK    4  A    between atoms: S_9  and  C_10
REMARK    5  A    between atoms: C_10  and  C_11
REMARK    6  A    between atoms: C_11  and  C_12
REMARK    7  A    between atoms: C_12  and  C_13
REMARK    8  A    between atoms: C_12  and  C_14
REMARK    9  A    between atoms: C_15  and  C_16
REMARK   10  A    between atoms: C_16  and  O_18
REMARK   11  A    between atoms: N_20  and  S_21
REMARK   12  A    between atoms: S_21  and  C_24
REMARK   13  A    between atoms: C_29  and  C_30
REMARK                            x       y       z     vdW  Elec       q    Type
REMARK                         _______ _______ _______ _____ _____    ______ ____
ROOT
ATOM      1  C   UNL     1       1.249  12.515  20.377  0.00  0.00    +0.000 C 
ATOM      2  C   UNL     1       1.483  11.232  19.539  0.00  0.00    +0.000 C 
ATOM      3  C   UNL     1       0.470  10.111  19.784  0.00  0.00    +0.000 C 
ATOM      4  C   UNL     1      -0.954  10.654  19.651  0.00  0.00    +0.000 C 
ATOM      5  C   UNL     1      -1.195  11.892  20.500  0.00  0.00    +0.000 C 
ATOM      6  N   UNL     1      -0.192  13.004  20.248  0.00  0.00    +0.000 NA
ENDROOT
BRANCH   1  11
ATOM      7  C   UNL     1       5.106  16.465  18.426  0.00  0.00    +0.000 C 
ATOM      8  C   UNL     1       4.127  15.453  18.941  0.00  0.00    +0.000 A 
ATOM      9  C   UNL     1       4.167  15.023  20.269  0.00  0.00    +0.000 A 
ATOM     10  C   UNL     1       3.253  14.075  20.735  0.00  0.00    +0.000 A 
ATOM     11  C   UNL     1       2.265  13.548  19.887  0.00  0.00    +0.000 A 
ATOM     12  C   UNL     1       2.233  13.984  18.553  0.00  0.00    +0.000 A 
ATOM     13  C   UNL     1       3.162  14.915  18.081  0.00  0.00    +0.000 A 
ENDBRANCH   1  11
BRANCH   6  14
ATOM     14  S   UNL     1      -0.524  14.327  21.430  0.00  0.00    +0.000 S 
ATOM     15  O   UNL     1      -1.944  14.315  21.676  0.00  0.00    +0.000 OA
ATOM     16  O   UNL     1       0.414  14.269  22.530  0.00  0.00    +0.000 OA
BRANCH  14  17
ATOM     17  C   UNL     1      -0.070  15.793  20.512  0.00  0.00    +0.000 A 
ATOM     18  C   UNL     1      -0.511  15.844  19.177  0.00  0.00    +0.000 A 
ATOM     19  C   UNL     1      -0.153  16.909  18.354  0.00  0.00    +0.000 A 
ATOM     20  C   UNL     1       0.628  17.941  18.861  0.00  0.00    +0.000 A 
ATOM     21  C   UNL     1       1.089  17.886  20.178  0.00  0.00    +0.000 A 
ATOM     22  C   UNL     1       0.782  16.797  21.015  0.00  0.00    +0.000 A 
ATOM     23  C   UNL     1       1.447  16.739  22.360  0.00  0.00    +0.000 C 
ENDBRANCH  14  17
ENDBRANCH   6  14
BRANCH   4  24
ATOM     24  C   UNL     1      -1.349  10.805  18.200  0.00  0.00    +0.000 C 
ATOM     25  O   UNL     1      -2.132  11.669  17.824  0.00  0.00    +0.000 OA
BRANCH  24  26
ATOM     26  O   UNL     1      -0.825   9.898  17.356  0.00  0.00    +0.000 OA
ATOM     27  H   UNL     1      -1.385   9.100  17.222  0.00  0.00    +0.000 HD
ENDBRANCH  24  26
ENDBRANCH   4  24
BRANCH   3  28
ATOM     28  S   UNL     1       0.796   9.354  21.442  0.00  0.00    +0.000 S 
BRANCH  28  29
ATOM     29  C   UNL     1       1.099   7.622  20.951  0.00  0.00    +0.000 C 
BRANCH  29  30
ATOM     30  C   UNL     1       2.121   7.538  19.819  0.00  0.00    +0.000 C 
BRANCH  30  31
ATOM     31  C   UNL     1       2.633   6.097  19.603  0.00  0.00    +0.000 C 
ATOM     32  C   UNL     1       2.013   5.103  20.588  0.00  0.00    +0.000 C 
ATOM     33  C   UNL     1       2.347   5.648  18.169  0.00  0.00    +0.000 C 
ENDBRANCH  30  31
ENDBRANCH  29  30
ENDBRANCH  28  29
ENDBRANCH   3  28
TORSDOF 9
ENDMDL
MODEL 6
REMARK VINA RESULT:      -5.7      2.389      5.117
REMARK  Name = 
REMARK  13 active torsions:
REMARK  status: ('A' for Active; 'I' for Inactive)
REMARK    1  A    between atoms: C_1  and  C_2
REMARK    2  A    between atoms: C_5  and  C_6
REMARK    3  A    between atoms: C_8  and  S_9
REMARK    4  A    between atoms: S_9  and  C_10
REMARK    5  A    between atoms: C_10  and  C_11
REMARK    6  A    between atoms: C_11  and  C_12
REMARK    7  A    between atoms: C_12  and  C_13
REMARK    8  A    between atoms: C_12  and  C_14
REMARK    9  A    between atoms: C_15  and  C_16
REMARK   10  A    between atoms: C_16  and  O_18
REMARK   11  A    between atoms: N_20  and  S_21
REMARK   12  A    between atoms: S_21  and  C_24
REMARK   13  A    between atoms: C_29  and  C_30
REMARK                            x       y       z     vdW  Elec       q    Type
REMARK                         _______ _______ _______ _____ _____    ______ ____
ROOT
ATOM      1  C   UNL     1      -0.239  10.236  19.327  0.00  0.00    +0.000 C 
ATOM      2  C   UNL     1      -0.585   9.027  20.234  0.00  0.00    +0.000 C 
ATOM      3  C   UNL     1       0.570   8.520  21.100  0.00  0.00    +0.000 C 
ATOM      4  C   UNL     1       1.191   9.683  21.876  0.00  0.00    +0.000 C 
ATOM      5  C   UNL     1       1.564  10.855  20.984  0.00  0.00    +0.000 C 
ATOM      6  N   UNL     1       0.412  11.359  20.132  0.00  0.00    +0.000 NA
ENDROOT
BRANCH   1  11
ATOM      7  C   UNL     1      -5.219  11.863  16.714  0.00  0.00    +0.000 C 
ATOM      8  C   UNL     1      -3.948  11.457  17.397  0.00  0.00    +0.000 A 
ATOM      9  C   UNL     1      -3.678  11.850  18.709  0.00  0.00    +0.000 A 
ATOM     10  C   UNL     1      -2.486  11.470  19.332  0.00  0.00    +0.000 A 
ATOM     11  C   UNL     1      -1.545  10.671  18.662  0.00  0.00    +0.000 A 
ATOM     12  C   UNL     1      -1.824  10.281  17.343  0.00  0.00    +0.000 A 
ATOM     13  C   UNL     1      -3.005  10.682  16.712  0.00  0.00    +0.000 A 
ENDBRANCH   1  11
BRANCH   6  14
ATOM     14  S   UNL     1       1.055  12.639  19.033  0.00  0.00    +0.000 S 
ATOM     15  O   UNL     1       2.110  12.029  18.261  0.00  0.00    +0.000 OA
ATOM     16  O   UNL     1      -0.031  13.333  18.375  0.00  0.00    +0.000 OA
BRANCH  14  17
ATOM     17  C   UNL     1       1.738  13.829  20.179  0.00  0.00    +0.000 A 
ATOM     18  C   UNL     1       3.138  13.966  20.162  0.00  0.00    +0.000 A 
ATOM     19  C   UNL     1       3.777  14.815  21.063  0.00  0.00    +0.000 A 
ATOM     20  C   UNL     1       3.024  15.550  21.972  0.00  0.00    +0.000 A 
ATOM     21  C   UNL     1       1.636  15.402  22.010  0.00  0.00    +0.000 A 
ATOM     22  C   UNL     1       0.972  14.514  21.142  0.00  0.00    +0.000 A 
ATOM     23  C   UNL     1      -0.499  14.297  21.356  0.00  0.00    +0.000 C 
ENDBRANCH  14  17
ENDBRANCH   6  14
BRANCH   4  24
ATOM     24  C   UNL     1       0.348  10.053  23.074  0.00  0.00    +0.000 C 
ATOM     25  O   UNL     1       0.338   9.380  24.098  0.00  0.00    +0.000 OA
BRANCH  24  26
ATOM     26  O   UNL     1      -0.428  11.142  22.927  0.00  0.00    +0.000 OA
ATOM     27  H   UNL     1      -0.732  11.538  23.775  0.00  0.00    +0.000 HD
ENDBRANCH  24  26
ENDBRANCH   4  24
BRANCH   3  28
ATOM     28  S   UNL     1       1.794   7.644  20.022  0.00  0.00    +0.000 S 
BRANCH  28  29
ATOM     29  C   UNL     1       1.789   5.994  20.803  0.00  0.00    +0.000 C 
BRANCH  29  30
ATOM     30  C   UNL     1       1.871   4.885  19.756  0.00  0.00    +0.000 C 
BRANCH  30  31
ATOM     31  C   UNL     1       0.952   3.693  20.097  0.00  0.00    +0.000 C 
ATOM     32  C   UNL     1       0.818   2.707  18.934  0.00  0.00    +0.000 C 
ATOM     33  C   UNL     1       1.478   2.962  21.334  0.00  0.00    +0.000 C 
ENDBRANCH  30  31
ENDBRANCH  29  30
ENDBRANCH  28  29
ENDBRANCH   3  28
TORSDOF 9
ENDMDL
MODEL 7
REMARK VINA RESULT:      -5.7      2.233      5.036
REMARK  Name = 
REMARK  13 active torsions:
REMARK  status: ('A' for Active; 'I' for Inactive)
REMARK    1  A    between atoms: C_1  and  C_2
REMARK    2  A    between atoms: C_5  and  C_6
REMARK    3  A    between atoms: C_8  and  S_9
REMARK    4  A    between atoms: S_9  and  C_10
REMARK    5  A    between atoms: C_10  and  C_11
REMARK    6  A    between atoms: C_11  and  C_12
REMARK    7  A    between atoms: C_12  and  C_13
REMARK    8  A    between atoms: C_12  and  C_14
REMARK    9  A    between atoms: C_15  and  C_16
REMARK   10  A    between atoms: C_16  and  O_18
REMARK   11  A    between atoms: N_20  and  S_21
REMARK   12  A    between atoms: S_21  and  C_24
REMARK   13  A    between atoms: C_29  and  C_30
REMARK                            x       y       z     vdW  Elec       q    Type
REMARK                         _______ _______ _______ _____ _____    ______ ____
ROOT
ATOM      1  C   UNL     1      -1.002  11.455  18.894  0.00  0.00    +0.000 C 
ATOM      2  C   UNL     1      -0.818   9.945  19.198  0.00  0.00    +0.000 C 
ATOM      3  C   UNL     1       0.570   9.557  19.712  0.00  0.00    +0.000 C 
ATOM      4  C   UNL     1       0.961  10.450  20.891  0.00  0.00    +0.000 C 
ATOM      5  C   UNL     1       0.815  11.931  20.582  0.00  0.00    +0.000 C 
ATOM      6  N   UNL     1      -0.566  12.313  20.080  0.00  0.00    +0.000 NA
ENDROOT
BRANCH   1  11
ATOM      7  C   UNL     1      -6.659  12.232  17.601  0.00  0.00    +0.000 C 
ATOM      8  C   UNL     1      -5.208  12.026  17.916  0.00  0.00    +0.000 A 
ATOM      9  C   UNL     1      -4.312  11.598  16.935  0.00  0.00    +0.000 A 
ATOM     10  C   UNL     1      -2.962  11.404  17.243  0.00  0.00    +0.000 A 
ATOM     11  C   UNL     1      -2.475  11.652  18.536  0.00  0.00    +0.000 A 
ATOM     12  C   UNL     1      -3.383  12.081  19.517  0.00  0.00    +0.000 A 
ATOM     13  C   UNL     1      -4.737  12.252  19.215  0.00  0.00    +0.000 A 
ENDBRANCH   1  11
BRANCH   6  14
ATOM     14  S   UNL     1      -0.526  14.059  19.620  0.00  0.00    +0.000 S 
ATOM     15  O   UNL     1      -0.452  14.105  18.181  0.00  0.00    +0.000 OA
ATOM     16  O   UNL     1      -1.552  14.792  20.328  0.00  0.00    +0.000 OA
BRANCH  14  17
ATOM     17  C   UNL     1       1.016  14.613  20.335  0.00  0.00    +0.000 A 
ATOM     18  C   UNL     1       0.923  15.230  21.596  0.00  0.00    +0.000 A 
ATOM     19  C   UNL     1       2.056  15.761  22.210  0.00  0.00    +0.000 A 
ATOM     20  C   UNL     1       3.292  15.660  21.582  0.00  0.00    +0.000 A 
ATOM     21  C   UNL     1       3.388  15.070  20.321  0.00  0.00    +0.000 A 
ATOM     22  C   UNL     1       2.251  14.570  19.659  0.00  0.00    +0.000 A 
ATOM     23  C   UNL     1       2.418  14.097  18.243  0.00  0.00    +0.000 C 
ENDBRANCH  14  17
ENDBRANCH   6  14
BRANCH   4  24
ATOM     24  C   UNL     1       0.277  10.008  22.163  0.00  0.00    +0.000 C 
ATOM     25  O   UNL     1       0.162   8.826  22.465  0.00  0.00    +0.000 OA
BRANCH  24  26
ATOM     26  O   UNL     1      -0.241  10.992  22.920  0.00  0.00    +0.000 OA
ATOM     27  H   UNL     1      -0.919  11.538  22.461  0.00  0.00    +0.000 HD
ENDBRANCH  24  26
ENDBRANCH   4  24
BRANCH   3  28
ATOM     28  S   UNL     1       1.779   9.648  18.313  0.00  0.00    +0.000 S 
BRANCH  28  29
ATOM     29  C   UNL     1       2.341   7.913  18.259  0.00  0.00    +0.000 C 
BRANCH  29  30
ATOM     30  C   UNL     1       2.223   7.249  19.630  0.00  0.00    +0.000 C 
BRANCH  30  31
ATOM     31  C   UNL     1       2.560   5.743  19.579  0.00  0.00    +0.000 C 
ATOM     32  C   UNL     1       1.829   4.945  20.660  0.00  0.00    +0.000 C 
ATOM     33  C   UNL     1       2.218   5.175  18.200  0.00  0.00    +0.000 C 
ENDBRANCH  30  31
ENDBRANCH  29  30
ENDBRANCH  28  29
ENDBRANCH   3  28
TORSDOF 9
ENDMDL
MODEL 8
REMARK VINA RESULT:      -5.6      1.982      2.975
REMARK  Name = 
REMARK  13 active torsions:
REMARK  status: ('A' for Active; 'I' for Inactive)
REMARK    1  A    between atoms: C_1  and  C_2
REMARK    2  A    between atoms: C_5  and  C_6
REMARK    3  A    between atoms: C_8  and  S_9
REMARK    4  A    between atoms: S_9  and  C_10
REMARK    5  A    between atoms: C_10  and  C_11
REMARK    6  A    between atoms: C_11  and  C_12
REMARK    7  A    between atoms: C_12  and  C_13
REMARK    8  A    between atoms: C_12  and  C_14
REMARK    9  A    between atoms: C_15  and  C_16
REMARK   10  A    between atoms: C_16  and  O_18
REMARK   11  A    between atoms: N_20  and  S_21
REMARK   12  A    between atoms: S_21  and  C_24
REMARK   13  A    between atoms: C_29  and  C_30
REMARK                            x       y       z     vdW  Elec       q    Type
REMARK                         _______ _______ _______ _____ _____    ______ ____
ROOT
ATOM      1  C   UNL     1       1.164  12.180  20.117  0.00  0.00    +0.000 C 
ATOM      2  C   UNL     1       1.347  11.582  18.699  0.00  0.00    +0.000 C 
ATOM      3  C   UNL     1       0.558  10.297  18.436  0.00  0.00    +0.000 C 
ATOM      4  C   UNL     1      -0.912  10.499  18.808  0.00  0.00    +0.000 C 
ATOM      5  C   UNL     1      -1.094  11.053  20.212  0.00  0.00    +0.000 C 
ATOM      6  N   UNL     1      -0.316  12.332  20.465  0.00  0.00    +0.000 NA
ENDROOT
BRANCH   1  11
ATOM      7  C   UNL     1       3.964  17.322  20.102  0.00  0.00    +0.000 C 
ATOM      8  C   UNL     1       3.260  15.999  20.115  0.00  0.00    +0.000 A 
ATOM      9  C   UNL     1       3.711  14.952  20.921  0.00  0.00    +0.000 A 
ATOM     10  C   UNL     1       3.049  13.721  20.921  0.00  0.00    +0.000 A 
ATOM     11  C   UNL     1       1.909  13.515  20.127  0.00  0.00    +0.000 A 
ATOM     12  C   UNL     1       1.462  14.573  19.319  0.00  0.00    +0.000 A 
ATOM     13  C   UNL     1       2.139  15.796  19.302  0.00  0.00    +0.000 A 
ENDBRANCH   1  11
BRANCH   6  14
ATOM     14  S   UNL     1      -0.519  12.769  22.205  0.00  0.00    +0.000 S 
ATOM     15  O   UNL     1      -0.362  11.549  22.957  0.00  0.00    +0.000 OA
ATOM     16  O   UNL     1       0.268  13.938  22.528  0.00  0.00    +0.000 OA
BRANCH  14  17
ATOM     17  C   UNL     1      -2.218  13.321  22.272  0.00  0.00    +0.000 A 
ATOM     18  C   UNL     1      -3.101  12.509  23.007  0.00  0.00    +0.000 A 
ATOM     19  C   UNL     1      -4.459  12.812  23.064  0.00  0.00    +0.000 A 
ATOM     20  C   UNL     1      -4.944  13.937  22.408  0.00  0.00    +0.000 A 
ATOM     21  C   UNL     1      -4.079  14.735  21.658  0.00  0.00    +0.000 A 
ATOM     22  C   UNL     1      -2.711  14.422  21.544  0.00  0.00    +0.000 A 
ATOM     23  C   UNL     1      -1.884  15.238  20.591  0.00  0.00    +0.000 C 
ENDBRANCH  14  17
ENDBRANCH   6  14
BRANCH   4  24
ATOM     24  C   UNL     1      -1.647  11.266  17.734  0.00  0.00    +0.000 C 
ATOM     25  O   UNL     1      -2.101  10.719  16.736  0.00  0.00    +0.000 OA
BRANCH  24  26
ATOM     26  O   UNL     1      -1.729  12.596  17.919  0.00  0.00    +0.000 OA
ATOM     27  H   UNL     1      -2.384  13.045  17.338  0.00  0.00    +0.000 HD
ENDBRANCH  24  26
ENDBRANCH   4  24
BRANCH   3  28
ATOM     28  S   UNL     1       1.347   8.904  19.367  0.00  0.00    +0.000 S 
BRANCH  28  29
ATOM     29  C   UNL     1       2.471   8.254  18.083  0.00  0.00    +0.000 C 
BRANCH  29  30
ATOM     30  C   UNL     1       2.491   6.727  18.086  0.00  0.00    +0.000 C 
BRANCH  30  31
ATOM     31  C   UNL     1       3.919   6.163  18.241  0.00  0.00    +0.000 C 
ATOM     32  C   UNL     1       4.100   5.382  19.544  0.00  0.00    +0.000 C 
ATOM     33  C   UNL     1       4.263   5.267  17.050  0.00  0.00    +0.000 C 
ENDBRANCH  30  31
ENDBRANCH  29  30
ENDBRANCH  28  29
ENDBRANCH   3  28
TORSDOF 9
ENDMDL
MODEL 9
REMARK VINA RESULT:      -5.6      2.591      4.962
REMARK  Name = 
REMARK  13 active torsions:
REMARK  status: ('A' for Active; 'I' for Inactive)
REMARK    1  A    between atoms: C_1  and  C_2
REMARK    2  A    between atoms: C_5  and  C_6
REMARK    3  A    between atoms: C_8  and  S_9
REMARK    4  A    between atoms: S_9  and  C_10
REMARK    5  A    between atoms: C_10  and  C_11
REMARK    6  A    between atoms: C_11  and  C_12
REMARK    7  A    between atoms: C_12  and  C_13
REMARK    8  A    between atoms: C_12  and  C_14
REMARK    9  A    between atoms: C_15  and  C_16
REMARK   10  A    between atoms: C_16  and  O_18
REMARK   11  A    between atoms: N_20  and  S_21
REMARK   12  A    between atoms: S_21  and  C_24
REMARK   13  A    between atoms: C_29  and  C_30
REMARK                            x       y       z     vdW  Elec       q    Type
REMARK                         _______ _______ _______ _____ _____    ______ ____
ROOT
ATOM      1  C   UNL     1      -0.739  11.077  18.996  0.00  0.00    +0.000 C 
ATOM      2  C   UNL     1      -0.782   9.662  19.628  0.00  0.00    +0.000 C 
ATOM      3  C   UNL     1       0.516   9.222  20.308  0.00  0.00    +0.000 C 
ATOM      4  C   UNL     1       0.981  10.296  21.293  0.00  0.00    +0.000 C 
ATOM      5  C   UNL     1       1.057  11.678  20.666  0.00  0.00    +0.000 C 
ATOM      6  N   UNL     1      -0.236  12.114  19.998  0.00  0.00    +0.000 NA
ENDROOT
BRANCH   1  11
ATOM      7  C   UNL     1      -6.180  12.252  17.180  0.00  0.00    +0.000 C 
ATOM      8  C   UNL     1      -4.784  11.944  17.629  0.00  0.00    +0.000 A 
ATOM      9  C   UNL     1      -3.836  11.436  16.739  0.00  0.00    +0.000 A 
ATOM     10  C   UNL     1      -2.539  11.147  17.171  0.00  0.00    +0.000 A 
ATOM     11  C   UNL     1      -2.155  11.377  18.502  0.00  0.00    +0.000 A 
ATOM     12  C   UNL     1      -3.114  11.887  19.392  0.00  0.00    +0.000 A 
ATOM     13  C   UNL     1      -4.418  12.153  18.964  0.00  0.00    +0.000 A 
ENDBRANCH   1  11
BRANCH   6  14
ATOM     14  S   UNL     1       0.067  13.694  19.181  0.00  0.00    +0.000 S 
ATOM     15  O   UNL     1       1.464  13.998  19.374  0.00  0.00    +0.000 OA
ATOM     16  O   UNL     1      -0.509  13.697  17.854  0.00  0.00    +0.000 OA
BRANCH  14  17
ATOM     17  C   UNL     1      -0.946  14.823  20.128  0.00  0.00    +0.000 A 
ATOM     18  C   UNL     1      -1.671  14.255  21.191  0.00  0.00    +0.000 A 
ATOM     19  C   UNL     1      -2.544  15.033  21.948  0.00  0.00    +0.000 A 
ATOM     20  C   UNL     1      -2.684  16.387  21.664  0.00  0.00    +0.000 A 
ATOM     21  C   UNL     1      -1.985  16.953  20.597  0.00  0.00    +0.000 A 
ATOM     22  C   UNL     1      -1.134  16.177  19.787  0.00  0.00    +0.000 A 
ATOM     23  C   UNL     1      -0.547  16.826  18.567  0.00  0.00    +0.000 C 
ENDBRANCH  14  17
ENDBRANCH   6  14
BRANCH   4  24
ATOM     24  C   UNL     1       0.191  10.237  22.580  0.00  0.00    +0.000 C 
ATOM     25  O   UNL     1       0.066   9.201  23.222  0.00  0.00    +0.000 OA
BRANCH  24  26
ATOM     26  O   UNL     1      -0.407  11.384  22.950  0.00  0.00    +0.000 OA
ATOM     27  H   UNL     1      -0.863  11.856  22.217  0.00  0.00    +0.000 HD
ENDBRANCH  24  26
ENDBRANCH   4  24
BRANCH   3  28
ATOM     28  S   UNL     1       1.782   8.846  19.010  0.00  0.00    +0.000 S 
BRANCH  28  29
ATOM     29  C   UNL     1       2.262   7.157  19.507  0.00  0.00    +0.000 C 
BRANCH  29  30
ATOM     30  C   UNL     1       2.410   6.242  18.292  0.00  0.00    +0.000 C 
BRANCH  30  31
ATOM     31  C   UNL     1       3.221   4.969  18.617  0.00  0.00    +0.000 C 
ATOM     32  C   UNL     1       3.590   4.177  17.362  0.00  0.00    +0.000 C 
ATOM     33  C   UNL     1       4.490   5.338  19.387  0.00  0.00    +0.000 C 
ENDBRANCH  30  31
ENDBRANCH  29  30
ENDBRANCH  28  29
ENDBRANCH   3  28
TORSDOF 9
ENDMDL
