MODEL 1
REMARK VINA RESULT:      -8.8      0.000      0.000
REMARK  Name = 
REMARK  9 active torsions:
REMARK  status: ('A' for Active; 'I' for Inactive)
REMARK    1  A    between atoms: C_4  and  C_5
REMARK    2  A    between atoms: C_10  and  C_11
REMARK    3  A    between atoms: C_15  and  C_16
REMARK    4  A    between atoms: C_16  and  C_17
REMARK    5  A    between atoms: C_16  and  C_18
REMARK    6  A    between atoms: C_18  and  C_19
REMARK    7  A    between atoms: C_25  and  C_26
REMARK    8  A    between atoms: C_28  and  O_29
REMARK    9  A    between atoms: C_31  and  O_32
REMARK                            x       y       z     vdW  Elec       q    Type
REMARK                         _______ _______ _______ _____ _____    ______ ____
ROOT
ATOM      1  C   UNL     1       1.115   7.976  20.262  0.00  0.00    +0.000 C 
ATOM      2  C   UNL     1       0.254   8.839  20.831  0.00  0.00    +0.000 C 
ATOM      3  C   UNL     1      -0.274   8.718  22.257  0.00  0.00    +0.000 C 
ATOM      4  C   UNL     1      -0.275  10.036  23.041  0.00  0.00    +0.000 C 
ATOM      5  C   UNL     1      -0.929  11.182  22.270  0.00  0.00    +0.000 C 
ATOM      6  C   UNL     1      -0.360  11.316  20.845  0.00  0.00    +0.000 C 
ATOM      7  C   UNL     1       1.101  11.844  20.961  0.00  0.00    +0.000 C 
ATOM      8  C   UNL     1      -0.397   9.971  20.085  0.00  0.00    +0.000 C 
ATOM      9  C   UNL     1      -0.082  10.367  18.637  0.00  0.00    +0.000 C 
ATOM     10  C   UNL     1      -0.685  11.778  18.481  0.00  0.00    +0.000 C 
ATOM     11  C   UNL     1      -1.178  12.230  19.882  0.00  0.00    +0.000 C 
ENDROOT
BRANCH   1  15
ATOM     12  C   UNL     1       3.007   6.430  18.161  0.00  0.00    +0.000 C 
ATOM     13  C   UNL     1       2.315   5.513  18.864  0.00  0.00    +0.000 C 
ATOM     14  C   UNL     1       2.082   5.671  20.302  0.00  0.00    +0.000 C 
ATOM     15  C   UNL     1       1.581   6.767  20.899  0.00  0.00    +0.000 C 
ATOM     16  C   UNL     1       2.427   4.452  21.141  0.00  0.00    +0.000 C 
ATOM     17  C   UNL     1       1.812   3.168  20.572  0.00  0.00    +0.000 C 
ATOM     18  C   UNL     1       2.131   3.001  19.088  0.00  0.00    +0.000 C 
ATOM     19  C   UNL     1       1.741   4.237  18.273  0.00  0.00    +0.000 C 
BRANCH  17  20
ATOM     20  O   UNL     1       0.399   3.145  20.783  0.00  0.00    +0.000 OA
ATOM     21  H   UNL     1       0.013   2.452  20.219  0.00  0.00    +0.000 HD
ENDBRANCH  17  20
BRANCH  19  22
ATOM     22  O   UNL     1       2.167   4.043  16.925  0.00  0.00    +0.000 OA
ATOM     23  H   UNL     1       2.821   4.736  16.730  0.00  0.00    +0.000 HD
ENDBRANCH  19  22
ENDBRANCH   1  15
BRANCH  11  24
ATOM     24  C   UNL     1      -2.743  12.219  20.064  0.00  0.00    +0.000 C 
ATOM     25  C   UNL     1      -3.563  11.825  18.823  0.00  0.00    +0.000 C 
BRANCH  24  26
ATOM     26  C   UNL     1      -3.255  13.569  20.615  0.00  0.00    +0.000 C 
BRANCH  26  27
ATOM     27  C   UNL     1      -4.583  13.445  21.387  0.00  0.00    +0.000 C 
ATOM     28  O   UNL     1      -4.554  12.299  22.254  0.00  0.00    +0.000 OA
ATOM     29  C   UNL     1      -4.256  12.686  23.525  0.00  0.00    +0.000 C 
ATOM     30  O   UNL     1      -4.054  11.948  24.471  0.00  0.00    +0.000 OA
ATOM     31  C   UNL     1      -4.234  14.162  23.535  0.00  0.00    +0.000 C 
ATOM     32  C   UNL     1      -3.612  14.872  24.476  0.00  0.00    +0.000 C 
ATOM     33  C   UNL     1      -4.860  14.649  22.272  0.00  0.00    +0.000 C 
ATOM     34  C   UNL     1      -6.364  14.875  22.419  0.00  0.00    +0.000 C 
ENDBRANCH  26  27
ENDBRANCH  24  26
ENDBRANCH  11  24
TORSDOF 6
ENDMDL
MODEL 2
REMARK VINA RESULT:      -8.5      1.062      1.642
REMARK  Name = 
REMARK  9 active torsions:
REMARK  status: ('A' for Active; 'I' for Inactive)
REMARK    1  A    between atoms: C_4  and  C_5
REMARK    2  A    between atoms: C_10  and  C_11
REMARK    3  A    between atoms: C_15  and  C_16
REMARK    4  A    between atoms: C_16  and  C_17
REMARK    5  A    between atoms: C_16  and  C_18
REMARK    6  A    between atoms: C_18  and  C_19
REMARK    7  A    between atoms: C_25  and  C_26
REMARK    8  A    between atoms: C_28  and  O_29
REMARK    9  A    between atoms: C_31  and  O_32
REMARK                            x       y       z     vdW  Elec       q    Type
REMARK                         _______ _______ _______ _____ _____    ______ ____
ROOT
ATOM      1  C   UNL     1       1.020   7.953  20.360  0.00  0.00    +0.000 C 
ATOM      2  C   UNL     1       0.205   8.859  20.929  0.00  0.00    +0.000 C 
ATOM      3  C   UNL     1      -0.335   8.762  22.353  0.00  0.00    +0.000 C 
ATOM      4  C   UNL     1      -0.268  10.075  23.142  0.00  0.00    +0.000 C 
ATOM      5  C   UNL     1      -0.855  11.258  22.373  0.00  0.00    +0.000 C 
ATOM      6  C   UNL     1      -0.274  11.366  20.950  0.00  0.00    +0.000 C 
ATOM      7  C   UNL     1       1.213  11.813  21.075  0.00  0.00    +0.000 C 
ATOM      8  C   UNL     1      -0.380  10.028  20.185  0.00  0.00    +0.000 C 
ATOM      9  C   UNL     1      -0.038  10.411  18.740  0.00  0.00    +0.000 C 
ATOM     10  C   UNL     1      -0.563  11.854  18.587  0.00  0.00    +0.000 C 
ATOM     11  C   UNL     1      -1.037  12.327  19.988  0.00  0.00    +0.000 C 
ENDROOT
BRANCH   1  15
ATOM     12  C   UNL     1       3.225   6.550  18.475  0.00  0.00    +0.000 C 
ATOM     13  C   UNL     1       2.461   5.587  19.024  0.00  0.00    +0.000 C 
ATOM     14  C   UNL     1       2.022   5.663  20.420  0.00  0.00    +0.000 C 
ATOM     15  C   UNL     1       1.418   6.718  20.995  0.00  0.00    +0.000 C 
ATOM     16  C   UNL     1       2.271   4.406  21.235  0.00  0.00    +0.000 C 
ATOM     17  C   UNL     1       1.772   3.146  20.519  0.00  0.00    +0.000 C 
ATOM     18  C   UNL     1       2.302   3.064  19.089  0.00  0.00    +0.000 C 
ATOM     19  C   UNL     1       2.004   4.337  18.292  0.00  0.00    +0.000 C 
BRANCH  17  20
ATOM     20  O   UNL     1       0.344   3.091  20.523  0.00  0.00    +0.000 OA
ATOM     21  H   UNL     1       0.014   3.524  19.716  0.00  0.00    +0.000 HD
ENDBRANCH  17  20
BRANCH  19  22
ATOM     22  O   UNL     1       2.622   4.223  17.010  0.00  0.00    +0.000 OA
ATOM     23  H   UNL     1       2.478   3.311  16.704  0.00  0.00    +0.000 HD
ENDBRANCH  19  22
ENDBRANCH   1  15
BRANCH  11  24
ATOM     24  C   UNL     1      -2.600  12.400  20.163  0.00  0.00    +0.000 C 
ATOM     25  C   UNL     1      -3.437  11.897  18.974  0.00  0.00    +0.000 C 
BRANCH  24  26
ATOM     26  C   UNL     1      -3.058  13.825  20.552  0.00  0.00    +0.000 C 
BRANCH  26  27
ATOM     27  C   UNL     1      -3.487  13.944  22.027  0.00  0.00    +0.000 C 
ATOM     28  O   UNL     1      -4.372  15.063  22.203  0.00  0.00    +0.000 OA
ATOM     29  C   UNL     1      -5.664  14.635  22.225  0.00  0.00    +0.000 C 
ATOM     30  O   UNL     1      -6.654  15.342  22.255  0.00  0.00    +0.000 OA
ATOM     31  C   UNL     1      -5.632  13.159  22.214  0.00  0.00    +0.000 C 
ATOM     32  C   UNL     1      -6.673  12.414  21.843  0.00  0.00    +0.000 C 
ATOM     33  C   UNL     1      -4.240  12.718  22.517  0.00  0.00    +0.000 C 
ATOM     34  C   UNL     1      -4.011  12.507  24.013  0.00  0.00    +0.000 C 
ENDBRANCH  26  27
ENDBRANCH  24  26
ENDBRANCH  11  24
TORSDOF 6
ENDMDL
MODEL 3
REMARK VINA RESULT:      -8.2      0.938      1.350
REMARK  Name = 
REMARK  9 active torsions:
REMARK  status: ('A' for Active; 'I' for Inactive)
REMARK    1  A    between atoms: C_4  and  C_5
REMARK    2  A    between atoms: C_10  and  C_11
REMARK    3  A    between atoms: C_15  and  C_16
REMARK    4  A    between atoms: C_16  and  C_17
REMARK    5  A    between atoms: C_16  and  C_18
REMARK    6  A    between atoms: C_18  and  C_19
REMARK    7  A    between atoms: C_25  and  C_26
REMARK    8  A    between atoms: C_28  and  O_29
REMARK    9  A    between atoms: C_31  and  O_32
REMARK                            x       y       z     vdW  Elec       q    Type
REMARK                         _______ _______ _______ _____ _____    ______ ____
ROOT
ATOM      1  C   UNL     1       1.264   7.928  20.210  0.00  0.00    +0.000 C 
ATOM      2  C   UNL     1       0.360   8.754  20.767  0.00  0.00    +0.000 C 
ATOM      3  C   UNL     1      -0.204   8.594  22.175  0.00  0.00    +0.000 C 
ATOM      4  C   UNL     1      -0.270   9.899  22.979  0.00  0.00    +0.000 C 
ATOM      5  C   UNL     1      -0.938  11.035  22.206  0.00  0.00    +0.000 C 
ATOM      6  C   UNL     1      -0.334  11.210  20.800  0.00  0.00    +0.000 C 
ATOM      7  C   UNL     1       1.105  11.782  20.966  0.00  0.00    +0.000 C 
ATOM      8  C   UNL     1      -0.306   9.877  20.020  0.00  0.00    +0.000 C 
ATOM      9  C   UNL     1       0.037  10.305  18.587  0.00  0.00    +0.000 C 
ATOM     10  C   UNL     1      -0.606  11.698  18.435  0.00  0.00    +0.000 C 
ATOM     11  C   UNL     1      -1.153  12.113  19.828  0.00  0.00    +0.000 C 
ENDROOT
BRANCH   1  15
ATOM     12  C   UNL     1       2.968   6.291  18.018  0.00  0.00    +0.000 C 
ATOM     13  C   UNL     1       2.310   5.407  18.792  0.00  0.00    +0.000 C 
ATOM     14  C   UNL     1       2.185   5.604  20.239  0.00  0.00    +0.000 C 
ATOM     15  C   UNL     1       1.751   6.725  20.843  0.00  0.00    +0.000 C 
ATOM     16  C   UNL     1       2.565   4.399  21.081  0.00  0.00    +0.000 C 
ATOM     17  C   UNL     1       1.885   3.115  20.591  0.00  0.00    +0.000 C 
ATOM     18  C   UNL     1       2.092   2.905  19.093  0.00  0.00    +0.000 C 
ATOM     19  C   UNL     1       1.669   4.130  18.277  0.00  0.00    +0.000 C 
BRANCH  17  20
ATOM     20  O   UNL     1       0.491   3.127  20.903  0.00  0.00    +0.000 OA
ATOM     21  H   UNL     1       0.240   2.249  21.240  0.00  0.00    +0.000 HD
ENDBRANCH  17  20
BRANCH  19  22
ATOM     22  O   UNL     1       1.992   3.895  16.907  0.00  0.00    +0.000 OA
ATOM     23  H   UNL     1       2.962   3.892  16.839  0.00  0.00    +0.000 HD
ENDBRANCH  19  22
ENDBRANCH   1  15
BRANCH  11  24
ATOM     24  C   UNL     1      -2.721  12.049  19.964  0.00  0.00    +0.000 C 
ATOM     25  C   UNL     1      -3.505  11.848  18.655  0.00  0.00    +0.000 C 
BRANCH  24  26
ATOM     26  C   UNL     1      -3.272  13.284  20.713  0.00  0.00    +0.000 C 
BRANCH  26  27
ATOM     27  C   UNL     1      -4.388  12.937  21.718  0.00  0.00    +0.000 C 
ATOM     28  O   UNL     1      -4.183  13.639  22.956  0.00  0.00    +0.000 OA
ATOM     29  C   UNL     1      -4.973  14.748  22.997  0.00  0.00    +0.000 C 
ATOM     30  O   UNL     1      -4.959  15.607  23.859  0.00  0.00    +0.000 OA
ATOM     31  C   UNL     1      -5.846  14.702  21.808  0.00  0.00    +0.000 C 
ATOM     32  C   UNL     1      -6.456  15.779  21.314  0.00  0.00    +0.000 C 
ATOM     33  C   UNL     1      -5.768  13.334  21.220  0.00  0.00    +0.000 C 
ATOM     34  C   UNL     1      -6.834  12.397  21.786  0.00  0.00    +0.000 C 
ENDBRANCH  26  27
ENDBRANCH  24  26
ENDBRANCH  11  24
TORSDOF 6
ENDMDL
MODEL 4
REMARK VINA RESULT:      -8.1      1.543      2.000
REMARK  Name = 
REMARK  9 active torsions:
REMARK  status: ('A' for Active; 'I' for Inactive)
REMARK    1  A    between atoms: C_4  and  C_5
REMARK    2  A    between atoms: C_10  and  C_11
REMARK    3  A    between atoms: C_15  and  C_16
REMARK    4  A    between atoms: C_16  and  C_17
REMARK    5  A    between atoms: C_16  and  C_18
REMARK    6  A    between atoms: C_18  and  C_19
REMARK    7  A    between atoms: C_25  and  C_26
REMARK    8  A    between atoms: C_28  and  O_29
REMARK    9  A    between atoms: C_31  and  O_32
REMARK                            x       y       z     vdW  Elec       q    Type
REMARK                         _______ _______ _______ _____ _____    ______ ____
ROOT
ATOM      1  C   UNL     1       1.294   7.929  20.236  0.00  0.00    +0.000 C 
ATOM      2  C   UNL     1       0.386   8.752  20.789  0.00  0.00    +0.000 C 
ATOM      3  C   UNL     1      -0.214   8.568  22.180  0.00  0.00    +0.000 C 
ATOM      4  C   UNL     1      -0.285   9.856  23.010  0.00  0.00    +0.000 C 
ATOM      5  C   UNL     1      -0.922  11.016  22.246  0.00  0.00    +0.000 C 
ATOM      6  C   UNL     1      -0.282  11.215  20.860  0.00  0.00    +0.000 C 
ATOM      7  C   UNL     1       1.159  11.767  21.073  0.00  0.00    +0.000 C 
ATOM      8  C   UNL     1      -0.249   9.898  20.051  0.00  0.00    +0.000 C 
ATOM      9  C   UNL     1       0.133  10.354  18.637  0.00  0.00    +0.000 C 
ATOM     10  C   UNL     1      -0.491  11.758  18.500  0.00  0.00    +0.000 C 
ATOM     11  C   UNL     1      -1.067  12.147  19.888  0.00  0.00    +0.000 C 
ENDROOT
BRANCH   1  15
ATOM     12  C   UNL     1       2.988   6.295  18.034  0.00  0.00    +0.000 C 
ATOM     13  C   UNL     1       2.307   5.412  18.787  0.00  0.00    +0.000 C 
ATOM     14  C   UNL     1       2.171   5.587  20.236  0.00  0.00    +0.000 C 
ATOM     15  C   UNL     1       1.753   6.706  20.854  0.00  0.00    +0.000 C 
ATOM     16  C   UNL     1       2.521   4.362  21.062  0.00  0.00    +0.000 C 
ATOM     17  C   UNL     1       1.822   3.099  20.544  0.00  0.00    +0.000 C 
ATOM     18  C   UNL     1       2.039   2.910  19.045  0.00  0.00    +0.000 C 
ATOM     19  C   UNL     1       1.647   4.155  18.245  0.00  0.00    +0.000 C 
BRANCH  17  20
ATOM     20  O   UNL     1       0.425   3.133  20.844  0.00  0.00    +0.000 OA
ATOM     21  H   UNL     1       0.316   3.166  21.811  0.00  0.00    +0.000 HD
ENDBRANCH  17  20
BRANCH  19  22
ATOM     22  O   UNL     1       1.978   3.936  16.874  0.00  0.00    +0.000 OA
ATOM     23  H   UNL     1       1.149   3.984  16.369  0.00  0.00    +0.000 HD
ENDBRANCH  19  22
ENDBRANCH   1  15
BRANCH  11  24
ATOM     24  C   UNL     1      -2.639  12.098  19.985  0.00  0.00    +0.000 C 
ATOM     25  C   UNL     1      -3.381  11.664  18.709  0.00  0.00    +0.000 C 
BRANCH  24  26
ATOM     26  C   UNL     1      -3.214  13.443  20.486  0.00  0.00    +0.000 C 
BRANCH  26  27
ATOM     27  C   UNL     1      -2.161  14.338  21.167  0.00  0.00    +0.000 C 
ATOM     28  O   UNL     1      -2.307  15.702  20.735  0.00  0.00    +0.000 OA
ATOM     29  C   UNL     1      -3.002  16.411  21.667  0.00  0.00    +0.000 C 
ATOM     30  O   UNL     1      -3.383  17.562  21.555  0.00  0.00    +0.000 OA
ATOM     31  C   UNL     1      -3.196  15.525  22.832  0.00  0.00    +0.000 C 
ATOM     32  C   UNL     1      -4.141  15.729  23.748  0.00  0.00    +0.000 C 
ATOM     33  C   UNL     1      -2.292  14.349  22.681  0.00  0.00    +0.000 C 
ATOM     34  C   UNL     1      -0.932  14.574  23.339  0.00  0.00    +0.000 C 
ENDBRANCH  26  27
ENDBRANCH  24  26
ENDBRANCH  11  24
TORSDOF 6
ENDMDL
MODEL 5
REMARK VINA RESULT:      -7.8      1.098      1.184
REMARK  Name = 
REMARK  9 active torsions:
REMARK  status: ('A' for Active; 'I' for Inactive)
REMARK    1  A    between atoms: C_4  and  C_5
REMARK    2  A    between atoms: C_10  and  C_11
REMARK    3  A    between atoms: C_15  and  C_16
REMARK    4  A    between atoms: C_16  and  C_17
REMARK    5  A    between atoms: C_16  and  C_18
REMARK    6  A    between atoms: C_18  and  C_19
REMARK    7  A    between atoms: C_25  and  C_26
REMARK    8  A    between atoms: C_28  and  O_29
REMARK    9  A    between atoms: C_31  and  O_32
REMARK                            x       y       z     vdW  Elec       q    Type
REMARK                         _______ _______ _______ _____ _____    ______ ____
ROOT
ATOM      1  C   UNL     1       1.244   7.917  20.231  0.00  0.00    +0.000 C 
ATOM      2  C   UNL     1       0.387   8.771  20.819  0.00  0.00    +0.000 C 
ATOM      3  C   UNL     1      -0.149   8.617  22.239  0.00  0.00    +0.000 C 
ATOM      4  C   UNL     1      -0.144   9.915  23.057  0.00  0.00    +0.000 C 
ATOM      5  C   UNL     1      -0.785  11.085  22.313  0.00  0.00    +0.000 C 
ATOM      6  C   UNL     1      -0.209  11.252  20.895  0.00  0.00    +0.000 C 
ATOM      7  C   UNL     1       1.256  11.765  21.032  0.00  0.00    +0.000 C 
ATOM      8  C   UNL     1      -0.251   9.928  20.100  0.00  0.00    +0.000 C 
ATOM      9  C   UNL     1       0.074  10.359  18.664  0.00  0.00    +0.000 C 
ATOM     10  C   UNL     1      -0.518  11.778  18.542  0.00  0.00    +0.000 C 
ATOM     11  C   UNL     1      -1.014  12.197  19.953  0.00  0.00    +0.000 C 
ENDROOT
BRANCH   1  15
ATOM     12  C   UNL     1       2.992   6.329  18.039  0.00  0.00    +0.000 C 
ATOM     13  C   UNL     1       2.303   5.429  18.765  0.00  0.00    +0.000 C 
ATOM     14  C   UNL     1       2.137   5.582  20.213  0.00  0.00    +0.000 C 
ATOM     15  C   UNL     1       1.698   6.689  20.839  0.00  0.00    +0.000 C 
ATOM     16  C   UNL     1       2.478   4.346  21.027  0.00  0.00    +0.000 C 
ATOM     17  C   UNL     1       1.798   3.087  20.476  0.00  0.00    +0.000 C 
ATOM     18  C   UNL     1       2.047   2.922  18.979  0.00  0.00    +0.000 C 
ATOM     19  C   UNL     1       1.662   4.178  18.191  0.00  0.00    +0.000 C 
BRANCH  17  20
ATOM     20  O   UNL     1       0.395   3.107  20.748  0.00  0.00    +0.000 OA
ATOM     21  H   UNL     1       0.120   2.215  21.024  0.00  0.00    +0.000 HD
ENDBRANCH  17  20
BRANCH  19  22
ATOM     22  O   UNL     1       2.023   3.982  16.824  0.00  0.00    +0.000 OA
ATOM     23  H   UNL     1       2.889   4.402  16.694  0.00  0.00    +0.000 HD
ENDBRANCH  19  22
ENDBRANCH   1  15
BRANCH  11  24
ATOM     24  C   UNL     1      -2.580  12.193  20.126  0.00  0.00    +0.000 C 
ATOM     25  C   UNL     1      -3.393  11.727  18.906  0.00  0.00    +0.000 C 
BRANCH  24  26
ATOM     26  C   UNL     1      -3.098  13.572  20.597  0.00  0.00    +0.000 C 
BRANCH  26  27
ATOM     27  C   UNL     1      -3.600  13.567  22.054  0.00  0.00    +0.000 C 
ATOM     28  O   UNL     1      -2.522  13.263  22.954  0.00  0.00    +0.000 OA
ATOM     29  C   UNL     1      -2.032  14.413  23.496  0.00  0.00    +0.000 C 
ATOM     30  O   UNL     1      -1.053  14.507  24.214  0.00  0.00    +0.000 OA
ATOM     31  C   UNL     1      -2.914  15.511  23.055  0.00  0.00    +0.000 C 
ATOM     32  C   UNL     1      -2.538  16.789  23.059  0.00  0.00    +0.000 C 
ATOM     33  C   UNL     1      -4.157  14.915  22.485  0.00  0.00    +0.000 C 
ATOM     34  C   UNL     1      -5.249  14.734  23.537  0.00  0.00    +0.000 C 
ENDBRANCH  26  27
ENDBRANCH  24  26
ENDBRANCH  11  24
TORSDOF 6
ENDMDL
MODEL 6
REMARK VINA RESULT:      -7.3      1.943      2.607
REMARK  Name = 
REMARK  9 active torsions:
REMARK  status: ('A' for Active; 'I' for Inactive)
REMARK    1  A    between atoms: C_4  and  C_5
REMARK    2  A    between atoms: C_10  and  C_11
REMARK    3  A    between atoms: C_15  and  C_16
REMARK    4  A    between atoms: C_16  and  C_17
REMARK    5  A    between atoms: C_16  and  C_18
REMARK    6  A    between atoms: C_18  and  C_19
REMARK    7  A    between atoms: C_25  and  C_26
REMARK    8  A    between atoms: C_28  and  O_29
REMARK    9  A    between atoms: C_31  and  O_32
REMARK                            x       y       z     vdW  Elec       q    Type
REMARK                         _______ _______ _______ _____ _____    ______ ____
ROOT
ATOM      1  C   UNL     1       0.997   8.124  20.271  0.00  0.00    +0.000 C 
ATOM      2  C   UNL     1       0.164   9.034  20.808  0.00  0.00    +0.000 C 
ATOM      3  C   UNL     1      -0.408   8.956  22.220  0.00  0.00    +0.000 C 
ATOM      4  C   UNL     1      -0.367  10.282  22.989  0.00  0.00    +0.000 C 
ATOM      5  C   UNL     1      -0.944  11.448  22.188  0.00  0.00    +0.000 C 
ATOM      6  C   UNL     1      -0.331  11.538  20.778  0.00  0.00    +0.000 C 
ATOM      7  C   UNL     1       1.150  11.996  20.928  0.00  0.00    +0.000 C 
ATOM      8  C   UNL     1      -0.412  10.187  20.032  0.00  0.00    +0.000 C 
ATOM      9  C   UNL     1      -0.039  10.550  18.589  0.00  0.00    +0.000 C 
ATOM     10  C   UNL     1      -0.569  11.986  18.401  0.00  0.00    +0.000 C 
ATOM     11  C   UNL     1      -1.078  12.478  19.783  0.00  0.00    +0.000 C 
ENDROOT
BRANCH   1  15
ATOM     12  C   UNL     1       3.256   6.708  18.462  0.00  0.00    +0.000 C 
ATOM     13  C   UNL     1       2.485   5.749  19.007  0.00  0.00    +0.000 C 
ATOM     14  C   UNL     1       2.012   5.843  20.391  0.00  0.00    +0.000 C 
ATOM     15  C   UNL     1       1.387   6.902  20.935  0.00  0.00    +0.000 C 
ATOM     16  C   UNL     1       2.250   4.600  21.231  0.00  0.00    +0.000 C 
ATOM     17  C   UNL     1       1.777   3.326  20.523  0.00  0.00    +0.000 C 
ATOM     18  C   UNL     1       2.342   3.225  19.107  0.00  0.00    +0.000 C 
ATOM     19  C   UNL     1       2.055   4.484  18.284  0.00  0.00    +0.000 C 
BRANCH  17  20
ATOM     20  O   UNL     1       0.350   3.261  20.494  0.00  0.00    +0.000 OA
ATOM     21  H   UNL     1       0.072   2.907  19.630  0.00  0.00    +0.000 HD
ENDBRANCH  17  20
BRANCH  19  22
ATOM     22  O   UNL     1       2.704   4.354  17.019  0.00  0.00    +0.000 OA
ATOM     23  H   UNL     1       2.938   5.251  16.725  0.00  0.00    +0.000 HD
ENDBRANCH  19  22
ENDBRANCH   1  15
BRANCH  11  24
ATOM     24  C   UNL     1      -2.645  12.544  19.922  0.00  0.00    +0.000 C 
ATOM     25  C   UNL     1      -3.191  12.676  21.355  0.00  0.00    +0.000 C 
BRANCH  24  26
ATOM     26  C   UNL     1      -3.323  11.345  19.219  0.00  0.00    +0.000 C 
BRANCH  26  27
ATOM     27  C   UNL     1      -4.569  11.744  18.404  0.00  0.00    +0.000 C 
ATOM     28  O   UNL     1      -5.341  10.580  18.066  0.00  0.00    +0.000 OA
ATOM     29  C   UNL     1      -6.383  10.446  18.934  0.00  0.00    +0.000 C 
ATOM     30  O   UNL     1      -7.159   9.510  18.984  0.00  0.00    +0.000 OA
ATOM     31  C   UNL     1      -6.392  11.649  19.790  0.00  0.00    +0.000 C 
ATOM     32  C   UNL     1      -7.001  11.691  20.975  0.00  0.00    +0.000 C 
ATOM     33  C   UNL     1      -5.498  12.670  19.173  0.00  0.00    +0.000 C 
ATOM     34  C   UNL     1      -6.248  13.596  18.216  0.00  0.00    +0.000 C 
ENDBRANCH  26  27
ENDBRANCH  24  26
ENDBRANCH  11  24
TORSDOF 6
ENDMDL
MODEL 7
REMARK VINA RESULT:      -7.3      3.381     10.314
REMARK  Name = 
REMARK  9 active torsions:
REMARK  status: ('A' for Active; 'I' for Inactive)
REMARK    1  A    between atoms: C_4  and  C_5
REMARK    2  A    between atoms: C_10  and  C_11
REMARK    3  A    between atoms: C_15  and  C_16
REMARK    4  A    between atoms: C_16  and  C_17
REMARK    5  A    between atoms: C_16  and  C_18
REMARK    6  A    between atoms: C_18  and  C_19
REMARK    7  A    between atoms: C_25  and  C_26
REMARK    8  A    between atoms: C_28  and  O_29
REMARK    9  A    between atoms: C_31  and  O_32
REMARK                            x       y       z     vdW  Elec       q    Type
REMARK                         _______ _______ _______ _____ _____    ______ ____
ROOT
ATOM      1  C   UNL     1       1.712   8.289  19.537  0.00  0.00    +0.000 C 
ATOM      2  C   UNL     1       1.977   6.979  19.688  0.00  0.00    +0.000 C 
ATOM      3  C   UNL     1       1.503   6.131  20.864  0.00  0.00    +0.000 C 
ATOM      4  C   UNL     1       0.940   4.761  20.465  0.00  0.00    +0.000 C 
ATOM      5  C   UNL     1       1.868   3.993  19.525  0.00  0.00    +0.000 C 
ATOM      6  C   UNL     1       2.310   4.848  18.323  0.00  0.00    +0.000 C 
ATOM      7  C   UNL     1       1.071   5.053  17.401  0.00  0.00    +0.000 C 
ATOM      8  C   UNL     1       2.888   6.209  18.772  0.00  0.00    +0.000 C 
ATOM      9  C   UNL     1       3.527   6.767  17.494  0.00  0.00    +0.000 C 
ATOM     10  C   UNL     1       4.015   5.520  16.728  0.00  0.00    +0.000 C 
ATOM     11  C   UNL     1       3.497   4.272  17.494  0.00  0.00    +0.000 C 
ENDROOT
BRANCH   1  15
ATOM     12  C   UNL     1      -0.668   9.849  18.024  0.00  0.00    +0.000 C 
ATOM     13  C   UNL     1      -0.167  10.659  18.976  0.00  0.00    +0.000 C 
ATOM     14  C   UNL     1       0.215  10.144  20.294  0.00  0.00    +0.000 C 
ATOM     15  C   UNL     1       1.017   9.087  20.520  0.00  0.00    +0.000 C 
ATOM     16  C   UNL     1      -0.348  10.922  21.470  0.00  0.00    +0.000 C 
ATOM     17  C   UNL     1      -0.116  12.431  21.327  0.00  0.00    +0.000 C 
ATOM     18  C   UNL     1      -0.587  12.947  19.969  0.00  0.00    +0.000 C 
ATOM     19  C   UNL     1       0.027  12.156  18.810  0.00  0.00    +0.000 C 
BRANCH  17  20
ATOM     20  O   UNL     1       1.260  12.755  21.532  0.00  0.00    +0.000 OA
ATOM     21  H   UNL     1       1.755  11.929  21.681  0.00  0.00    +0.000 HD
ENDBRANCH  17  20
BRANCH  19  22
ATOM     22  O   UNL     1      -0.543  12.628  17.589  0.00  0.00    +0.000 OA
ATOM     23  H   UNL     1      -0.587  13.597  17.651  0.00  0.00    +0.000 HD
ENDBRANCH  19  22
ENDBRANCH   1  15
BRANCH  11  24
ATOM     24  C   UNL     1       4.602   3.490  18.299  0.00  0.00    +0.000 C 
ATOM     25  C   UNL     1       4.140   2.198  18.997  0.00  0.00    +0.000 C 
BRANCH  24  26
ATOM     26  C   UNL     1       5.307   4.407  19.325  0.00  0.00    +0.000 C 
BRANCH  26  27
ATOM     27  C   UNL     1       6.838   4.452  19.147  0.00  0.00    +0.000 C 
ATOM     28  O   UNL     1       7.200   4.048  17.816  0.00  0.00    +0.000 OA
ATOM     29  C   UNL     1       7.429   5.147  17.044  0.00  0.00    +0.000 C 
ATOM     30  O   UNL     1       7.652   5.148  15.848  0.00  0.00    +0.000 OA
ATOM     31  C   UNL     1       7.365   6.323  17.934  0.00  0.00    +0.000 C 
ATOM     32  C   UNL     1       7.153   7.560  17.486  0.00  0.00    +0.000 C 
ATOM     33  C   UNL     1       7.409   5.846  19.346  0.00  0.00    +0.000 C 
ATOM     34  C   UNL     1       8.835   5.771  19.889  0.00  0.00    +0.000 C 
ENDBRANCH  26  27
ENDBRANCH  24  26
ENDBRANCH  11  24
TORSDOF 6
ENDMDL
MODEL 8
REMARK VINA RESULT:      -7.2      2.121      3.807
REMARK  Name = 
REMARK  9 active torsions:
REMARK  status: ('A' for Active; 'I' for Inactive)
REMARK    1  A    between atoms: C_4  and  C_5
REMARK    2  A    between atoms: C_10  and  C_11
REMARK    3  A    between atoms: C_15  and  C_16
REMARK    4  A    between atoms: C_16  and  C_17
REMARK    5  A    between atoms: C_16  and  C_18
REMARK    6  A    between atoms: C_18  and  C_19
REMARK    7  A    between atoms: C_25  and  C_26
REMARK    8  A    between atoms: C_28  and  O_29
REMARK    9  A    between atoms: C_31  and  O_32
REMARK                            x       y       z     vdW  Elec       q    Type
REMARK                         _______ _______ _______ _____ _____    ______ ____
ROOT
ATOM      1  C   UNL     1       2.559   8.088  19.035  0.00  0.00    +0.000 C 
ATOM      2  C   UNL     1       1.581   9.009  19.081  0.00  0.00    +0.000 C 
ATOM      3  C   UNL     1       0.940   9.652  17.855  0.00  0.00    +0.000 C 
ATOM      4  C   UNL     1      -0.589   9.743  17.919  0.00  0.00    +0.000 C 
ATOM      5  C   UNL     1      -1.090  10.352  19.228  0.00  0.00    +0.000 C 
ATOM      6  C   UNL     1      -0.465   9.669  20.458  0.00  0.00    +0.000 C 
ATOM      7  C   UNL     1      -1.059   8.233  20.562  0.00  0.00    +0.000 C 
ATOM      8  C   UNL     1       1.077   9.616  20.361  0.00  0.00    +0.000 C 
ATOM      9  C   UNL     1       1.511   9.189  21.769  0.00  0.00    +0.000 C 
ATOM     10  C   UNL     1       0.451   9.803  22.705  0.00  0.00    +0.000 C 
ATOM     11  C   UNL     1      -0.658  10.420  21.810  0.00  0.00    +0.000 C 
ENDROOT
BRANCH   1  15
ATOM     12  C   UNL     1       3.129   4.927  19.301  0.00  0.00    +0.000 C 
ATOM     13  C   UNL     1       4.150   5.487  18.625  0.00  0.00    +0.000 C 
ATOM     14  C   UNL     1       3.920   6.535  17.625  0.00  0.00    +0.000 C 
ATOM     15  C   UNL     1       3.198   7.653  17.815  0.00  0.00    +0.000 C 
ATOM     16  C   UNL     1       4.601   6.299  16.288  0.00  0.00    +0.000 C 
ATOM     17  C   UNL     1       6.083   5.942  16.451  0.00  0.00    +0.000 C 
ATOM     18  C   UNL     1       6.281   4.802  17.448  0.00  0.00    +0.000 C 
ATOM     19  C   UNL     1       5.607   5.091  18.792  0.00  0.00    +0.000 C 
BRANCH  17  20
ATOM     20  O   UNL     1       6.841   7.086  16.847  0.00  0.00    +0.000 OA
ATOM     21  H   UNL     1       7.771   6.820  16.958  0.00  0.00    +0.000 HD
ENDBRANCH  17  20
BRANCH  19  22
ATOM     22  O   UNL     1       5.747   3.940  19.625  0.00  0.00    +0.000 OA
ATOM     23  H   UNL     1       5.422   3.179  19.115  0.00  0.00    +0.000 HD
ENDBRANCH  19  22
ENDBRANCH   1  15
BRANCH  11  24
ATOM     24  C   UNL     1      -0.651  11.994  21.746  0.00  0.00    +0.000 C 
ATOM     25  C   UNL     1       0.680  12.647  21.333  0.00  0.00    +0.000 C 
BRANCH  24  26
ATOM     26  C   UNL     1      -1.141  12.614  23.075  0.00  0.00    +0.000 C 
BRANCH  26  27
ATOM     27  C   UNL     1      -2.218  13.699  22.878  0.00  0.00    +0.000 C 
ATOM     28  O   UNL     1      -3.158  13.294  21.868  0.00  0.00    +0.000 OA
ATOM     29  C   UNL     1      -4.277  12.784  22.454  0.00  0.00    +0.000 C 
ATOM     30  O   UNL     1      -5.213  12.260  21.877  0.00  0.00    +0.000 OA
ATOM     31  C   UNL     1      -4.140  12.995  23.908  0.00  0.00    +0.000 C 
ATOM     32  C   UNL     1      -4.831  12.299  24.810  0.00  0.00    +0.000 C 
ATOM     33  C   UNL     1      -3.025  13.958  24.140  0.00  0.00    +0.000 C 
ATOM     34  C   UNL     1      -3.508  15.406  24.182  0.00  0.00    +0.000 C 
ENDBRANCH  26  27
ENDBRANCH  24  26
ENDBRANCH  11  24
TORSDOF 6
ENDMDL
MODEL 9
REMARK VINA RESULT:      -7.0      1.817      2.610
REMARK  Name = 
REMARK  9 active torsions:
REMARK  status: ('A' for Active; 'I' for Inactive)
REMARK    1  A    between atoms: C_4  and  C_5
REMARK    2  A    between atoms: C_10  and  C_11
REMARK    3  A    between atoms: C_15  and  C_16
REMARK    4  A    between atoms: C_16  and  C_17
REMARK    5  A    between atoms: C_16  and  C_18
REMARK    6  A    between atoms: C_18  and  C_19
REMARK    7  A    between atoms: C_25  and  C_26
REMARK    8  A    between atoms: C_28  and  O_29
REMARK    9  A    between atoms: C_31  and  O_32
REMARK                            x       y       z     vdW  Elec       q    Type
REMARK                         _______ _______ _______ _____ _____    ______ ____
ROOT
ATOM      1  C   UNL     1       2.971   7.098  19.288  0.00  0.00    +0.000 C 
ATOM      2  C   UNL     1       1.852   7.662  19.777  0.00  0.00    +0.000 C 
ATOM      3  C   UNL     1       1.092   7.158  21.000  0.00  0.00    +0.000 C 
ATOM      4  C   UNL     1       0.658   8.264  21.970  0.00  0.00    +0.000 C 
ATOM      5  C   UNL     1      -0.060   9.416  21.269  0.00  0.00    +0.000 C 
ATOM      6  C   UNL     1       0.735   9.940  20.059  0.00  0.00    +0.000 C 
ATOM      7  C   UNL     1       1.999  10.674  20.598  0.00  0.00    +0.000 C 
ATOM      8  C   UNL     1       1.135   8.797  19.099  0.00  0.00    +0.000 C 
ATOM      9  C   UNL     1       1.636   9.534  17.850  0.00  0.00    +0.000 C 
ATOM     10  C   UNL     1       0.790  10.823  17.795  0.00  0.00    +0.000 C 
ATOM     11  C   UNL     1      -0.053  10.882  19.098  0.00  0.00    +0.000 C 
ENDROOT
BRANCH   1  15
ATOM     12  C   UNL     1       1.899   4.656  17.478  0.00  0.00    +0.000 C 
ATOM     13  C   UNL     1       1.993   4.231  18.752  0.00  0.00    +0.000 C 
ATOM     14  C   UNL     1       3.118   4.622  19.607  0.00  0.00    +0.000 C 
ATOM     15  C   UNL     1       3.549   5.880  19.807  0.00  0.00    +0.000 C 
ATOM     16  C   UNL     1       3.804   3.472  20.324  0.00  0.00    +0.000 C 
ATOM     17  C   UNL     1       2.800   2.557  21.036  0.00  0.00    +0.000 C 
ATOM     18  C   UNL     1       1.679   2.114  20.100  0.00  0.00    +0.000 C 
ATOM     19  C   UNL     1       0.993   3.303  19.421  0.00  0.00    +0.000 C 
BRANCH  17  20
ATOM     20  O   UNL     1       2.259   3.200  22.192  0.00  0.00    +0.000 OA
ATOM     21  H   UNL     1       1.588   3.844  21.903  0.00  0.00    +0.000 HD
ENDBRANCH  17  20
BRANCH  19  22
ATOM     22  O   UNL     1       0.036   2.801  18.488  0.00  0.00    +0.000 OA
ATOM     23  H   UNL     1      -0.455   3.566  18.144  0.00  0.00    +0.000 HD
ENDBRANCH  19  22
ENDBRANCH   1  15
BRANCH  11  24
ATOM     24  C   UNL     1      -1.584  10.566  18.905  0.00  0.00    +0.000 C 
ATOM     25  C   UNL     1      -2.000  10.071  17.509  0.00  0.00    +0.000 C 
BRANCH  24  26
ATOM     26  C   UNL     1      -2.463  11.771  19.310  0.00  0.00    +0.000 C 
BRANCH  26  27
ATOM     27  C   UNL     1      -1.824  12.648  20.405  0.00  0.00    +0.000 C 
ATOM     28  O   UNL     1      -2.198  14.024  20.228  0.00  0.00    +0.000 OA
ATOM     29  C   UNL     1      -3.225  14.338  21.066  0.00  0.00    +0.000 C 
ATOM     30  O   UNL     1      -3.838  15.389  21.088  0.00  0.00    +0.000 OA
ATOM     31  C   UNL     1      -3.443  13.169  21.941  0.00  0.00    +0.000 C 
ATOM     32  C   UNL     1      -4.581  12.959  22.601  0.00  0.00    +0.000 C 
ATOM     33  C   UNL     1      -2.272  12.255  21.804  0.00  0.00    +0.000 C 
ATOM     34  C   UNL     1      -1.177  12.558  22.825  0.00  0.00    +0.000 C 
ENDBRANCH  26  27
ENDBRANCH  24  26
ENDBRANCH  11  24
TORSDOF 6
ENDMDL
