MODEL 1
REMARK VINA RESULT:      -9.4      0.000      0.000
REMARK  Name = 
REMARK  6 active torsions:
REMARK  status: ('A' for Active; 'I' for Inactive)
REMARK    1  A    between atoms: C_2  and  C_3
REMARK    2  A    between atoms: C_3  and  C_4
REMARK    3  A    between atoms: C_3  and  N_21
REMARK    4  A    between atoms: C_4  and  C_5
REMARK    5  A    between atoms: C_8  and  C_9
REMARK    6  A    between atoms: C_22  and  C_24
REMARK                            x       y       z     vdW  Elec       q    Type
REMARK                         _______ _______ _______ _____ _____    ______ ____
ROOT
ATOM      1  C   UNL     1       0.894  10.479  20.566  0.00  0.00    +0.000 C 
ENDROOT
BRANCH   1   2
ATOM      2  C   UNL     1       1.441   9.255  19.861  0.00  0.00    +0.000 A 
ATOM      3  C   UNL     1       1.664   8.048  20.533  0.00  0.00    +0.000 A 
ATOM      4  C   UNL     1       2.273   6.982  19.898  0.00  0.00    +0.000 A 
ATOM      5  C   UNL     1       2.681   7.066  18.566  0.00  0.00    +0.000 A 
ATOM      6  C   UNL     1       2.388   8.253  17.868  0.00  0.00    +0.000 A 
ATOM      7  C   UNL     1       1.774   9.339  18.506  0.00  0.00    +0.000 A 
BRANCH   5   8
ATOM      8  C   UNL     1       3.508   5.987  17.996  0.00  0.00    +0.000 A 
ATOM      9  C   UNL     1       2.992   4.696  17.739  0.00  0.00    +0.000 A 
ATOM     10  C   UNL     1       3.669   3.789  16.912  0.00  0.00    +0.000 A 
ATOM     11  C   UNL     1       4.868   4.194  16.358  0.00  0.00    +0.000 A 
ATOM     12  C   UNL     1       5.470   5.365  16.791  0.00  0.00    +0.000 A 
ATOM     13  C   UNL     1       4.815   6.286  17.565  0.00  0.00    +0.000 A 
ATOM     14  C   UNL     1       6.672   5.579  16.003  0.00  0.00    +0.000 C 
ATOM     15  O   UNL     1       7.613   6.277  16.322  0.00  0.00    +0.000 OA
ATOM     16  C   UNL     1       6.463   4.818  14.728  0.00  0.00    +0.000 C 
ATOM     17  C   UNL     1       5.621   3.614  15.200  0.00  0.00    +0.000 C 
ENDBRANCH   5   8
ENDBRANCH   1   2
BRANCH   1  18
ATOM     18  C   UNL     1      -0.598  10.401  20.944  0.00  0.00    +0.000 C 
BRANCH  18  19
ATOM     19  N   UNL     1      -1.487  10.796  19.883  0.00  0.00    +0.000 N 
ATOM     20  C   UNL     1      -1.336  11.853  19.019  0.00  0.00    +0.000 C 
ATOM     21  O   UNL     1      -0.426  12.669  19.026  0.00  0.00    +0.000 OA
ATOM     22  H   UNL     1      -2.174  10.103  19.578  0.00  0.00    +0.000 HD
BRANCH  20  23
ATOM     23  C   UNL     1      -2.497  11.817  18.021  0.00  0.00    +0.000 C 
ATOM     24  N   UNL     1      -1.919  11.829  16.621  0.00  0.00    +0.000 NA
ATOM     25  C   UNL     1      -2.659  10.755  15.930  0.00  0.00    +0.000 C 
ATOM     26  C   UNL     1      -4.114  11.220  15.806  0.00  0.00    +0.000 C 
ATOM     27  C   UNL     1      -4.666  10.979  17.224  0.00  0.00    +0.000 C 
ATOM     28  C   UNL     1      -3.405  10.587  18.012  0.00  0.00    +0.000 C 
ATOM     29  C   UNL     1      -2.706   9.678  17.005  0.00  0.00    +0.000 C 
ATOM     30  H   UNL     1      -0.951  11.494  16.688  0.00  0.00    +0.000 HD
ENDBRANCH  20  23
ENDBRANCH  18  19
BRANCH  18  32
ATOM     31  N   UNL     1      -1.068  11.985  23.012  0.00  0.00    +0.000 NA
ATOM     32  C   UNL     1      -0.881  11.310  22.091  0.00  0.00    +0.000 C 
ENDBRANCH  18  32
ENDBRANCH   1  18
TORSDOF 6
ENDMDL
MODEL 2
REMARK VINA RESULT:      -9.0      6.128      9.196
REMARK  Name = 
REMARK  6 active torsions:
REMARK  status: ('A' for Active; 'I' for Inactive)
REMARK    1  A    between atoms: C_2  and  C_3
REMARK    2  A    between atoms: C_3  and  C_4
REMARK    3  A    between atoms: C_3  and  N_21
REMARK    4  A    between atoms: C_4  and  C_5
REMARK    5  A    between atoms: C_8  and  C_9
REMARK    6  A    between atoms: C_22  and  C_24
REMARK                            x       y       z     vdW  Elec       q    Type
REMARK                         _______ _______ _______ _____ _____    ______ ____
ROOT
ATOM      1  C   UNL     1       6.819   5.218  17.044  0.00  0.00    +0.000 C 
ENDROOT
BRANCH   1   2
ATOM      2  C   UNL     1       7.336   6.527  17.604  0.00  0.00    +0.000 A 
ATOM      3  C   UNL     1       7.147   7.744  16.940  0.00  0.00    +0.000 A 
ATOM      4  C   UNL     1       7.728   8.908  17.408  0.00  0.00    +0.000 A 
ATOM      5  C   UNL     1       8.517   8.914  18.559  0.00  0.00    +0.000 A 
ATOM      6  C   UNL     1       8.644   7.705  19.269  0.00  0.00    +0.000 A 
ATOM      7  C   UNL     1       8.061   6.520  18.798  0.00  0.00    +0.000 A 
BRANCH   5   8
ATOM      8  C   UNL     1       9.283  10.126  18.903  0.00  0.00    +0.000 A 
ATOM      9  C   UNL     1      10.021  10.851  17.938  0.00  0.00    +0.000 A 
ATOM     10  C   UNL     1      10.469  12.155  18.190  0.00  0.00    +0.000 A 
ATOM     11  C   UNL     1      10.174  12.711  19.419  0.00  0.00    +0.000 A 
ATOM     12  C   UNL     1       9.652  11.920  20.430  0.00  0.00    +0.000 A 
ATOM     13  C   UNL     1       9.169  10.658  20.201  0.00  0.00    +0.000 A 
ATOM     14  C   UNL     1       9.380  12.766  21.579  0.00  0.00    +0.000 C 
ATOM     15  O   UNL     1       9.262  12.386  22.727  0.00  0.00    +0.000 OA
ATOM     16  C   UNL     1       9.225  14.155  21.034  0.00  0.00    +0.000 C 
ATOM     17  C   UNL     1      10.204  14.149  19.842  0.00  0.00    +0.000 C 
ENDBRANCH   5   8
ENDBRANCH   1   2
BRANCH   1  18
ATOM     18  C   UNL     1       5.532   5.331  16.204  0.00  0.00    +0.000 C 
BRANCH  18  19
ATOM     19  N   UNL     1       4.357   4.830  16.869  0.00  0.00    +0.000 N 
ATOM     20  C   UNL     1       3.591   5.476  17.807  0.00  0.00    +0.000 C 
ATOM     21  O   UNL     1       3.798   6.590  18.268  0.00  0.00    +0.000 OA
ATOM     22  H   UNL     1       3.902   4.018  16.447  0.00  0.00    +0.000 HD
BRANCH  20  23
ATOM     23  C   UNL     1       2.409   4.570  18.159  0.00  0.00    +0.000 C 
ATOM     24  N   UNL     1       2.577   3.260  17.417  0.00  0.00    +0.000 NA
ATOM     25  C   UNL     1       2.328   2.238  18.452  0.00  0.00    +0.000 C 
ATOM     26  C   UNL     1       0.847   2.337  18.834  0.00  0.00    +0.000 C 
ATOM     27  C   UNL     1       0.817   3.577  19.748  0.00  0.00    +0.000 C 
ATOM     28  C   UNL     1       2.247   4.126  19.615  0.00  0.00    +0.000 C 
ATOM     29  C   UNL     1       3.057   2.834  19.649  0.00  0.00    +0.000 C 
ATOM     30  H   UNL     1       3.572   3.170  17.179  0.00  0.00    +0.000 HD
ENDBRANCH  20  23
ENDBRANCH  18  19
BRANCH  18  32
ATOM     31  N   UNL     1       5.762   3.973  13.944  0.00  0.00    +0.000 NA
ATOM     32  C   UNL     1       5.672   4.542  14.947  0.00  0.00    +0.000 C 
ENDBRANCH  18  32
ENDBRANCH   1  18
TORSDOF 6
ENDMDL
MODEL 3
REMARK VINA RESULT:      -8.9      3.892      9.502
REMARK  Name = 
REMARK  6 active torsions:
REMARK  status: ('A' for Active; 'I' for Inactive)
REMARK    1  A    between atoms: C_2  and  C_3
REMARK    2  A    between atoms: C_3  and  C_4
REMARK    3  A    between atoms: C_3  and  N_21
REMARK    4  A    between atoms: C_4  and  C_5
REMARK    5  A    between atoms: C_8  and  C_9
REMARK    6  A    between atoms: C_22  and  C_24
REMARK                            x       y       z     vdW  Elec       q    Type
REMARK                         _______ _______ _______ _____ _____    ______ ____
ROOT
ATOM      1  C   UNL     1       2.899   4.421  19.202  0.00  0.00    +0.000 C 
ENDROOT
BRANCH   1   2
ATOM      2  C   UNL     1       2.487   5.869  19.370  0.00  0.00    +0.000 A 
ATOM      3  C   UNL     1       1.897   6.340  20.548  0.00  0.00    +0.000 A 
ATOM      4  C   UNL     1       1.422   7.636  20.637  0.00  0.00    +0.000 A 
ATOM      5  C   UNL     1       1.519   8.521  19.563  0.00  0.00    +0.000 A 
ATOM      6  C   UNL     1       2.181   8.070  18.405  0.00  0.00    +0.000 A 
ATOM      7  C   UNL     1       2.662   6.757  18.306  0.00  0.00    +0.000 A 
BRANCH   5   8
ATOM      8  C   UNL     1       0.818   9.816  19.629  0.00  0.00    +0.000 A 
ATOM      9  C   UNL     1       0.329  10.469  18.473  0.00  0.00    +0.000 A 
ATOM     10  C   UNL     1      -0.604  11.511  18.562  0.00  0.00    +0.000 A 
ATOM     11  C   UNL     1      -1.027  11.890  19.821  0.00  0.00    +0.000 A 
ATOM     12  C   UNL     1      -0.381  11.401  20.945  0.00  0.00    +0.000 A 
ATOM     13  C   UNL     1       0.503  10.356  20.890  0.00  0.00    +0.000 A 
ATOM     14  C   UNL     1      -1.067  11.907  22.123  0.00  0.00    +0.000 C 
ATOM     15  O   UNL     1      -0.595  11.985  23.239  0.00  0.00    +0.000 OA
ATOM     16  C   UNL     1      -2.458  12.240  21.671  0.00  0.00    +0.000 C 
ATOM     17  C   UNL     1      -2.230  12.695  20.215  0.00  0.00    +0.000 C 
ENDBRANCH   5   8
ENDBRANCH   1   2
BRANCH   1  18
ATOM     18  C   UNL     1       4.408   4.150  19.361  0.00  0.00    +0.000 C 
BRANCH  18  19
ATOM     19  N   UNL     1       5.138   4.182  18.121  0.00  0.00    +0.000 N 
ATOM     20  C   UNL     1       6.461   4.503  17.940  0.00  0.00    +0.000 C 
ATOM     21  O   UNL     1       7.246   4.854  18.810  0.00  0.00    +0.000 OA
ATOM     22  H   UNL     1       4.715   3.697  17.327  0.00  0.00    +0.000 HD
BRANCH  20  23
ATOM     23  C   UNL     1       6.795   4.318  16.458  0.00  0.00    +0.000 C 
ATOM     24  N   UNL     1       5.730   3.438  15.837  0.00  0.00    +0.000 NA
ATOM     25  C   UNL     1       5.369   4.152  14.597  0.00  0.00    +0.000 C 
ATOM     26  C   UNL     1       6.586   4.085  13.668  0.00  0.00    +0.000 C 
ATOM     27  C   UNL     1       7.522   5.154  14.264  0.00  0.00    +0.000 C 
ATOM     28  C   UNL     1       6.794   5.554  15.557  0.00  0.00    +0.000 C 
ATOM     29  C   UNL     1       5.348   5.598  15.073  0.00  0.00    +0.000 C 
ATOM     30  H   UNL     1       4.899   3.496  16.437  0.00  0.00    +0.000 HD
ENDBRANCH  20  23
ENDBRANCH  18  19
BRANCH  18  32
ATOM     31  N   UNL     1       4.825   1.764  20.428  0.00  0.00    +0.000 NA
ATOM     32  C   UNL     1       4.623   2.794  19.941  0.00  0.00    +0.000 C 
ENDBRANCH  18  32
ENDBRANCH   1  18
TORSDOF 6
ENDMDL
MODEL 4
REMARK VINA RESULT:      -8.9      3.248      4.364
REMARK  Name = 
REMARK  6 active torsions:
REMARK  status: ('A' for Active; 'I' for Inactive)
REMARK    1  A    between atoms: C_2  and  C_3
REMARK    2  A    between atoms: C_3  and  C_4
REMARK    3  A    between atoms: C_3  and  N_21
REMARK    4  A    between atoms: C_4  and  C_5
REMARK    5  A    between atoms: C_8  and  C_9
REMARK    6  A    between atoms: C_22  and  C_24
REMARK                            x       y       z     vdW  Elec       q    Type
REMARK                         _______ _______ _______ _____ _____    ______ ____
ROOT
ATOM      1  C   UNL     1       0.532  10.509  20.270  0.00  0.00    +0.000 C 
ENDROOT
BRANCH   1   2
ATOM      2  C   UNL     1       1.167   9.279  19.656  0.00  0.00    +0.000 A 
ATOM      3  C   UNL     1       1.514   8.161  20.424  0.00  0.00    +0.000 A 
ATOM      4  C   UNL     1       2.198   7.099  19.865  0.00  0.00    +0.000 A 
ATOM      5  C   UNL     1       2.563   7.096  18.518  0.00  0.00    +0.000 A 
ATOM      6  C   UNL     1       2.147   8.186  17.729  0.00  0.00    +0.000 A 
ATOM      7  C   UNL     1       1.456   9.269  18.289  0.00  0.00    +0.000 A 
BRANCH   5   8
ATOM      8  C   UNL     1       3.467   6.047  18.017  0.00  0.00    +0.000 A 
ATOM      9  C   UNL     1       3.032   4.720  17.790  0.00  0.00    +0.000 A 
ATOM     10  C   UNL     1       3.786   3.824  17.021  0.00  0.00    +0.000 A 
ATOM     11  C   UNL     1       4.981   4.275  16.494  0.00  0.00    +0.000 A 
ATOM     12  C   UNL     1       5.503   5.492  16.904  0.00  0.00    +0.000 A 
ATOM     13  C   UNL     1       4.771   6.403  17.621  0.00  0.00    +0.000 A 
ATOM     14  C   UNL     1       6.719   5.745  16.151  0.00  0.00    +0.000 C 
ATOM     15  O   UNL     1       7.609   6.505  16.475  0.00  0.00    +0.000 OA
ATOM     16  C   UNL     1       6.599   4.929  14.898  0.00  0.00    +0.000 C 
ATOM     17  C   UNL     1       5.807   3.697  15.385  0.00  0.00    +0.000 C 
ENDBRANCH   5   8
ENDBRANCH   1   2
BRANCH   1  18
ATOM     18  C   UNL     1       0.216  11.645  19.276  0.00  0.00    +0.000 C 
BRANCH  18  19
ATOM     19  N   UNL     1       1.029  12.819  19.458  0.00  0.00    +0.000 N 
ATOM     20  C   UNL     1       2.206  13.125  18.821  0.00  0.00    +0.000 C 
ATOM     21  O   UNL     1       2.790  12.426  18.005  0.00  0.00    +0.000 OA
ATOM     22  H   UNL     1       0.587  13.615  19.922  0.00  0.00    +0.000 HD
BRANCH  20  23
ATOM     23  C   UNL     1       2.652  14.512  19.291  0.00  0.00    +0.000 C 
ATOM     24  N   UNL     1       4.165  14.567  19.239  0.00  0.00    +0.000 NA
ATOM     25  C   UNL     1       4.445  15.849  18.564  0.00  0.00    +0.000 C 
ATOM     26  C   UNL     1       3.999  16.965  19.515  0.00  0.00    +0.000 C 
ATOM     27  C   UNL     1       2.468  16.963  19.342  0.00  0.00    +0.000 C 
ATOM     28  C   UNL     1       2.232  15.726  18.460  0.00  0.00    +0.000 C 
ATOM     29  C   UNL     1       3.386  15.853  17.470  0.00  0.00    +0.000 C 
ATOM     30  H   UNL     1       4.474  13.840  18.584  0.00  0.00    +0.000 HD
ENDBRANCH  20  23
ENDBRANCH  18  19
BRANCH  18  32
ATOM     31  N   UNL     1      -2.279  12.473  19.581  0.00  0.00    +0.000 NA
ATOM     32  C   UNL     1      -1.199  12.084  19.437  0.00  0.00    +0.000 C 
ENDBRANCH  18  32
ENDBRANCH   1  18
TORSDOF 6
ENDMDL
MODEL 5
REMARK VINA RESULT:      -8.9      2.226      2.900
REMARK  Name = 
REMARK  6 active torsions:
REMARK  status: ('A' for Active; 'I' for Inactive)
REMARK    1  A    between atoms: C_2  and  C_3
REMARK    2  A    between atoms: C_3  and  C_4
REMARK    3  A    between atoms: C_3  and  N_21
REMARK    4  A    between atoms: C_4  and  C_5
REMARK    5  A    between atoms: C_8  and  C_9
REMARK    6  A    between atoms: C_22  and  C_24
REMARK                            x       y       z     vdW  Elec       q    Type
REMARK                         _______ _______ _______ _____ _____    ______ ____
ROOT
ATOM      1  C   UNL     1       0.683  10.671  20.285  0.00  0.00    +0.000 C 
ENDROOT
BRANCH   1   2
ATOM      2  C   UNL     1       1.273   9.426  19.655  0.00  0.00    +0.000 A 
ATOM      3  C   UNL     1       1.533   8.269  20.398  0.00  0.00    +0.000 A 
ATOM      4  C   UNL     1       2.179   7.188  19.829  0.00  0.00    +0.000 A 
ATOM      5  C   UNL     1       2.590   7.206  18.496  0.00  0.00    +0.000 A 
ATOM      6  C   UNL     1       2.261   8.340  17.728  0.00  0.00    +0.000 A 
ATOM      7  C   UNL     1       1.609   9.441  18.299  0.00  0.00    +0.000 A 
BRANCH   5   8
ATOM      8  C   UNL     1       3.455   6.124  17.992  0.00  0.00    +0.000 A 
ATOM      9  C   UNL     1       2.973   4.812  17.776  0.00  0.00    +0.000 A 
ATOM     10  C   UNL     1       3.690   3.887  17.005  0.00  0.00    +0.000 A 
ATOM     11  C   UNL     1       4.895   4.295  16.466  0.00  0.00    +0.000 A 
ATOM     12  C   UNL     1       5.460   5.497  16.864  0.00  0.00    +0.000 A 
ATOM     13  C   UNL     1       4.766   6.434  17.582  0.00  0.00    +0.000 A 
ATOM     14  C   UNL     1       6.677   5.705  16.099  0.00  0.00    +0.000 C 
ATOM     15  O   UNL     1       7.595   6.436  16.412  0.00  0.00    +0.000 OA
ATOM     16  C   UNL     1       6.519   4.887  14.852  0.00  0.00    +0.000 C 
ATOM     17  C   UNL     1       5.691   3.685  15.352  0.00  0.00    +0.000 C 
ENDBRANCH   5   8
ENDBRANCH   1   2
BRANCH   1  18
ATOM     18  C   UNL     1      -0.547  10.427  21.182  0.00  0.00    +0.000 C 
BRANCH  18  19
ATOM     19  N   UNL     1      -1.381  11.588  21.351  0.00  0.00    +0.000 N 
ATOM     20  C   UNL     1      -2.189  12.178  20.410  0.00  0.00    +0.000 C 
ATOM     21  O   UNL     1      -2.313  11.833  19.244  0.00  0.00    +0.000 OA
ATOM     22  H   UNL     1      -1.586  11.870  22.311  0.00  0.00    +0.000 HD
BRANCH  20  23
ATOM     23  C   UNL     1      -2.935  13.333  21.083  0.00  0.00    +0.000 C 
ATOM     24  N   UNL     1      -3.901  13.924  20.078  0.00  0.00    +0.000 NA
ATOM     25  C   UNL     1      -5.163  14.042  20.835  0.00  0.00    +0.000 C 
ATOM     26  C   UNL     1      -4.944  15.110  21.911  0.00  0.00    +0.000 C 
ATOM     27  C   UNL     1      -4.127  14.353  22.975  0.00  0.00    +0.000 C 
ATOM     28  C   UNL     1      -3.832  13.014  22.281  0.00  0.00    +0.000 C 
ATOM     29  C   UNL     1      -5.174  12.733  21.612  0.00  0.00    +0.000 C 
ATOM     30  H   UNL     1      -4.076  13.207  19.365  0.00  0.00    +0.000 HD
ENDBRANCH  20  23
ENDBRANCH  18  19
BRANCH  18  32
ATOM     31  N   UNL     1       0.191   9.740  23.629  0.00  0.00    +0.000 NA
ATOM     32  C   UNL     1      -0.110  10.021  22.547  0.00  0.00    +0.000 C 
ENDBRANCH  18  32
ENDBRANCH   1  18
TORSDOF 6
ENDMDL
MODEL 6
REMARK VINA RESULT:      -8.9      2.635      3.818
REMARK  Name = 
REMARK  6 active torsions:
REMARK  status: ('A' for Active; 'I' for Inactive)
REMARK    1  A    between atoms: C_2  and  C_3
REMARK    2  A    between atoms: C_3  and  C_4
REMARK    3  A    between atoms: C_3  and  N_21
REMARK    4  A    between atoms: C_4  and  C_5
REMARK    5  A    between atoms: C_8  and  C_9
REMARK    6  A    between atoms: C_22  and  C_24
REMARK                            x       y       z     vdW  Elec       q    Type
REMARK                         _______ _______ _______ _____ _____    ______ ____
ROOT
ATOM      1  C   UNL     1       0.319  10.901  19.696  0.00  0.00    +0.000 C 
ENDROOT
BRANCH   1   2
ATOM      2  C   UNL     1       1.000   9.625  19.246  0.00  0.00    +0.000 A 
ATOM      3  C   UNL     1       1.342   8.609  20.146  0.00  0.00    +0.000 A 
ATOM      4  C   UNL     1       2.066   7.507  19.733  0.00  0.00    +0.000 A 
ATOM      5  C   UNL     1       2.478   7.363  18.407  0.00  0.00    +0.000 A 
ATOM      6  C   UNL     1       2.068   8.347  17.487  0.00  0.00    +0.000 A 
ATOM      7  C   UNL     1       1.336   9.469  17.899  0.00  0.00    +0.000 A 
BRANCH   5   8
ATOM      8  C   UNL     1       3.420   6.285  18.057  0.00  0.00    +0.000 A 
ATOM      9  C   UNL     1       3.026   4.929  17.995  0.00  0.00    +0.000 A 
ATOM     10  C   UNL     1       3.818   3.965  17.357  0.00  0.00    +0.000 A 
ATOM     11  C   UNL     1       5.009   4.381  16.795  0.00  0.00    +0.000 A 
ATOM     12  C   UNL     1       5.489   5.655  17.053  0.00  0.00    +0.000 A 
ATOM     13  C   UNL     1       4.720   6.627  17.637  0.00  0.00    +0.000 A 
ATOM     14  C   UNL     1       6.712   5.846  16.291  0.00  0.00    +0.000 C 
ATOM     15  O   UNL     1       7.574   6.668  16.529  0.00  0.00    +0.000 OA
ATOM     16  C   UNL     1       6.636   4.874  15.151  0.00  0.00    +0.000 C 
ATOM     17  C   UNL     1       5.871   3.691  15.780  0.00  0.00    +0.000 C 
ENDBRANCH   5   8
ENDBRANCH   1   2
BRANCH   1  18
ATOM     18  C   UNL     1       0.871  11.510  21.001  0.00  0.00    +0.000 C 
BRANCH  18  19
ATOM     19  N   UNL     1      -0.150  11.978  21.901  0.00  0.00    +0.000 N 
ATOM     20  C   UNL     1      -0.914  11.226  22.758  0.00  0.00    +0.000 C 
ATOM     21  O   UNL     1      -0.880  10.009  22.880  0.00  0.00    +0.000 OA
ATOM     22  H   UNL     1      -0.157  12.979  22.106  0.00  0.00    +0.000 HD
BRANCH  20  23
ATOM     23  C   UNL     1      -1.803  12.179  23.561  0.00  0.00    +0.000 C 
ATOM     24  N   UNL     1      -1.315  13.593  23.328  0.00  0.00    +0.000 NA
ATOM     25  C   UNL     1      -2.552  14.346  23.041  0.00  0.00    +0.000 C 
ATOM     26  C   UNL     1      -3.372  14.374  24.335  0.00  0.00    +0.000 C 
ATOM     27  C   UNL     1      -3.986  12.963  24.375  0.00  0.00    +0.000 C 
ATOM     28  C   UNL     1      -3.288  12.259  23.200  0.00  0.00    +0.000 C 
ATOM     29  C   UNL     1      -3.303  13.366  22.150  0.00  0.00    +0.000 C 
ATOM     30  H   UNL     1      -0.786  13.592  22.448  0.00  0.00    +0.000 HD
ENDBRANCH  20  23
ENDBRANCH  18  19
BRANCH  18  32
ATOM     31  N   UNL     1       2.360  13.616  20.409  0.00  0.00    +0.000 NA
ATOM     32  C   UNL     1       1.730  12.688  20.690  0.00  0.00    +0.000 C 
ENDBRANCH  18  32
ENDBRANCH   1  18
TORSDOF 6
ENDMDL
MODEL 7
REMARK VINA RESULT:      -8.8      1.909      2.522
REMARK  Name = 
REMARK  6 active torsions:
REMARK  status: ('A' for Active; 'I' for Inactive)
REMARK    1  A    between atoms: C_2  and  C_3
REMARK    2  A    between atoms: C_3  and  C_4
REMARK    3  A    between atoms: C_3  and  N_21
REMARK    4  A    between atoms: C_4  and  C_5
REMARK    5  A    between atoms: C_8  and  C_9
REMARK    6  A    between atoms: C_22  and  C_24
REMARK                            x       y       z     vdW  Elec       q    Type
REMARK                         _______ _______ _______ _____ _____    ______ ____
ROOT
ATOM      1  C   UNL     1       0.975  11.243  20.821  0.00  0.00    +0.000 C 
ENDROOT
BRANCH   1   2
ATOM      2  C   UNL     1       1.231   9.933  20.105  0.00  0.00    +0.000 A 
ATOM      3  C   UNL     1       1.342   8.720  20.794  0.00  0.00    +0.000 A 
ATOM      4  C   UNL     1       1.691   7.557  20.135  0.00  0.00    +0.000 A 
ATOM      5  C   UNL     1       1.940   7.546  18.762  0.00  0.00    +0.000 A 
ATOM      6  C   UNL     1       1.753   8.750  18.056  0.00  0.00    +0.000 A 
ATOM      7  C   UNL     1       1.403   9.934  18.718  0.00  0.00    +0.000 A 
BRANCH   5   8
ATOM      8  C   UNL     1       2.510   6.337  18.141  0.00  0.00    +0.000 A 
ATOM      9  C   UNL     1       3.813   6.313  17.591  0.00  0.00    +0.000 A 
ATOM     10  C   UNL     1       4.463   5.105  17.304  0.00  0.00    +0.000 A 
ATOM     11  C   UNL     1       3.785   3.931  17.567  0.00  0.00    +0.000 A 
ATOM     12  C   UNL     1       2.438   3.966  17.891  0.00  0.00    +0.000 A 
ATOM     13  C   UNL     1       1.790   5.129  18.216  0.00  0.00    +0.000 A 
ATOM     14  C   UNL     1       2.000   2.610  18.177  0.00  0.00    +0.000 C 
ATOM     15  O   UNL     1       0.853   2.215  18.146  0.00  0.00    +0.000 OA
ATOM     16  C   UNL     1       3.238   1.857  18.563  0.00  0.00    +0.000 C 
ATOM     17  C   UNL     1       4.319   2.536  17.696  0.00  0.00    +0.000 C 
ENDBRANCH   5   8
ENDBRANCH   1   2
BRANCH   1  18
ATOM     18  C   UNL     1      -0.490  11.485  21.234  0.00  0.00    +0.000 C 
BRANCH  18  19
ATOM     19  N   UNL     1      -1.405  11.540  20.124  0.00  0.00    +0.000 N 
ATOM     20  C   UNL     1      -1.347  12.376  19.036  0.00  0.00    +0.000 C 
ATOM     21  O   UNL     1      -0.516  13.251  18.840  0.00  0.00    +0.000 OA
ATOM     22  H   UNL     1      -2.023  10.735  19.998  0.00  0.00    +0.000 HD
BRANCH  20  23
ATOM     23  C   UNL     1      -2.493  12.004  18.091  0.00  0.00    +0.000 C 
ATOM     24  N   UNL     1      -1.952  11.976  16.677  0.00  0.00    +0.000 NA
ATOM     25  C   UNL     1      -2.473  10.709  16.129  0.00  0.00    +0.000 C 
ATOM     26  C   UNL     1      -3.993  10.860  16.012  0.00  0.00    +0.000 C 
ATOM     27  C   UNL     1      -4.462  10.672  17.467  0.00  0.00    +0.000 C 
ATOM     28  C   UNL     1      -3.137  10.624  18.244  0.00  0.00    +0.000 C 
ATOM     29  C   UNL     1      -2.286   9.768  17.311  0.00  0.00    +0.000 C 
ATOM     30  H   UNL     1      -0.935  11.849  16.742  0.00  0.00    +0.000 HD
ENDBRANCH  20  23
ENDBRANCH  18  19
BRANCH  18  32
ATOM     31  N   UNL     1      -0.760  13.800  22.488  0.00  0.00    +0.000 NA
ATOM     32  C   UNL     1      -0.611  12.791  21.943  0.00  0.00    +0.000 C 
ENDBRANCH  18  32
ENDBRANCH   1  18
TORSDOF 6
ENDMDL
MODEL 8
REMARK VINA RESULT:      -8.7      3.935      9.095
REMARK  Name = 
REMARK  6 active torsions:
REMARK  status: ('A' for Active; 'I' for Inactive)
REMARK    1  A    between atoms: C_2  and  C_3
REMARK    2  A    between atoms: C_3  and  C_4
REMARK    3  A    between atoms: C_3  and  N_21
REMARK    4  A    between atoms: C_4  and  C_5
REMARK    5  A    between atoms: C_8  and  C_9
REMARK    6  A    between atoms: C_22  and  C_24
REMARK                            x       y       z     vdW  Elec       q    Type
REMARK                         _______ _______ _______ _____ _____    ______ ____
ROOT
ATOM      1  C   UNL     1       2.967   4.561  19.377  0.00  0.00    +0.000 C 
ENDROOT
BRANCH   1   2
ATOM      2  C   UNL     1       2.649   6.031  19.200  0.00  0.00    +0.000 A 
ATOM      3  C   UNL     1       2.062   6.790  20.219  0.00  0.00    +0.000 A 
ATOM      4  C   UNL     1       1.672   8.098  19.996  0.00  0.00    +0.000 A 
ATOM      5  C   UNL     1       1.854   8.710  18.755  0.00  0.00    +0.000 A 
ATOM      6  C   UNL     1       2.514   7.970  17.755  0.00  0.00    +0.000 A 
ATOM      7  C   UNL     1       2.909   6.643  17.972  0.00  0.00    +0.000 A 
BRANCH   5   8
ATOM      8  C   UNL     1       1.239  10.025  18.502  0.00  0.00    +0.000 A 
ATOM      9  C   UNL     1      -0.162  10.214  18.494  0.00  0.00    +0.000 A 
ATOM     10  C   UNL     1      -0.728  11.493  18.579  0.00  0.00    +0.000 A 
ATOM     11  C   UNL     1       0.130  12.573  18.661  0.00  0.00    +0.000 A 
ATOM     12  C   UNL     1       1.488  12.396  18.444  0.00  0.00    +0.000 A 
ATOM     13  C   UNL     1       2.071  11.157  18.399  0.00  0.00    +0.000 A 
ATOM     14  C   UNL     1       2.154  13.670  18.654  0.00  0.00    +0.000 C 
ATOM     15  O   UNL     1       3.246  13.978  18.222  0.00  0.00    +0.000 OA
ATOM     16  C   UNL     1       1.244  14.463  19.545  0.00  0.00    +0.000 C 
ATOM     17  C   UNL     1      -0.152  13.978  19.101  0.00  0.00    +0.000 C 
ENDBRANCH   5   8
ENDBRANCH   1   2
BRANCH   1  18
ATOM     18  C   UNL     1       4.468   4.228  19.494  0.00  0.00    +0.000 C 
BRANCH  18  19
ATOM     19  N   UNL     1       5.165   4.238  18.235  0.00  0.00    +0.000 N 
ATOM     20  C   UNL     1       6.478   4.573  18.012  0.00  0.00    +0.000 C 
ATOM     21  O   UNL     1       7.279   4.959  18.851  0.00  0.00    +0.000 OA
ATOM     22  H   UNL     1       4.730   3.726  17.465  0.00  0.00    +0.000 HD
BRANCH  20  23
ATOM     23  C   UNL     1       6.777   4.354  16.526  0.00  0.00    +0.000 C 
ATOM     24  N   UNL     1       5.677   3.492  15.943  0.00  0.00    +0.000 NA
ATOM     25  C   UNL     1       5.309   4.193  14.697  0.00  0.00    +0.000 C 
ATOM     26  C   UNL     1       6.505   4.078  13.746  0.00  0.00    +0.000 C 
ATOM     27  C   UNL     1       7.480   5.133  14.303  0.00  0.00    +0.000 C 
ATOM     28  C   UNL     1       6.789   5.574  15.604  0.00  0.00    +0.000 C 
ATOM     29  C   UNL     1       5.335   5.647  15.148  0.00  0.00    +0.000 C 
ATOM     30  H   UNL     1       4.861   3.582  16.559  0.00  0.00    +0.000 HD
ENDBRANCH  20  23
ENDBRANCH  18  19
BRANCH  18  32
ATOM     31  N   UNL     1       4.784   1.823  20.553  0.00  0.00    +0.000 NA
ATOM     32  C   UNL     1       4.644   2.862  20.062  0.00  0.00    +0.000 C 
ENDBRANCH  18  32
ENDBRANCH   1  18
TORSDOF 6
ENDMDL
MODEL 9
REMARK VINA RESULT:      -8.7      1.920      2.646
REMARK  Name = 
REMARK  6 active torsions:
REMARK  status: ('A' for Active; 'I' for Inactive)
REMARK    1  A    between atoms: C_2  and  C_3
REMARK    2  A    between atoms: C_3  and  C_4
REMARK    3  A    between atoms: C_3  and  N_21
REMARK    4  A    between atoms: C_4  and  C_5
REMARK    5  A    between atoms: C_8  and  C_9
REMARK    6  A    between atoms: C_22  and  C_24
REMARK                            x       y       z     vdW  Elec       q    Type
REMARK                         _______ _______ _______ _____ _____    ______ ____
ROOT
ATOM      1  C   UNL     1      -0.413  10.449  21.787  0.00  0.00    +0.000 C 
ENDROOT
BRANCH   1   2
ATOM      2  C   UNL     1       0.500   9.613  20.913  0.00  0.00    +0.000 A 
ATOM      3  C   UNL     1       0.712   9.911  19.563  0.00  0.00    +0.000 A 
ATOM      4  C   UNL     1       1.454   9.068  18.757  0.00  0.00    +0.000 A 
ATOM      5  C   UNL     1       2.023   7.896  19.258  0.00  0.00    +0.000 A 
ATOM      6  C   UNL     1       1.873   7.637  20.634  0.00  0.00    +0.000 A 
ATOM      7  C   UNL     1       1.119   8.484  21.456  0.00  0.00    +0.000 A 
BRANCH   5   8
ATOM      8  C   UNL     1       2.624   6.929  18.323  0.00  0.00    +0.000 A 
ATOM      9  C   UNL     1       3.790   7.223  17.579  0.00  0.00    +0.000 A 
ATOM     10  C   UNL     1       4.533   6.213  16.954  0.00  0.00    +0.000 A 
ATOM     11  C   UNL     1       4.085   4.912  17.080  0.00  0.00    +0.000 A 
ATOM     12  C   UNL     1       2.832   4.661  17.616  0.00  0.00    +0.000 A 
ATOM     13  C   UNL     1       2.104   5.622  18.268  0.00  0.00    +0.000 A 
ATOM     14  C   UNL     1       2.646   3.222  17.689  0.00  0.00    +0.000 C 
ATOM     15  O   UNL     1       1.578   2.648  17.764  0.00  0.00    +0.000 OA
ATOM     16  C   UNL     1       4.026   2.634  17.713  0.00  0.00    +0.000 C 
ATOM     17  C   UNL     1       4.820   3.628  16.839  0.00  0.00    +0.000 C 
ENDBRANCH   5   8
ENDBRANCH   1   2
BRANCH   1  18
ATOM     18  C   UNL     1      -0.820  11.810  21.189  0.00  0.00    +0.000 C 
BRANCH  18  19
ATOM     19  N   UNL     1      -1.453  11.712  19.900  0.00  0.00    +0.000 N 
ATOM     20  C   UNL     1      -2.718  12.126  19.558  0.00  0.00    +0.000 C 
ATOM     21  O   UNL     1      -3.544  12.623  20.310  0.00  0.00    +0.000 OA
ATOM     22  H   UNL     1      -0.841  11.541  19.100  0.00  0.00    +0.000 HD
BRANCH  20  23
ATOM     23  C   UNL     1      -2.908  11.881  18.059  0.00  0.00    +0.000 C 
ATOM     24  N   UNL     1      -1.621  11.305  17.505  0.00  0.00    +0.000 NA
ATOM     25  C   UNL     1      -2.074  10.160  16.691  0.00  0.00    +0.000 C 
ATOM     26  C   UNL     1      -2.845  10.734  15.498  0.00  0.00    +0.000 C 
ATOM     27  C   UNL     1      -4.205  11.103  16.122  0.00  0.00    +0.000 C 
ATOM     28  C   UNL     1      -3.962  10.863  17.621  0.00  0.00    +0.000 C 
ATOM     29  C   UNL     1      -3.159   9.567  17.580  0.00  0.00    +0.000 C 
ATOM     30  H   UNL     1      -1.107  10.894  18.294  0.00  0.00    +0.000 HD
ENDBRANCH  20  23
ENDBRANCH  18  19
BRANCH  18  32
ATOM     31  N   UNL     1       1.334  13.300  20.811  0.00  0.00    +0.000 NA
ATOM     32  C   UNL     1       0.385  12.666  21.001  0.00  0.00    +0.000 C 
ENDBRANCH  18  32
ENDBRANCH   1  18
TORSDOF 6
ENDMDL
