MODEL 1
REMARK VINA RESULT:      -7.2      0.000      0.000
REMARK  Name = 
REMARK  9 active torsions:
REMARK  status: ('A' for Active; 'I' for Inactive)
REMARK    1  A    between atoms: C_1  and  C_2
REMARK    2  A    between atoms: C_2  and  S_3
REMARK    3  A    between atoms: C_7  and  C_8
REMARK    4  A    between atoms: C_8  and  N_9
REMARK    5  A    between atoms: C_10  and  C_12
REMARK    6  A    between atoms: C_14  and  S_15
REMARK    7  A    between atoms: S_15  and  N_16
REMARK    8  A    between atoms: C_21  and  O_22
REMARK    9  A    between atoms: O_22  and  C_23
REMARK                            x       y       z     vdW  Elec       q    Type
REMARK                         _______ _______ _______ _____ _____    ______ ____
ROOT
ATOM      1  C   UNL     1       3.211   5.714  18.119  0.00  0.00    +0.000 A 
ATOM      2  C   UNL     1       4.532   5.981  17.691  0.00  0.00    +0.000 A 
ATOM      3  C   UNL     1       5.255   5.066  16.922  0.00  0.00    +0.000 A 
ATOM      4  C   UNL     1       4.673   3.861  16.553  0.00  0.00    +0.000 A 
ATOM      5  C   UNL     1       3.374   3.565  16.946  0.00  0.00    +0.000 A 
ATOM      6  C   UNL     1       2.618   4.457  17.724  0.00  0.00    +0.000 A 
ENDROOT
BRANCH   1   8
ATOM      7  N   UNL     1       2.157   7.965  18.522  0.00  0.00    +0.000 N 
ATOM      8  C   UNL     1       2.555   6.745  19.004  0.00  0.00    +0.000 C 
ATOM      9  O   UNL     1       2.390   6.490  20.185  0.00  0.00    +0.000 OA
ATOM     10  H   UNL     1       2.250   8.192  17.524  0.00  0.00    +0.000 HD
BRANCH   7  11
ATOM     11  C   UNL     1       1.524   8.935  19.401  0.00  0.00    +0.000 C 
BRANCH  11  16
ATOM     12  S   UNL     1      -0.742  10.588  19.594  0.00  0.00    +0.000 S 
ATOM     13  C   UNL     1      -0.123  12.307  19.698  0.00  0.00    +0.000 C 
ATOM     14  C   UNL     1       0.847  12.516  18.539  0.00  0.00    +0.000 C 
ATOM     15  C   UNL     1       1.714  11.283  18.570  0.00  0.00    +0.000 C 
ATOM     16  C   UNL     1       0.770  10.063  18.661  0.00  0.00    +0.000 C 
BRANCH  12  18
ATOM     17  C   UNL     1      -1.840   9.915  17.092  0.00  0.00    +0.000 C 
ATOM     18  C   UNL     1      -1.895  10.959  18.192  0.00  0.00    +0.000 C 
ENDBRANCH  12  18
ENDBRANCH  11  16
ENDBRANCH   7  11
ENDBRANCH   1   8
BRANCH   3  19
ATOM     19  S   UNL     1       6.940   5.409  16.422  0.00  0.00    +0.000 S 
ATOM     20  O   UNL     1       7.420   6.794  16.879  0.00  0.00    +0.000 OA
ATOM     21  O   UNL     1       7.977   4.482  17.074  0.00  0.00    +0.000 OA
BRANCH  19  22
ATOM     22  N   UNL     1       7.297   5.350  14.695  0.00  0.00    +0.000 NA
ATOM     23  H   UNL     1       8.309   5.111  14.588  0.00  0.00    +0.000 HD
ATOM     24  H   UNL     1       7.146   6.307  14.305  0.00  0.00    +0.000 HD
ENDBRANCH  19  22
ENDBRANCH   3  19
BRANCH   6  25
ATOM     25  O   UNL     1       1.359   4.010  18.008  0.00  0.00    +0.000 OA
ATOM     26  C   UNL     1       0.927   2.957  18.784  0.00  0.00    +0.000 C 
ENDBRANCH   6  25
TORSDOF 7
ENDMDL
MODEL 2
REMARK VINA RESULT:      -7.2      1.591      2.182
REMARK  Name = 
REMARK  9 active torsions:
REMARK  status: ('A' for Active; 'I' for Inactive)
REMARK    1  A    between atoms: C_1  and  C_2
REMARK    2  A    between atoms: C_2  and  S_3
REMARK    3  A    between atoms: C_7  and  C_8
REMARK    4  A    between atoms: C_8  and  N_9
REMARK    5  A    between atoms: C_10  and  C_12
REMARK    6  A    between atoms: C_14  and  S_15
REMARK    7  A    between atoms: S_15  and  N_16
REMARK    8  A    between atoms: C_21  and  O_22
REMARK    9  A    between atoms: O_22  and  C_23
REMARK                            x       y       z     vdW  Elec       q    Type
REMARK                         _______ _______ _______ _____ _____    ______ ____
ROOT
ATOM      1  C   UNL     1       3.247   6.032  18.131  0.00  0.00    +0.000 A 
ATOM      2  C   UNL     1       4.552   6.042  17.585  0.00  0.00    +0.000 A 
ATOM      3  C   UNL     1       5.200   4.862  17.211  0.00  0.00    +0.000 A 
ATOM      4  C   UNL     1       4.558   3.642  17.363  0.00  0.00    +0.000 A 
ATOM      5  C   UNL     1       3.273   3.590  17.887  0.00  0.00    +0.000 A 
ATOM      6  C   UNL     1       2.591   4.753  18.280  0.00  0.00    +0.000 A 
ENDROOT
BRANCH   1   8
ATOM      7  N   UNL     1       2.471   8.385  17.677  0.00  0.00    +0.000 N 
ATOM      8  C   UNL     1       2.674   7.359  18.564  0.00  0.00    +0.000 C 
ATOM      9  O   UNL     1       2.401   7.528  19.740  0.00  0.00    +0.000 OA
ATOM     10  H   UNL     1       2.658   8.257  16.674  0.00  0.00    +0.000 HD
BRANCH   7  11
ATOM     11  C   UNL     1       1.914   9.650  18.127  0.00  0.00    +0.000 C 
BRANCH  11  16
ATOM     12  S   UNL     1       0.643  10.452  20.503  0.00  0.00    +0.000 S 
ATOM     13  C   UNL     1      -0.800  11.462  20.004  0.00  0.00    +0.000 C 
ATOM     14  C   UNL     1      -1.591  10.655  18.979  0.00  0.00    +0.000 C 
ATOM     15  C   UNL     1      -0.534  10.135  18.037  0.00  0.00    +0.000 C 
ATOM     16  C   UNL     1       0.586   9.517  18.904  0.00  0.00    +0.000 C 
BRANCH  12  18
ATOM     17  C   UNL     1      -0.283   9.712  23.055  0.00  0.00    +0.000 C 
ATOM     18  C   UNL     1      -0.360   9.334  21.587  0.00  0.00    +0.000 C 
ENDBRANCH  12  18
ENDBRANCH  11  16
ENDBRANCH   7  11
ENDBRANCH   1   8
BRANCH   3  19
ATOM     19  S   UNL     1       6.867   4.895  16.557  0.00  0.00    +0.000 S 
ATOM     20  O   UNL     1       6.968   4.249  15.167  0.00  0.00    +0.000 OA
ATOM     21  O   UNL     1       7.396   6.312  16.287  0.00  0.00    +0.000 OA
BRANCH  19  22
ATOM     22  N   UNL     1       8.126   4.113  17.515  0.00  0.00    +0.000 NA
ATOM     23  H   UNL     1       8.831   4.841  17.768  0.00  0.00    +0.000 HD
ATOM     24  H   UNL     1       8.594   3.403  16.908  0.00  0.00    +0.000 HD
ENDBRANCH  19  22
ENDBRANCH   3  19
BRANCH   6  25
ATOM     25  O   UNL     1       1.334   4.519  18.761  0.00  0.00    +0.000 OA
ATOM     26  C   UNL     1       0.899   3.756  19.822  0.00  0.00    +0.000 C 
ENDBRANCH   6  25
TORSDOF 7
ENDMDL
MODEL 3
REMARK VINA RESULT:      -7.1      1.341      1.915
REMARK  Name = 
REMARK  9 active torsions:
REMARK  status: ('A' for Active; 'I' for Inactive)
REMARK    1  A    between atoms: C_1  and  C_2
REMARK    2  A    between atoms: C_2  and  S_3
REMARK    3  A    between atoms: C_7  and  C_8
REMARK    4  A    between atoms: C_8  and  N_9
REMARK    5  A    between atoms: C_10  and  C_12
REMARK    6  A    between atoms: C_14  and  S_15
REMARK    7  A    between atoms: S_15  and  N_16
REMARK    8  A    between atoms: C_21  and  O_22
REMARK    9  A    between atoms: O_22  and  C_23
REMARK                            x       y       z     vdW  Elec       q    Type
REMARK                         _______ _______ _______ _____ _____    ______ ____
ROOT
ATOM      1  C   UNL     1       3.351   6.238  17.875  0.00  0.00    +0.000 A 
ATOM      2  C   UNL     1       4.657   6.333  17.340  0.00  0.00    +0.000 A 
ATOM      3  C   UNL     1       5.352   5.206  16.895  0.00  0.00    +0.000 A 
ATOM      4  C   UNL     1       4.757   3.954  16.963  0.00  0.00    +0.000 A 
ATOM      5  C   UNL     1       3.472   3.820  17.475  0.00  0.00    +0.000 A 
ATOM      6  C   UNL     1       2.744   4.928  17.937  0.00  0.00    +0.000 A 
ENDROOT
BRANCH   1   8
ATOM      7  N   UNL     1       2.504   8.590  17.572  0.00  0.00    +0.000 N 
ATOM      8  C   UNL     1       2.726   7.511  18.389  0.00  0.00    +0.000 C 
ATOM      9  O   UNL     1       2.427   7.587  19.568  0.00  0.00    +0.000 OA
ATOM     10  H   UNL     1       2.712   8.541  16.567  0.00  0.00    +0.000 HD
BRANCH   7  11
ATOM     11  C   UNL     1       1.896   9.802  18.099  0.00  0.00    +0.000 C 
BRANCH  11  16
ATOM     12  S   UNL     1       0.578  10.501  20.482  0.00  0.00    +0.000 S 
ATOM     13  C   UNL     1      -0.943  11.394  19.990  0.00  0.00    +0.000 C 
ATOM     14  C   UNL     1      -1.673  10.527  18.969  0.00  0.00    +0.000 C 
ATOM     15  C   UNL     1      -0.583  10.092  18.022  0.00  0.00    +0.000 C 
ATOM     16  C   UNL     1       0.586   9.565  18.883  0.00  0.00    +0.000 C 
BRANCH  12  18
ATOM     17  C   UNL     1      -0.539   9.837  22.977  0.00  0.00    +0.000 C 
ATOM     18  C   UNL     1      -0.329   9.308  21.570  0.00  0.00    +0.000 C 
ENDBRANCH  12  18
ENDBRANCH  11  16
ENDBRANCH   7  11
ENDBRANCH   1   8
BRANCH   3  19
ATOM     19  S   UNL     1       7.019   5.344  16.256  0.00  0.00    +0.000 S 
ATOM     20  O   UNL     1       7.670   6.693  16.592  0.00  0.00    +0.000 OA
ATOM     21  O   UNL     1       8.006   4.349  16.888  0.00  0.00    +0.000 OA
BRANCH  19  22
ATOM     22  N   UNL     1       7.235   5.155  14.515  0.00  0.00    +0.000 NA
ATOM     23  H   UNL     1       6.317   4.860  14.111  0.00  0.00    +0.000 HD
ATOM     24  H   UNL     1       7.923   4.384  14.360  0.00  0.00    +0.000 HD
ENDBRANCH  19  22
ENDBRANCH   3  19
BRANCH   6  25
ATOM     25  O   UNL     1       1.495   4.616  18.393  0.00  0.00    +0.000 OA
ATOM     26  C   UNL     1       1.049   3.561  19.158  0.00  0.00    +0.000 C 
ENDBRANCH   6  25
TORSDOF 7
ENDMDL
MODEL 4
REMARK VINA RESULT:      -7.1      1.564      2.115
REMARK  Name = 
REMARK  9 active torsions:
REMARK  status: ('A' for Active; 'I' for Inactive)
REMARK    1  A    between atoms: C_1  and  C_2
REMARK    2  A    between atoms: C_2  and  S_3
REMARK    3  A    between atoms: C_7  and  C_8
REMARK    4  A    between atoms: C_8  and  N_9
REMARK    5  A    between atoms: C_10  and  C_12
REMARK    6  A    between atoms: C_14  and  S_15
REMARK    7  A    between atoms: S_15  and  N_16
REMARK    8  A    between atoms: C_21  and  O_22
REMARK    9  A    between atoms: O_22  and  C_23
REMARK                            x       y       z     vdW  Elec       q    Type
REMARK                         _______ _______ _______ _____ _____    ______ ____
ROOT
ATOM      1  C   UNL     1       3.160   5.199  18.943  0.00  0.00    +0.000 A 
ATOM      2  C   UNL     1       4.512   5.598  18.824  0.00  0.00    +0.000 A 
ATOM      3  C   UNL     1       5.369   5.017  17.887  0.00  0.00    +0.000 A 
ATOM      4  C   UNL     1       4.895   4.029  17.035  0.00  0.00    +0.000 A 
ATOM      5  C   UNL     1       3.572   3.615  17.115  0.00  0.00    +0.000 A 
ATOM      6  C   UNL     1       2.681   4.171  18.048  0.00  0.00    +0.000 A 
ENDROOT
BRANCH   1   8
ATOM      7  N   UNL     1       2.108   7.196  20.062  0.00  0.00    +0.000 N 
ATOM      8  C   UNL     1       2.348   5.846  20.038  0.00  0.00    +0.000 C 
ATOM      9  O   UNL     1       1.908   5.148  20.936  0.00  0.00    +0.000 OA
ATOM     10  H   UNL     1       2.435   7.802  19.298  0.00  0.00    +0.000 HD
BRANCH   7  11
ATOM     11  C   UNL     1       1.318   7.787  21.130  0.00  0.00    +0.000 C 
BRANCH  11  16
ATOM     12  S   UNL     1       0.450   9.935  19.538  0.00  0.00    +0.000 S 
ATOM     13  C   UNL     1      -0.836  10.810  20.504  0.00  0.00    +0.000 C 
ATOM     14  C   UNL     1      -0.254  11.101  21.883  0.00  0.00    +0.000 C 
ATOM     15  C   UNL     1       0.390   9.797  22.284  0.00  0.00    +0.000 C 
ATOM     16  C   UNL     1       1.255   9.330  21.092  0.00  0.00    +0.000 C 
BRANCH  12  18
ATOM     17  C   UNL     1       0.585  12.613  18.684  0.00  0.00    +0.000 C 
ATOM     18  C   UNL     1       1.432  11.473  19.222  0.00  0.00    +0.000 C 
ENDBRANCH  12  18
ENDBRANCH  11  16
ENDBRANCH   7  11
ENDBRANCH   1   8
BRANCH   3  19
ATOM     19  S   UNL     1       7.087   5.511  17.778  0.00  0.00    +0.000 S 
ATOM     20  O   UNL     1       7.688   5.860  19.147  0.00  0.00    +0.000 OA
ATOM     21  O   UNL     1       8.022   4.389  17.298  0.00  0.00    +0.000 OA
BRANCH  19  22
ATOM     22  N   UNL     1       7.467   6.892  16.748  0.00  0.00    +0.000 NA
ATOM     23  H   UNL     1       7.546   6.544  15.766  0.00  0.00    +0.000 HD
ATOM     24  H   UNL     1       8.400   7.261  17.039  0.00  0.00    +0.000 HD
ENDBRANCH  19  22
ENDBRANCH   3  19
BRANCH   6  25
ATOM     25  O   UNL     1       1.418   3.657  17.978  0.00  0.00    +0.000 OA
ATOM     26  C   UNL     1       0.840   2.586  18.624  0.00  0.00    +0.000 C 
ENDBRANCH   6  25
TORSDOF 7
ENDMDL
MODEL 5
REMARK VINA RESULT:      -7.1      1.770      2.428
REMARK  Name = 
REMARK  9 active torsions:
REMARK  status: ('A' for Active; 'I' for Inactive)
REMARK    1  A    between atoms: C_1  and  C_2
REMARK    2  A    between atoms: C_2  and  S_3
REMARK    3  A    between atoms: C_7  and  C_8
REMARK    4  A    between atoms: C_8  and  N_9
REMARK    5  A    between atoms: C_10  and  C_12
REMARK    6  A    between atoms: C_14  and  S_15
REMARK    7  A    between atoms: S_15  and  N_16
REMARK    8  A    between atoms: C_21  and  O_22
REMARK    9  A    between atoms: O_22  and  C_23
REMARK                            x       y       z     vdW  Elec       q    Type
REMARK                         _______ _______ _______ _____ _____    ______ ____
ROOT
ATOM      1  C   UNL     1       3.521   6.639  18.199  0.00  0.00    +0.000 A 
ATOM      2  C   UNL     1       4.638   6.372  17.374  0.00  0.00    +0.000 A 
ATOM      3  C   UNL     1       5.427   5.233  17.552  0.00  0.00    +0.000 A 
ATOM      4  C   UNL     1       5.114   4.325  18.553  0.00  0.00    +0.000 A 
ATOM      5  C   UNL     1       4.020   4.547  19.379  0.00  0.00    +0.000 A 
ATOM      6  C   UNL     1       3.207   5.683  19.235  0.00  0.00    +0.000 A 
ENDROOT
BRANCH   1   8
ATOM      7  N   UNL     1       1.936   8.469  18.893  0.00  0.00    +0.000 N 
ATOM      8  C   UNL     1       2.786   7.935  17.959  0.00  0.00    +0.000 C 
ATOM      9  O   UNL     1       2.940   8.513  16.897  0.00  0.00    +0.000 OA
ATOM     10  H   UNL     1       1.815   8.022  19.811  0.00  0.00    +0.000 HD
BRANCH   7  11
ATOM     11  C   UNL     1       1.245   9.722  18.632  0.00  0.00    +0.000 C 
BRANCH  11  16
ATOM     12  S   UNL     1       0.541  11.320  20.835  0.00  0.00    +0.000 S 
ATOM     13  C   UNL     1      -0.846  12.381  20.284  0.00  0.00    +0.000 C 
ATOM     14  C   UNL     1      -1.901  11.470  19.664  0.00  0.00    +0.000 C 
ATOM     15  C   UNL     1      -1.105  10.555  18.769  0.00  0.00    +0.000 C 
ATOM     16  C   UNL     1       0.079  10.017  19.602  0.00  0.00    +0.000 C 
BRANCH  12  18
ATOM     17  C   UNL     1       0.059   9.308  22.743  0.00  0.00    +0.000 C 
ATOM     18  C   UNL     1      -0.363  10.707  22.332  0.00  0.00    +0.000 C 
ENDBRANCH  12  18
ENDBRANCH  11  16
ENDBRANCH   7  11
ENDBRANCH   1   8
BRANCH   3  19
ATOM     19  S   UNL     1       6.859   4.933  16.520  0.00  0.00    +0.000 S 
ATOM     20  O   UNL     1       7.527   6.232  16.045  0.00  0.00    +0.000 OA
ATOM     21  O   UNL     1       8.013   4.234  17.255  0.00  0.00    +0.000 OA
BRANCH  19  22
ATOM     22  N   UNL     1       6.613   3.985  15.052  0.00  0.00    +0.000 NA
ATOM     23  H   UNL     1       5.972   3.194  15.288  0.00  0.00    +0.000 HD
ATOM     24  H   UNL     1       7.537   3.584  14.773  0.00  0.00    +0.000 HD
ENDBRANCH  19  22
ENDBRANCH   3  19
BRANCH   6  25
ATOM     25  O   UNL     1       2.169   5.734  20.121  0.00  0.00    +0.000 OA
ATOM     26  C   UNL     1       1.373   4.737  20.640  0.00  0.00    +0.000 C 
ENDBRANCH   6  25
TORSDOF 7
ENDMDL
MODEL 6
REMARK VINA RESULT:      -7.1      1.574      2.121
REMARK  Name = 
REMARK  9 active torsions:
REMARK  status: ('A' for Active; 'I' for Inactive)
REMARK    1  A    between atoms: C_1  and  C_2
REMARK    2  A    between atoms: C_2  and  S_3
REMARK    3  A    between atoms: C_7  and  C_8
REMARK    4  A    between atoms: C_8  and  N_9
REMARK    5  A    between atoms: C_10  and  C_12
REMARK    6  A    between atoms: C_14  and  S_15
REMARK    7  A    between atoms: S_15  and  N_16
REMARK    8  A    between atoms: C_21  and  O_22
REMARK    9  A    between atoms: O_22  and  C_23
REMARK                            x       y       z     vdW  Elec       q    Type
REMARK                         _______ _______ _______ _____ _____    ______ ____
ROOT
ATOM      1  C   UNL     1       3.089   5.238  18.877  0.00  0.00    +0.000 A 
ATOM      2  C   UNL     1       4.443   5.610  18.713  0.00  0.00    +0.000 A 
ATOM      3  C   UNL     1       5.260   5.004  17.756  0.00  0.00    +0.000 A 
ATOM      4  C   UNL     1       4.743   4.017  16.929  0.00  0.00    +0.000 A 
ATOM      5  C   UNL     1       3.415   3.630  17.053  0.00  0.00    +0.000 A 
ATOM      6  C   UNL     1       2.564   4.211  18.007  0.00  0.00    +0.000 A 
ENDROOT
BRANCH   1   8
ATOM      7  N   UNL     1       2.113   7.264  20.010  0.00  0.00    +0.000 N 
ATOM      8  C   UNL     1       2.323   5.910  19.990  0.00  0.00    +0.000 C 
ATOM      9  O   UNL     1       1.894   5.228  20.906  0.00  0.00    +0.000 OA
ATOM     10  H   UNL     1       2.431   7.858  19.233  0.00  0.00    +0.000 HD
BRANCH   7  11
ATOM     11  C   UNL     1       1.367   7.880  21.096  0.00  0.00    +0.000 C 
BRANCH  11  16
ATOM     12  S   UNL     1       0.465   9.994  19.478  0.00  0.00    +0.000 S 
ATOM     13  C   UNL     1      -0.800  10.890  20.453  0.00  0.00    +0.000 C 
ATOM     14  C   UNL     1      -0.187  11.211  21.813  0.00  0.00    +0.000 C 
ATOM     15  C   UNL     1       0.465   9.916  22.227  0.00  0.00    +0.000 C 
ATOM     16  C   UNL     1       1.304   9.422  21.027  0.00  0.00    +0.000 C 
BRANCH  12  18
ATOM     17  C   UNL     1       0.582  12.654  18.565  0.00  0.00    +0.000 C 
ATOM     18  C   UNL     1       1.440  11.525  19.108  0.00  0.00    +0.000 C 
ENDBRANCH  12  18
ENDBRANCH  11  16
ENDBRANCH   7  11
ENDBRANCH   1   8
BRANCH   3  19
ATOM     19  S   UNL     1       6.983   5.464  17.590  0.00  0.00    +0.000 S 
ATOM     20  O   UNL     1       7.280   6.170  16.259  0.00  0.00    +0.000 OA
ATOM     21  O   UNL     1       7.442   6.514  18.614  0.00  0.00    +0.000 OA
BRANCH  19  22
ATOM     22  N   UNL     1       8.178   4.171  17.697  0.00  0.00    +0.000 NA
ATOM     23  H   UNL     1       8.500   3.954  16.726  0.00  0.00    +0.000 HD
ATOM     24  H   UNL     1       7.699   3.324  18.078  0.00  0.00    +0.000 HD
ENDBRANCH  19  22
ENDBRANCH   3  19
BRANCH   6  25
ATOM     25  O   UNL     1       1.290   3.720  17.981  0.00  0.00    +0.000 OA
ATOM     26  C   UNL     1       0.696   2.704  18.698  0.00  0.00    +0.000 C 
ENDBRANCH   6  25
TORSDOF 7
ENDMDL
MODEL 7
REMARK VINA RESULT:      -7.1      1.140      1.312
REMARK  Name = 
REMARK  9 active torsions:
REMARK  status: ('A' for Active; 'I' for Inactive)
REMARK    1  A    between atoms: C_1  and  C_2
REMARK    2  A    between atoms: C_2  and  S_3
REMARK    3  A    between atoms: C_7  and  C_8
REMARK    4  A    between atoms: C_8  and  N_9
REMARK    5  A    between atoms: C_10  and  C_12
REMARK    6  A    between atoms: C_14  and  S_15
REMARK    7  A    between atoms: S_15  and  N_16
REMARK    8  A    between atoms: C_21  and  O_22
REMARK    9  A    between atoms: O_22  and  C_23
REMARK                            x       y       z     vdW  Elec       q    Type
REMARK                         _______ _______ _______ _____ _____    ______ ____
ROOT
ATOM      1  C   UNL     1       3.128   5.474  18.437  0.00  0.00    +0.000 A 
ATOM      2  C   UNL     1       4.490   5.784  18.210  0.00  0.00    +0.000 A 
ATOM      3  C   UNL     1       5.308   4.968  17.426  0.00  0.00    +0.000 A 
ATOM      4  C   UNL     1       4.785   3.824  16.839  0.00  0.00    +0.000 A 
ATOM      5  C   UNL     1       3.451   3.489  17.031  0.00  0.00    +0.000 A 
ATOM      6  C   UNL     1       2.599   4.281  17.817  0.00  0.00    +0.000 A 
ENDROOT
BRANCH   1   8
ATOM      7  N   UNL     1       2.187   7.720  19.077  0.00  0.00    +0.000 N 
ATOM      8  C   UNL     1       2.361   6.390  19.358  0.00  0.00    +0.000 C 
ATOM      9  O   UNL     1       1.896   5.935  20.389  0.00  0.00    +0.000 OA
ATOM     10  H   UNL     1       2.536   8.122  18.197  0.00  0.00    +0.000 HD
BRANCH   7  11
ATOM     11  C   UNL     1       1.438   8.575  19.984  0.00  0.00    +0.000 C 
BRANCH  11  16
ATOM     12  S   UNL     1       0.473  11.143  20.596  0.00  0.00    +0.000 S 
ATOM     13  C   UNL     1       1.614  12.331  19.796  0.00  0.00    +0.000 C 
ATOM     14  C   UNL     1       1.749  11.921  18.332  0.00  0.00    +0.000 C 
ATOM     15  C   UNL     1       1.959  10.429  18.395  0.00  0.00    +0.000 C 
ATOM     16  C   UNL     1       0.871   9.853  19.328  0.00  0.00    +0.000 C 
BRANCH  12  18
ATOM     17  C   UNL     1      -1.741  10.978  18.866  0.00  0.00    +0.000 C 
ATOM     18  C   UNL     1      -1.040  11.904  19.844  0.00  0.00    +0.000 C 
ENDBRANCH  12  18
ENDBRANCH  11  16
ENDBRANCH   7  11
ENDBRANCH   1   8
BRANCH   3  19
ATOM     19  S   UNL     1       7.038   5.359  17.182  0.00  0.00    +0.000 S 
ATOM     20  O   UNL     1       7.370   5.681  15.717  0.00  0.00    +0.000 OA
ATOM     21  O   UNL     1       7.487   6.643  17.898  0.00  0.00    +0.000 OA
BRANCH  19  22
ATOM     22  N   UNL     1       8.218   4.137  17.658  0.00  0.00    +0.000 NA
ATOM     23  H   UNL     1       9.119   4.359  17.176  0.00  0.00    +0.000 HD
ATOM     24  H   UNL     1       7.880   3.213  17.307  0.00  0.00    +0.000 HD
ENDBRANCH  19  22
ENDBRANCH   3  19
BRANCH   6  25
ATOM     25  O   UNL     1       1.319   3.811  17.886  0.00  0.00    +0.000 OA
ATOM     26  C   UNL     1       0.747   2.861  18.704  0.00  0.00    +0.000 C 
ENDBRANCH   6  25
TORSDOF 7
ENDMDL
MODEL 8
REMARK VINA RESULT:      -7.0      1.496      2.285
REMARK  Name = 
REMARK  9 active torsions:
REMARK  status: ('A' for Active; 'I' for Inactive)
REMARK    1  A    between atoms: C_1  and  C_2
REMARK    2  A    between atoms: C_2  and  S_3
REMARK    3  A    between atoms: C_7  and  C_8
REMARK    4  A    between atoms: C_8  and  N_9
REMARK    5  A    between atoms: C_10  and  C_12
REMARK    6  A    between atoms: C_14  and  S_15
REMARK    7  A    between atoms: S_15  and  N_16
REMARK    8  A    between atoms: C_21  and  O_22
REMARK    9  A    between atoms: O_22  and  C_23
REMARK                            x       y       z     vdW  Elec       q    Type
REMARK                         _______ _______ _______ _____ _____    ______ ____
ROOT
ATOM      1  C   UNL     1       3.203   5.432  18.834  0.00  0.00    +0.000 A 
ATOM      2  C   UNL     1       4.563   5.793  18.687  0.00  0.00    +0.000 A 
ATOM      3  C   UNL     1       5.423   5.087  17.844  0.00  0.00    +0.000 A 
ATOM      4  C   UNL     1       4.945   4.007  17.115  0.00  0.00    +0.000 A 
ATOM      5  C   UNL     1       3.614   3.626  17.225  0.00  0.00    +0.000 A 
ATOM      6  C   UNL     1       2.720   4.307  18.067  0.00  0.00    +0.000 A 
ENDROOT
BRANCH   1   8
ATOM      7  N   UNL     1       2.273   7.587  19.748  0.00  0.00    +0.000 N 
ATOM      8  C   UNL     1       2.386   6.223  19.826  0.00  0.00    +0.000 C 
ATOM      9  O   UNL     1       1.826   5.631  20.734  0.00  0.00    +0.000 OA
ATOM     10  H   UNL     1       2.703   8.107  18.973  0.00  0.00    +0.000 HD
BRANCH   7  11
ATOM     11  C   UNL     1       1.475   8.318  20.719  0.00  0.00    +0.000 C 
BRANCH  11  16
ATOM     12  S   UNL     1       1.387   9.951  18.432  0.00  0.00    +0.000 S 
ATOM     13  C   UNL     1      -0.381  10.135  17.994  0.00  0.00    +0.000 C 
ATOM     14  C   UNL     1      -1.120  10.585  19.251  0.00  0.00    +0.000 C 
ATOM     15  C   UNL     1      -0.587   9.671  20.327  0.00  0.00    +0.000 C 
ATOM     16  C   UNL     1       0.954   9.682  20.213  0.00  0.00    +0.000 C 
BRANCH  12  18
ATOM     17  C   UNL     1       1.875  12.345  19.828  0.00  0.00    +0.000 C 
ATOM     18  C   UNL     1       1.703  11.776  18.431  0.00  0.00    +0.000 C 
ENDBRANCH  12  18
ENDBRANCH  11  16
ENDBRANCH   7  11
ENDBRANCH   1   8
BRANCH   3  19
ATOM     19  S   UNL     1       7.150   5.538  17.702  0.00  0.00    +0.000 S 
ATOM     20  O   UNL     1       8.012   4.401  17.134  0.00  0.00    +0.000 OA
ATOM     21  O   UNL     1       7.411   6.668  16.693  0.00  0.00    +0.000 OA
BRANCH  19  22
ATOM     22  N   UNL     1       7.977   6.044  19.177  0.00  0.00    +0.000 NA
ATOM     23  H   UNL     1       8.983   6.197  18.941  0.00  0.00    +0.000 HD
ATOM     24  H   UNL     1       7.919   5.256  19.861  0.00  0.00    +0.000 HD
ENDBRANCH  19  22
ENDBRANCH   3  19
BRANCH   6  25
ATOM     25  O   UNL     1       1.450   3.807  18.042  0.00  0.00    +0.000 OA
ATOM     26  C   UNL     1       0.886   2.736  18.700  0.00  0.00    +0.000 C 
ENDBRANCH   6  25
TORSDOF 7
ENDMDL
MODEL 9
REMARK VINA RESULT:      -7.0      1.941      2.740
REMARK  Name = 
REMARK  9 active torsions:
REMARK  status: ('A' for Active; 'I' for Inactive)
REMARK    1  A    between atoms: C_1  and  C_2
REMARK    2  A    between atoms: C_2  and  S_3
REMARK    3  A    between atoms: C_7  and  C_8
REMARK    4  A    between atoms: C_8  and  N_9
REMARK    5  A    between atoms: C_10  and  C_12
REMARK    6  A    between atoms: C_14  and  S_15
REMARK    7  A    between atoms: S_15  and  N_16
REMARK    8  A    between atoms: C_21  and  O_22
REMARK    9  A    between atoms: O_22  and  C_23
REMARK                            x       y       z     vdW  Elec       q    Type
REMARK                         _______ _______ _______ _____ _____    ______ ____
ROOT
ATOM      1  C   UNL     1       3.328   6.528  18.428  0.00  0.00    +0.000 A 
ATOM      2  C   UNL     1       4.516   6.367  17.677  0.00  0.00    +0.000 A 
ATOM      3  C   UNL     1       5.323   5.235  17.813  0.00  0.00    +0.000 A 
ATOM      4  C   UNL     1       4.959   4.228  18.696  0.00  0.00    +0.000 A 
ATOM      5  C   UNL     1       3.795   4.344  19.445  0.00  0.00    +0.000 A 
ATOM      6  C   UNL     1       2.961   5.470  19.341  0.00  0.00    +0.000 A 
ENDROOT
BRANCH   1   8
ATOM      7  N   UNL     1       1.774   8.337  19.238  0.00  0.00    +0.000 N 
ATOM      8  C   UNL     1       2.574   7.823  18.250  0.00  0.00    +0.000 C 
ATOM      9  O   UNL     1       2.668   8.419  17.190  0.00  0.00    +0.000 OA
ATOM     10  H   UNL     1       1.706   7.874  20.154  0.00  0.00    +0.000 HD
BRANCH   7  11
ATOM     11  C   UNL     1       1.064   9.590  19.036  0.00  0.00    +0.000 C 
BRANCH  11  16
ATOM     12  S   UNL     1      -0.091  11.962  20.005  0.00  0.00    +0.000 S 
ATOM     13  C   UNL     1      -1.176  11.479  21.399  0.00  0.00    +0.000 C 
ATOM     14  C   UNL     1      -0.347  10.619  22.348  0.00  0.00    +0.000 C 
ATOM     15  C   UNL     1       0.363   9.655  21.432  0.00  0.00    +0.000 C 
ATOM     16  C   UNL     1       0.992  10.487  20.291  0.00  0.00    +0.000 C 
BRANCH  12  18
ATOM     17  C   UNL     1       2.284  13.335  20.634  0.00  0.00    +0.000 C 
ATOM     18  C   UNL     1       0.812  13.243  20.993  0.00  0.00    +0.000 C 
ENDBRANCH  12  18
ENDBRANCH  11  16
ENDBRANCH   7  11
ENDBRANCH   1   8
BRANCH   3  19
ATOM     19  S   UNL     1       6.842   5.068  16.880  0.00  0.00    +0.000 S 
ATOM     20  O   UNL     1       6.624   4.409  15.510  0.00  0.00    +0.000 OA
ATOM     21  O   UNL     1       7.475   6.413  16.487  0.00  0.00    +0.000 OA
BRANCH  19  22
ATOM     22  N   UNL     1       8.151   4.149  17.625  0.00  0.00    +0.000 NA
ATOM     23  H   UNL     1       8.819   3.877  16.869  0.00  0.00    +0.000 HD
ATOM     24  H   UNL     1       7.740   3.276  18.026  0.00  0.00    +0.000 HD
ENDBRANCH  19  22
ENDBRANCH   3  19
BRANCH   6  25
ATOM     25  O   UNL     1       1.855   5.411  20.139  0.00  0.00    +0.000 OA
ATOM     26  C   UNL     1       1.074   4.345  20.527  0.00  0.00    +0.000 C 
ENDBRANCH   6  25
TORSDOF 7
ENDMDL
