MODEL 1
REMARK VINA RESULT:      -7.6      0.000      0.000
REMARK  Name = 
REMARK  6 active torsions:
REMARK  status: ('A' for Active; 'I' for Inactive)
REMARK    1  A    between atoms: C_1  and  C_2
REMARK    2  A    between atoms: C_2  and  N_3
REMARK    3  A    between atoms: N_3  and  C_4
REMARK    4  A    between atoms: N_3  and  C_6
REMARK    5  A    between atoms: C_4  and  C_5
REMARK    6  A    between atoms: C_11  and  C_12
REMARK                            x       y       z     vdW  Elec       q    Type
REMARK                         _______ _______ _______ _____ _____    ______ ____
ROOT
ATOM      1  C   UNL     1       2.389   7.497  18.584  0.00  0.00    +0.000 A 
ATOM      2  C   UNL     1       1.792   8.526  17.821  0.00  0.00    +0.000 A 
ATOM      3  C   UNL     1       1.029   9.559  18.391  0.00  0.00    +0.000 A 
ATOM      4  C   UNL     1       0.838   9.596  19.763  0.00  0.00    +0.000 A 
ATOM      5  C   UNL     1       0.098  10.658  20.419  0.00  0.00    +0.000 A 
ATOM      6  C   UNL     1      -0.060  10.655  21.754  0.00  0.00    +0.000 A 
ATOM      7  C   UNL     1       0.495   9.557  22.589  0.00  0.00    +0.000 A 
ATOM      8  O   UNL     1       0.348   9.487  23.804  0.00  0.00    +0.000 OA
ATOM      9  O   UNL     1       1.216   8.568  21.921  0.00  0.00    +0.000 OA
ATOM     10  C   UNL     1       1.390   8.586  20.526  0.00  0.00    +0.000 A 
ATOM     11  C   UNL     1       2.147   7.553  19.964  0.00  0.00    +0.000 A 
ENDROOT
BRANCH   6  12
ATOM     12  C   UNL     1      -0.767  11.736  22.369  0.00  0.00    +0.000 A 
ATOM     13  N   UNL     1      -0.304  12.976  22.539  0.00  0.00    +0.000 NA
ATOM     14  C   UNL     1      -1.307  13.659  23.176  0.00  0.00    +0.000 A 
ATOM     15  C   UNL     1      -1.395  14.987  23.611  0.00  0.00    +0.000 A 
ATOM     16  C   UNL     1      -2.580  15.394  24.245  0.00  0.00    +0.000 A 
ATOM     17  C   UNL     1      -3.642  14.502  24.440  0.00  0.00    +0.000 A 
ATOM     18  C   UNL     1      -3.564  13.172  24.012  0.00  0.00    +0.000 A 
ATOM     19  C   UNL     1      -2.375  12.815  23.389  0.00  0.00    +0.000 A 
ATOM     20  O   UNL     1      -2.047  11.599  22.886  0.00  0.00    +0.000 OA
ENDBRANCH   6  12
BRANCH   1  21
ATOM     21  N   UNL     1       3.186   6.503  17.995  0.00  0.00    +0.000 N 
BRANCH  21  23
ATOM     22  C   UNL     1       5.555   5.952  17.524  0.00  0.00    +0.000 C 
ATOM     23  C   UNL     1       4.378   6.870  17.215  0.00  0.00    +0.000 C 
ENDBRANCH  21  23
BRANCH  21  24
ATOM     24  C   UNL     1       2.906   5.100  18.341  0.00  0.00    +0.000 C 
ATOM     25  C   UNL     1       1.660   4.471  17.745  0.00  0.00    +0.000 C 
ENDBRANCH  21  24
ENDBRANCH   1  21
TORSDOF 4
ENDMDL
MODEL 2
REMARK VINA RESULT:      -7.5      0.657      1.178
REMARK  Name = 
REMARK  6 active torsions:
REMARK  status: ('A' for Active; 'I' for Inactive)
REMARK    1  A    between atoms: C_1  and  C_2
REMARK    2  A    between atoms: C_2  and  N_3
REMARK    3  A    between atoms: N_3  and  C_4
REMARK    4  A    between atoms: N_3  and  C_6
REMARK    5  A    between atoms: C_4  and  C_5
REMARK    6  A    between atoms: C_11  and  C_12
REMARK                            x       y       z     vdW  Elec       q    Type
REMARK                         _______ _______ _______ _____ _____    ______ ____
ROOT
ATOM      1  C   UNL     1       2.398   7.481  18.589  0.00  0.00    +0.000 A 
ATOM      2  C   UNL     1       1.761   8.487  17.828  0.00  0.00    +0.000 A 
ATOM      3  C   UNL     1       0.988   9.510  18.403  0.00  0.00    +0.000 A 
ATOM      4  C   UNL     1       0.827   9.559  19.778  0.00  0.00    +0.000 A 
ATOM      5  C   UNL     1       0.078  10.612  20.438  0.00  0.00    +0.000 A 
ATOM      6  C   UNL     1      -0.050  10.622  21.776  0.00  0.00    +0.000 A 
ATOM      7  C   UNL     1       0.547   9.546  22.612  0.00  0.00    +0.000 A 
ATOM      8  O   UNL     1       0.428   9.487  23.830  0.00  0.00    +0.000 OA
ATOM      9  O   UNL     1       1.275   8.566  21.939  0.00  0.00    +0.000 OA
ATOM     10  C   UNL     1       1.418   8.571  20.541  0.00  0.00    +0.000 A 
ATOM     11  C   UNL     1       2.185   7.549  19.974  0.00  0.00    +0.000 A 
ENDROOT
BRANCH   6  12
ATOM     12  C   UNL     1      -0.768  11.694  22.395  0.00  0.00    +0.000 A 
ATOM     13  N   UNL     1      -2.029  11.641  22.829  0.00  0.00    +0.000 NA
ATOM     14  C   UNL     1      -2.298  12.887  23.331  0.00  0.00    +0.000 A 
ATOM     15  C   UNL     1      -3.450  13.423  23.917  0.00  0.00    +0.000 A 
ATOM     16  C   UNL     1      -3.413  14.763  24.339  0.00  0.00    +0.000 A 
ATOM     17  C   UNL     1      -2.259  15.541  24.177  0.00  0.00    +0.000 A 
ATOM     18  C   UNL     1      -1.103  15.016  23.591  0.00  0.00    +0.000 A 
ATOM     19  C   UNL     1      -1.186  13.690  23.191  0.00  0.00    +0.000 A 
ATOM     20  O   UNL     1      -0.215  12.950  22.601  0.00  0.00    +0.000 OA
ENDBRANCH   6  12
BRANCH   1  21
ATOM     21  N   UNL     1       3.204   6.498  17.994  0.00  0.00    +0.000 N 
BRANCH  21  23
ATOM     22  C   UNL     1       5.411   5.742  17.161  0.00  0.00    +0.000 C 
ATOM     23  C   UNL     1       4.399   6.880  17.226  0.00  0.00    +0.000 C 
ENDBRANCH  21  23
BRANCH  21  24
ATOM     24  C   UNL     1       2.928   5.089  18.322  0.00  0.00    +0.000 C 
ATOM     25  C   UNL     1       1.658   4.479  17.760  0.00  0.00    +0.000 C 
ENDBRANCH  21  24
ENDBRANCH   1  21
TORSDOF 4
ENDMDL
MODEL 3
REMARK VINA RESULT:      -7.5      0.451      1.385
REMARK  Name = 
REMARK  6 active torsions:
REMARK  status: ('A' for Active; 'I' for Inactive)
REMARK    1  A    between atoms: C_1  and  C_2
REMARK    2  A    between atoms: C_2  and  N_3
REMARK    3  A    between atoms: N_3  and  C_4
REMARK    4  A    between atoms: N_3  and  C_6
REMARK    5  A    between atoms: C_4  and  C_5
REMARK    6  A    between atoms: C_11  and  C_12
REMARK                            x       y       z     vdW  Elec       q    Type
REMARK                         _______ _______ _______ _____ _____    ______ ____
ROOT
ATOM      1  C   UNL     1       2.438   7.382  18.743  0.00  0.00    +0.000 A 
ATOM      2  C   UNL     1       1.860   8.382  17.929  0.00  0.00    +0.000 A 
ATOM      3  C   UNL     1       1.083   9.435  18.442  0.00  0.00    +0.000 A 
ATOM      4  C   UNL     1       0.858   9.522  19.807  0.00  0.00    +0.000 A 
ATOM      5  C   UNL     1       0.103  10.606  20.405  0.00  0.00    +0.000 A 
ATOM      6  C   UNL     1      -0.088  10.652  21.735  0.00  0.00    +0.000 A 
ATOM      7  C   UNL     1       0.445   9.585  22.623  0.00  0.00    +0.000 A 
ATOM      8  O   UNL     1       0.268   9.559  23.836  0.00  0.00    +0.000 OA
ATOM      9  O   UNL     1       1.183   8.573  22.010  0.00  0.00    +0.000 OA
ATOM     10  C   UNL     1       1.391   8.541  20.620  0.00  0.00    +0.000 A 
ATOM     11  C   UNL     1       2.161   7.489  20.115  0.00  0.00    +0.000 A 
ENDROOT
BRANCH   6  12
ATOM     12  C   UNL     1      -0.810  11.754  22.293  0.00  0.00    +0.000 A 
ATOM     13  N   UNL     1      -0.274  12.791  22.941  0.00  0.00    +0.000 NA
ATOM     14  C   UNL     1      -1.332  13.584  23.304  0.00  0.00    +0.000 A 
ATOM     15  C   UNL     1      -1.386  14.797  24.000  0.00  0.00    +0.000 A 
ATOM     16  C   UNL     1      -2.648  15.373  24.220  0.00  0.00    +0.000 A 
ATOM     17  C   UNL     1      -3.817  14.756  23.758  0.00  0.00    +0.000 A 
ATOM     18  C   UNL     1      -3.775  13.543  23.062  0.00  0.00    +0.000 A 
ATOM     19  C   UNL     1      -2.507  13.011  22.868  0.00  0.00    +0.000 A 
ATOM     20  O   UNL     1      -2.192  11.857  22.230  0.00  0.00    +0.000 OA
ENDBRANCH   6  12
BRANCH   1  21
ATOM     21  N   UNL     1       3.248   6.368  18.211  0.00  0.00    +0.000 N 
BRANCH  21  23
ATOM     22  C   UNL     1       1.558   4.590  17.870  0.00  0.00    +0.000 C 
ATOM     23  C   UNL     1       2.921   4.953  18.447  0.00  0.00    +0.000 C 
ENDBRANCH  21  23
BRANCH  21  24
ATOM     24  C   UNL     1       4.305   6.756  17.262  0.00  0.00    +0.000 C 
ATOM     25  C   UNL     1       4.886   5.665  16.382  0.00  0.00    +0.000 C 
ENDBRANCH  21  24
ENDBRANCH   1  21
TORSDOF 4
ENDMDL
MODEL 4
REMARK VINA RESULT:      -7.4      1.812      9.042
REMARK  Name = 
REMARK  6 active torsions:
REMARK  status: ('A' for Active; 'I' for Inactive)
REMARK    1  A    between atoms: C_1  and  C_2
REMARK    2  A    between atoms: C_2  and  N_3
REMARK    3  A    between atoms: N_3  and  C_4
REMARK    4  A    between atoms: N_3  and  C_6
REMARK    5  A    between atoms: C_4  and  C_5
REMARK    6  A    between atoms: C_11  and  C_12
REMARK                            x       y       z     vdW  Elec       q    Type
REMARK                         _______ _______ _______ _____ _____    ______ ____
ROOT
ATOM      1  C   UNL     1      -0.898  11.434  22.432  0.00  0.00    +0.000 A 
ATOM      2  C   UNL     1      -0.700  10.181  23.056  0.00  0.00    +0.000 A 
ATOM      3  C   UNL     1      -0.016   9.118  22.443  0.00  0.00    +0.000 A 
ATOM      4  C   UNL     1       0.501   9.278  21.167  0.00  0.00    +0.000 A 
ATOM      5  C   UNL     1       1.255   8.237  20.495  0.00  0.00    +0.000 A 
ATOM      6  C   UNL     1       1.741   8.437  19.257  0.00  0.00    +0.000 A 
ATOM      7  C   UNL     1       1.500   9.715  18.536  0.00  0.00    +0.000 A 
ATOM      8  O   UNL     1       1.888   9.935  17.395  0.00  0.00    +0.000 OA
ATOM      9  O   UNL     1       0.789  10.696  19.227  0.00  0.00    +0.000 OA
ATOM     10  C   UNL     1       0.297  10.485  20.527  0.00  0.00    +0.000 A 
ATOM     11  C   UNL     1      -0.386  11.545  21.131  0.00  0.00    +0.000 A 
ENDROOT
BRANCH   6  12
ATOM     12  C   UNL     1       2.507   7.399  18.638  0.00  0.00    +0.000 A 
ATOM     13  N   UNL     1       3.584   7.576  17.870  0.00  0.00    +0.000 NA
ATOM     14  C   UNL     1       3.977   6.319  17.492  0.00  0.00    +0.000 A 
ATOM     15  C   UNL     1       5.036   5.879  16.690  0.00  0.00    +0.000 A 
ATOM     16  C   UNL     1       5.177   4.497  16.484  0.00  0.00    +0.000 A 
ATOM     17  C   UNL     1       4.285   3.584  17.062  0.00  0.00    +0.000 A 
ATOM     18  C   UNL     1       3.221   4.012  17.863  0.00  0.00    +0.000 A 
ATOM     19  C   UNL     1       3.122   5.386  18.039  0.00  0.00    +0.000 A 
ATOM     20  O   UNL     1       2.191   6.054  18.763  0.00  0.00    +0.000 OA
ENDBRANCH   6  12
BRANCH   1  21
ATOM     21  N   UNL     1      -1.544  12.495  23.085  0.00  0.00    +0.000 N 
BRANCH  21  23
ATOM     22  C   UNL     1      -1.391  14.629  24.333  0.00  0.00    +0.000 C 
ATOM     23  C   UNL     1      -0.931  13.832  23.118  0.00  0.00    +0.000 C 
ENDBRANCH  21  23
BRANCH  21  24
ATOM     24  C   UNL     1      -2.921  12.278  23.557  0.00  0.00    +0.000 C 
ATOM     25  C   UNL     1      -4.047  12.805  22.687  0.00  0.00    +0.000 C 
ENDBRANCH  21  24
ENDBRANCH   1  21
TORSDOF 4
ENDMDL
MODEL 5
REMARK VINA RESULT:      -7.3      1.854      9.175
REMARK  Name = 
REMARK  6 active torsions:
REMARK  status: ('A' for Active; 'I' for Inactive)
REMARK    1  A    between atoms: C_1  and  C_2
REMARK    2  A    between atoms: C_2  and  N_3
REMARK    3  A    between atoms: N_3  and  C_4
REMARK    4  A    between atoms: N_3  and  C_6
REMARK    5  A    between atoms: C_4  and  C_5
REMARK    6  A    between atoms: C_11  and  C_12
REMARK                            x       y       z     vdW  Elec       q    Type
REMARK                         _______ _______ _______ _____ _____    ______ ____
ROOT
ATOM      1  C   UNL     1      -1.027  11.554  22.347  0.00  0.00    +0.000 A 
ATOM      2  C   UNL     1      -0.814  10.322  23.006  0.00  0.00    +0.000 A 
ATOM      3  C   UNL     1      -0.105   9.256  22.429  0.00  0.00    +0.000 A 
ATOM      4  C   UNL     1       0.423   9.391  21.155  0.00  0.00    +0.000 A 
ATOM      5  C   UNL     1       1.203   8.346  20.518  0.00  0.00    +0.000 A 
ATOM      6  C   UNL     1       1.698   8.522  19.281  0.00  0.00    +0.000 A 
ATOM      7  C   UNL     1       1.442   9.775  18.524  0.00  0.00    +0.000 A 
ATOM      8  O   UNL     1       1.838   9.972  17.381  0.00  0.00    +0.000 OA
ATOM      9  O   UNL     1       0.707  10.762  19.180  0.00  0.00    +0.000 OA
ATOM     10  C   UNL     1       0.205  10.576  20.480  0.00  0.00    +0.000 A 
ATOM     11  C   UNL     1      -0.504  11.640  21.048  0.00  0.00    +0.000 A 
ENDROOT
BRANCH   6  12
ATOM     12  C   UNL     1       2.489   7.482  18.698  0.00  0.00    +0.000 A 
ATOM     13  N   UNL     1       2.384   6.178  18.966  0.00  0.00    +0.000 NA
ATOM     14  C   UNL     1       3.339   5.567  18.195  0.00  0.00    +0.000 A 
ATOM     15  C   UNL     1       3.698   4.221  18.055  0.00  0.00    +0.000 A 
ATOM     16  C   UNL     1       4.740   3.907  17.169  0.00  0.00    +0.000 A 
ATOM     17  C   UNL     1       5.404   4.907  16.445  0.00  0.00    +0.000 A 
ATOM     18  C   UNL     1       5.055   6.255  16.579  0.00  0.00    +0.000 A 
ATOM     19  C   UNL     1       4.020   6.518  17.466  0.00  0.00    +0.000 A 
ATOM     20  O   UNL     1       3.494   7.729  17.774  0.00  0.00    +0.000 OA
ENDBRANCH   6  12
BRANCH   1  21
ATOM     21  N   UNL     1      -1.699  12.620  22.964  0.00  0.00    +0.000 N 
BRANCH  21  23
ATOM     22  C   UNL     1      -4.130  12.710  22.496  0.00  0.00    +0.000 C 
ATOM     23  C   UNL     1      -3.045  12.426  23.527  0.00  0.00    +0.000 C 
ENDBRANCH  21  23
BRANCH  21  24
ATOM     24  C   UNL     1      -0.949  13.865  23.200  0.00  0.00    +0.000 C 
ATOM     25  C   UNL     1      -1.414  14.753  24.339  0.00  0.00    +0.000 C 
ENDBRANCH  21  24
ENDBRANCH   1  21
TORSDOF 4
ENDMDL
MODEL 6
REMARK VINA RESULT:      -7.1      2.035      3.119
REMARK  Name = 
REMARK  6 active torsions:
REMARK  status: ('A' for Active; 'I' for Inactive)
REMARK    1  A    between atoms: C_1  and  C_2
REMARK    2  A    between atoms: C_2  and  N_3
REMARK    3  A    between atoms: N_3  and  C_4
REMARK    4  A    between atoms: N_3  and  C_6
REMARK    5  A    between atoms: C_4  and  C_5
REMARK    6  A    between atoms: C_11  and  C_12
REMARK                            x       y       z     vdW  Elec       q    Type
REMARK                         _______ _______ _______ _____ _____    ______ ____
ROOT
ATOM      1  C   UNL     1       3.430   5.099  18.839  0.00  0.00    +0.000 A 
ATOM      2  C   UNL     1       2.815   4.930  20.100  0.00  0.00    +0.000 A 
ATOM      3  C   UNL     1       2.060   5.936  20.726  0.00  0.00    +0.000 A 
ATOM      4  C   UNL     1       1.893   7.160  20.099  0.00  0.00    +0.000 A 
ATOM      5  C   UNL     1       1.089   8.225  20.670  0.00  0.00    +0.000 A 
ATOM      6  C   UNL     1       0.952   9.397  20.026  0.00  0.00    +0.000 A 
ATOM      7  C   UNL     1       1.636   9.643  18.729  0.00  0.00    +0.000 A 
ATOM      8  O   UNL     1       1.575  10.704  18.119  0.00  0.00    +0.000 OA
ATOM      9  O   UNL     1       2.380   8.586  18.205  0.00  0.00    +0.000 OA
ATOM     10  C   UNL     1       2.507   7.358  18.878  0.00  0.00    +0.000 A 
ATOM     11  C   UNL     1       3.263   6.363  18.252  0.00  0.00    +0.000 A 
ENDROOT
BRANCH   6  12
ATOM     12  C   UNL     1       0.126  10.412  20.604  0.00  0.00    +0.000 A 
ATOM     13  N   UNL     1       0.289  10.957  21.811  0.00  0.00    +0.000 NA
ATOM     14  C   UNL     1      -0.730  11.864  21.946  0.00  0.00    +0.000 A 
ATOM     15  C   UNL     1      -1.071  12.730  22.991  0.00  0.00    +0.000 A 
ATOM     16  C   UNL     1      -2.196  13.553  22.825  0.00  0.00    +0.000 A 
ATOM     17  C   UNL     1      -2.957  13.511  21.649  0.00  0.00    +0.000 A 
ATOM     18  C   UNL     1      -2.627  12.648  20.598  0.00  0.00    +0.000 A 
ATOM     19  C   UNL     1      -1.507  11.855  20.807  0.00  0.00    +0.000 A 
ATOM     20  O   UNL     1      -0.979  10.943  19.954  0.00  0.00    +0.000 OA
ENDBRANCH   6  12
BRANCH   1  21
ATOM     21  N   UNL     1       4.141   4.063  18.214  0.00  0.00    +0.000 N 
BRANCH  21  23
ATOM     22  C   UNL     1       5.207   4.135  15.979  0.00  0.00    +0.000 C 
ATOM     23  C   UNL     1       5.382   4.350  17.478  0.00  0.00    +0.000 C 
ENDBRANCH  21  23
BRANCH  21  24
ATOM     24  C   UNL     1       3.717   2.678  18.479  0.00  0.00    +0.000 C 
ATOM     25  C   UNL     1       2.497   2.168  17.734  0.00  0.00    +0.000 C 
ENDBRANCH  21  24
ENDBRANCH   1  21
TORSDOF 4
ENDMDL
MODEL 7
REMARK VINA RESULT:      -7.1      0.738      1.769
REMARK  Name = 
REMARK  6 active torsions:
REMARK  status: ('A' for Active; 'I' for Inactive)
REMARK    1  A    between atoms: C_1  and  C_2
REMARK    2  A    between atoms: C_2  and  N_3
REMARK    3  A    between atoms: N_3  and  C_4
REMARK    4  A    between atoms: N_3  and  C_6
REMARK    5  A    between atoms: C_4  and  C_5
REMARK    6  A    between atoms: C_11  and  C_12
REMARK                            x       y       z     vdW  Elec       q    Type
REMARK                         _______ _______ _______ _____ _____    ______ ____
ROOT
ATOM      1  C   UNL     1       2.239   7.601  18.685  0.00  0.00    +0.000 A 
ATOM      2  C   UNL     1       1.622   8.622  17.927  0.00  0.00    +0.000 A 
ATOM      3  C   UNL     1       0.859   9.650  18.505  0.00  0.00    +0.000 A 
ATOM      4  C   UNL     1       0.687   9.690  19.879  0.00  0.00    +0.000 A 
ATOM      5  C   UNL     1      -0.052  10.748  20.543  0.00  0.00    +0.000 A 
ATOM      6  C   UNL     1      -0.190  10.749  21.880  0.00  0.00    +0.000 A 
ATOM      7  C   UNL     1       0.385   9.658  22.711  0.00  0.00    +0.000 A 
ATOM      8  O   UNL     1       0.257   9.591  23.928  0.00  0.00    +0.000 OA
ATOM      9  O   UNL     1       1.106   8.673  22.036  0.00  0.00    +0.000 OA
ATOM     10  C   UNL     1       1.259   8.688  20.638  0.00  0.00    +0.000 A 
ATOM     11  C   UNL     1       2.017   7.660  20.069  0.00  0.00    +0.000 A 
ENDROOT
BRANCH   6  12
ATOM     12  C   UNL     1      -0.898  11.826  22.502  0.00  0.00    +0.000 A 
ATOM     13  N   UNL     1      -2.220  11.896  22.671  0.00  0.00    +0.000 NA
ATOM     14  C   UNL     1      -2.448  13.096  23.293  0.00  0.00    +0.000 A 
ATOM     15  C   UNL     1      -3.630  13.711  23.720  0.00  0.00    +0.000 A 
ATOM     16  C   UNL     1      -3.533  14.969  24.336  0.00  0.00    +0.000 A 
ATOM     17  C   UNL     1      -2.292  15.592  24.519  0.00  0.00    +0.000 A 
ATOM     18  C   UNL     1      -1.104  14.988  24.095  0.00  0.00    +0.000 A 
ATOM     19  C   UNL     1      -1.248  13.746  23.492  0.00  0.00    +0.000 A 
ATOM     20  O   UNL     1      -0.264  12.956  22.997  0.00  0.00    +0.000 OA
ENDBRANCH   6  12
BRANCH   1  21
ATOM     21  N   UNL     1       3.036   6.611  18.088  0.00  0.00    +0.000 N 
BRANCH  21  23
ATOM     22  C   UNL     1       2.831   4.473  19.322  0.00  0.00    +0.000 C 
ATOM     23  C   UNL     1       2.566   5.219  18.019  0.00  0.00    +0.000 C 
ENDBRANCH  21  23
BRANCH  21  24
ATOM     24  C   UNL     1       4.247   7.041  17.371  0.00  0.00    +0.000 C 
ATOM     25  C   UNL     1       5.505   6.216  17.572  0.00  0.00    +0.000 C 
ENDBRANCH  21  24
ENDBRANCH   1  21
TORSDOF 4
ENDMDL
MODEL 8
REMARK VINA RESULT:      -7.1      2.046      3.413
REMARK  Name = 
REMARK  6 active torsions:
REMARK  status: ('A' for Active; 'I' for Inactive)
REMARK    1  A    between atoms: C_1  and  C_2
REMARK    2  A    between atoms: C_2  and  N_3
REMARK    3  A    between atoms: N_3  and  C_4
REMARK    4  A    between atoms: N_3  and  C_6
REMARK    5  A    between atoms: C_4  and  C_5
REMARK    6  A    between atoms: C_11  and  C_12
REMARK                            x       y       z     vdW  Elec       q    Type
REMARK                         _______ _______ _______ _____ _____    ______ ____
ROOT
ATOM      1  C   UNL     1       3.479   5.008  18.908  0.00  0.00    +0.000 A 
ATOM      2  C   UNL     1       2.874   4.855  20.176  0.00  0.00    +0.000 A 
ATOM      3  C   UNL     1       2.113   5.864  20.790  0.00  0.00    +0.000 A 
ATOM      4  C   UNL     1       1.930   7.076  20.144  0.00  0.00    +0.000 A 
ATOM      5  C   UNL     1       1.120   8.143  20.702  0.00  0.00    +0.000 A 
ATOM      6  C   UNL     1       0.967   9.302  20.039  0.00  0.00    +0.000 A 
ATOM      7  C   UNL     1       1.639   9.532  18.733  0.00  0.00    +0.000 A 
ATOM      8  O   UNL     1       1.564  10.582  18.105  0.00  0.00    +0.000 OA
ATOM      9  O   UNL     1       2.390   8.473  18.222  0.00  0.00    +0.000 OA
ATOM     10  C   UNL     1       2.533   7.259  18.915  0.00  0.00    +0.000 A 
ATOM     11  C   UNL     1       3.294   6.259  18.301  0.00  0.00    +0.000 A 
ENDROOT
BRANCH   6  12
ATOM     12  C   UNL     1       0.135  10.319  20.605  0.00  0.00    +0.000 A 
ATOM     13  N   UNL     1       0.265  10.843  21.826  0.00  0.00    +0.000 NA
ATOM     14  C   UNL     1      -0.746  11.761  21.941  0.00  0.00    +0.000 A 
ATOM     15  C   UNL     1      -1.111  12.615  22.989  0.00  0.00    +0.000 A 
ATOM     16  C   UNL     1      -2.219  13.456  22.797  0.00  0.00    +0.000 A 
ATOM     17  C   UNL     1      -2.940  13.443  21.596  0.00  0.00    +0.000 A 
ATOM     18  C   UNL     1      -2.586  12.593  20.543  0.00  0.00    +0.000 A 
ATOM     19  C   UNL     1      -1.485  11.780  20.777  0.00  0.00    +0.000 A 
ATOM     20  O   UNL     1      -0.940  10.875  19.928  0.00  0.00    +0.000 OA
ENDBRANCH   6  12
BRANCH   1  21
ATOM     21  N   UNL     1       4.194   3.968  18.296  0.00  0.00    +0.000 N 
BRANCH  21  23
ATOM     22  C   UNL     1       2.372   2.432  17.619  0.00  0.00    +0.000 C 
ATOM     23  C   UNL     1       3.696   2.585  18.358  0.00  0.00    +0.000 C 
ENDBRANCH  21  23
BRANCH  21  24
ATOM     24  C   UNL     1       5.335   4.327  17.438  0.00  0.00    +0.000 C 
ATOM     25  C   UNL     1       5.163   4.154  15.940  0.00  0.00    +0.000 C 
ENDBRANCH  21  24
ENDBRANCH   1  21
TORSDOF 4
ENDMDL
MODEL 9
REMARK VINA RESULT:      -7.1      2.014      3.444
REMARK  Name = 
REMARK  6 active torsions:
REMARK  status: ('A' for Active; 'I' for Inactive)
REMARK    1  A    between atoms: C_1  and  C_2
REMARK    2  A    between atoms: C_2  and  N_3
REMARK    3  A    between atoms: N_3  and  C_4
REMARK    4  A    between atoms: N_3  and  C_6
REMARK    5  A    between atoms: C_4  and  C_5
REMARK    6  A    between atoms: C_11  and  C_12
REMARK                            x       y       z     vdW  Elec       q    Type
REMARK                         _______ _______ _______ _____ _____    ______ ____
ROOT
ATOM      1  C   UNL     1       3.156   4.930  18.659  0.00  0.00    +0.000 A 
ATOM      2  C   UNL     1       2.750   4.753  20.001  0.00  0.00    +0.000 A 
ATOM      3  C   UNL     1       2.143   5.769  20.759  0.00  0.00    +0.000 A 
ATOM      4  C   UNL     1       1.918   7.011  20.188  0.00  0.00    +0.000 A 
ATOM      5  C   UNL     1       1.256   8.088  20.900  0.00  0.00    +0.000 A 
ATOM      6  C   UNL     1       1.057   9.277  20.306  0.00  0.00    +0.000 A 
ATOM      7  C   UNL     1       1.527   9.530  18.918  0.00  0.00    +0.000 A 
ATOM      8  O   UNL     1       1.404  10.605  18.343  0.00  0.00    +0.000 OA
ATOM      9  O   UNL     1       2.139   8.461  18.263  0.00  0.00    +0.000 OA
ATOM     10  C   UNL     1       2.331   7.216  18.886  0.00  0.00    +0.000 A 
ATOM     11  C   UNL     1       2.939   6.210  18.128  0.00  0.00    +0.000 A 
ENDROOT
BRANCH   6  12
ATOM     12  C   UNL     1       0.372  10.306  21.028  0.00  0.00    +0.000 A 
ATOM     13  N   UNL     1      -0.686  10.129  21.823  0.00  0.00    +0.000 NA
ATOM     14  C   UNL     1      -1.010  11.378  22.285  0.00  0.00    +0.000 A 
ATOM     15  C   UNL     1      -2.022  11.815  23.148  0.00  0.00    +0.000 A 
ATOM     16  C   UNL     1      -2.095  13.187  23.435  0.00  0.00    +0.000 A 
ATOM     17  C   UNL     1      -1.186  14.095  22.876  0.00  0.00    +0.000 A 
ATOM     18  C   UNL     1      -0.171  13.670  22.012  0.00  0.00    +0.000 A 
ATOM     19  C   UNL     1      -0.137  12.305  21.757  0.00  0.00    +0.000 A 
ATOM     20  O   UNL     1       0.738  11.642  20.962  0.00  0.00    +0.000 OA
ENDBRANCH   6  12
BRANCH   1  21
ATOM     21  N   UNL     1       3.718   3.885  17.910  0.00  0.00    +0.000 N 
BRANCH  21  23
ATOM     22  C   UNL     1       3.474   1.452  18.310  0.00  0.00    +0.000 C 
ATOM     23  C   UNL     1       2.928   2.684  17.598  0.00  0.00    +0.000 C 
ENDBRANCH  21  23
BRANCH  21  24
ATOM     24  C   UNL     1       5.035   4.111  17.291  0.00  0.00    +0.000 C 
ATOM     25  C   UNL     1       5.077   4.264  15.781  0.00  0.00    +0.000 C 
ENDBRANCH  21  24
ENDBRANCH   1  21
TORSDOF 4
ENDMDL
