MODEL 1
REMARK VINA RESULT:      -9.8      0.000      0.000
REMARK  Name = 
REMARK  2 active torsions:
REMARK  status: ('A' for Active; 'I' for Inactive)
REMARK    1  A    between atoms: C_2  and  C_24
REMARK    2  A    between atoms: C_7  and  C_8
REMARK                            x       y       z     vdW  Elec       q    Type
REMARK                         _______ _______ _______ _____ _____    ______ ____
ROOT
ATOM      1  O   UNL     1       5.389   6.202  15.365  0.00  0.00    +0.000 OA
ATOM      2  C   UNL     1       5.416   4.992  15.168  0.00  0.00    +0.000 C 
ATOM      3  N   UNL     1       4.956   4.023  16.025  0.00  0.00    +0.000 N 
ATOM      4  C   UNL     1       4.322   4.323  17.201  0.00  0.00    +0.000 A 
ATOM      5  N   UNL     1       4.086   3.490  18.190  0.00  0.00    +0.000 NA
ATOM      6  N   UNL     1       3.394   4.206  19.149  0.00  0.00    +0.000 NA
ATOM      7  C   UNL     1       3.211   5.420  18.658  0.00  0.00    +0.000 A 
ATOM      8  O   UNL     1       3.795   5.563  17.424  0.00  0.00    +0.000 OA
ATOM      9  H   UNL     1       5.221   3.057  15.909  0.00  0.00    +0.000 HD
ENDROOT
BRANCH   7  10
ATOM     10  C   UNL     1       2.461   6.478  19.296  0.00  0.00    +0.000 A 
ATOM     11  N   UNL     1       2.316   7.632  18.705  0.00  0.00    +0.000 NA
ATOM     12  C   UNL     1       1.611   8.641  19.367  0.00  0.00    +0.000 A 
ATOM     13  C   UNL     1       1.454   9.880  18.750  0.00  0.00    +0.000 A 
ATOM     14  C   UNL     1       0.752  10.910  19.383  0.00  0.00    +0.000 A 
ATOM     15  C   UNL     1       0.192  10.726  20.659  0.00  0.00    +0.000 A 
ATOM     16  C   UNL     1      -0.520  11.757  21.296  0.00  0.00    +0.000 A 
ATOM     17  C   UNL     1      -1.071  11.571  22.564  0.00  0.00    +0.000 A 
ATOM     18  C   UNL     1      -0.917  10.353  23.214  0.00  0.00    +0.000 A 
ATOM     19  C   UNL     1      -0.216   9.316  22.593  0.00  0.00    +0.000 A 
ATOM     20  C   UNL     1       0.346   9.480  21.308  0.00  0.00    +0.000 A 
ATOM     21  C   UNL     1       1.056   8.462  20.632  0.00  0.00    +0.000 A 
ATOM     22  O   UNL     1       1.201   7.218  21.277  0.00  0.00    +0.000 OA
ATOM     23  C   UNL     1       1.894   6.188  20.689  0.00  0.00    +0.000 A 
ATOM     24  O   UNL     1       2.056   5.127  21.269  0.00  0.00    +0.000 OA
ENDBRANCH   7  10
BRANCH   2  25
ATOM     25  C   UNL     1       6.072   4.496  13.923  0.00  0.00    +0.000 A 
ATOM     26  C   UNL     1       7.220   5.158  13.468  0.00  0.00    +0.000 A 
ATOM     27  C   UNL     1       7.826   4.778  12.270  0.00  0.00    +0.000 A 
ATOM     28  C   UNL     1       7.283   3.740  11.514  0.00  0.00    +0.000 A 
ATOM     29  C   UNL     1       6.143   3.072  11.965  0.00  0.00    +0.000 A 
ATOM     30  C   UNL     1       5.535   3.444  13.169  0.00  0.00    +0.000 A 
ENDBRANCH   2  25
TORSDOF 2
ENDMDL
MODEL 2
REMARK VINA RESULT:      -9.8      1.378      2.209
REMARK  Name = 
REMARK  2 active torsions:
REMARK  status: ('A' for Active; 'I' for Inactive)
REMARK    1  A    between atoms: C_2  and  C_24
REMARK    2  A    between atoms: C_7  and  C_8
REMARK                            x       y       z     vdW  Elec       q    Type
REMARK                         _______ _______ _______ _____ _____    ______ ____
ROOT
ATOM      1  O   UNL     1       5.152   6.780  15.486  0.00  0.00    +0.000 OA
ATOM      2  C   UNL     1       5.238   5.558  15.489  0.00  0.00    +0.000 C 
ATOM      3  N   UNL     1       4.839   4.721  16.502  0.00  0.00    +0.000 N 
ATOM      4  C   UNL     1       4.206   5.179  17.626  0.00  0.00    +0.000 A 
ATOM      5  N   UNL     1       4.026   4.509  18.743  0.00  0.00    +0.000 NA
ATOM      6  N   UNL     1       3.311   5.338  19.587  0.00  0.00    +0.000 NA
ATOM      7  C   UNL     1       3.060   6.445  18.909  0.00  0.00    +0.000 A 
ATOM      8  O   UNL     1       3.620   6.412  17.656  0.00  0.00    +0.000 OA
ATOM      9  H   UNL     1       5.151   3.763  16.539  0.00  0.00    +0.000 HD
ENDROOT
BRANCH   7  10
ATOM     10  C   UNL     1       2.266   7.557  19.382  0.00  0.00    +0.000 A 
ATOM     11  N   UNL     1       1.798   7.562  20.600  0.00  0.00    +0.000 NA
ATOM     12  C   UNL     1       1.008   8.639  21.010  0.00  0.00    +0.000 A 
ATOM     13  C   UNL     1       0.497   8.654  22.306  0.00  0.00    +0.000 A 
ATOM     14  C   UNL     1      -0.294   9.719  22.750  0.00  0.00    +0.000 A 
ATOM     15  C   UNL     1      -0.598  10.797  21.901  0.00  0.00    +0.000 A 
ATOM     16  C   UNL     1      -1.388  11.872  22.346  0.00  0.00    +0.000 A 
ATOM     17  C   UNL     1      -1.690  12.938  21.498  0.00  0.00    +0.000 A 
ATOM     18  C   UNL     1      -1.210  12.944  20.194  0.00  0.00    +0.000 A 
ATOM     19  C   UNL     1      -0.421  11.886  19.738  0.00  0.00    +0.000 A 
ATOM     20  C   UNL     1      -0.098  10.799  20.579  0.00  0.00    +0.000 A 
ATOM     21  C   UNL     1       0.704   9.708  20.171  0.00  0.00    +0.000 A 
ATOM     22  O   UNL     1       1.210   9.717  18.856  0.00  0.00    +0.000 OA
ATOM     23  C   UNL     1       1.980   8.683  18.383  0.00  0.00    +0.000 A 
ATOM     24  O   UNL     1       2.379   8.670  17.231  0.00  0.00    +0.000 OA
ENDBRANCH   7  10
BRANCH   2  25
ATOM     25  C   UNL     1       5.901   4.896  14.327  0.00  0.00    +0.000 A 
ATOM     26  C   UNL     1       7.152   5.375  13.916  0.00  0.00    +0.000 A 
ATOM     27  C   UNL     1       7.777   4.838  12.790  0.00  0.00    +0.000 A 
ATOM     28  C   UNL     1       7.153   3.825  12.064  0.00  0.00    +0.000 A 
ATOM     29  C   UNL     1       5.910   3.338  12.472  0.00  0.00    +0.000 A 
ATOM     30  C   UNL     1       5.281   3.868  13.605  0.00  0.00    +0.000 A 
ENDBRANCH   2  25
TORSDOF 2
ENDMDL
MODEL 3
REMARK VINA RESULT:      -9.3      4.359      7.187
REMARK  Name = 
REMARK  2 active torsions:
REMARK  status: ('A' for Active; 'I' for Inactive)
REMARK    1  A    between atoms: C_2  and  C_24
REMARK    2  A    between atoms: C_7  and  C_8
REMARK                            x       y       z     vdW  Elec       q    Type
REMARK                         _______ _______ _______ _____ _____    ______ ____
ROOT
ATOM      1  O   UNL     1       2.434   7.550  19.112  0.00  0.00    +0.000 OA
ATOM      2  C   UNL     1       1.896   6.853  19.965  0.00  0.00    +0.000 C 
ATOM      3  N   UNL     1       1.279   7.304  21.107  0.00  0.00    +0.000 N 
ATOM      4  C   UNL     1       1.128   8.636  21.382  0.00  0.00    +0.000 A 
ATOM      5  N   UNL     1       0.796   9.155  22.543  0.00  0.00    +0.000 NA
ATOM      6  N   UNL     1       0.720  10.522  22.354  0.00  0.00    +0.000 NA
ATOM      7  C   UNL     1       0.964  10.743  21.074  0.00  0.00    +0.000 A 
ATOM      8  O   UNL     1       1.248   9.579  20.403  0.00  0.00    +0.000 OA
ATOM      9  H   UNL     1       1.072   6.676  21.868  0.00  0.00    +0.000 HD
ENDROOT
BRANCH   7  10
ATOM     10  C   UNL     1       0.909  12.031  20.418  0.00  0.00    +0.000 A 
ATOM     11  N   UNL     1       2.007  12.619  20.029  0.00  0.00    +0.000 NA
ATOM     12  C   UNL     1       1.916  13.878  19.428  0.00  0.00    +0.000 A 
ATOM     13  C   UNL     1       3.080  14.520  19.013  0.00  0.00    +0.000 A 
ATOM     14  C   UNL     1       3.024  15.778  18.405  0.00  0.00    +0.000 A 
ATOM     15  C   UNL     1       1.796  16.429  18.202  0.00  0.00    +0.000 A 
ATOM     16  C   UNL     1       1.735  17.692  17.586  0.00  0.00    +0.000 A 
ATOM     17  C   UNL     1       0.514  18.336  17.390  0.00  0.00    +0.000 A 
ATOM     18  C   UNL     1      -0.665  17.730  17.809  0.00  0.00    +0.000 A 
ATOM     19  C   UNL     1      -0.622  16.475  18.419  0.00  0.00    +0.000 A 
ATOM     20  C   UNL     1       0.602  15.801  18.623  0.00  0.00    +0.000 A 
ATOM     21  C   UNL     1       0.700  14.526  19.227  0.00  0.00    +0.000 A 
ATOM     22  O   UNL     1      -0.492  13.897  19.638  0.00  0.00    +0.000 OA
ATOM     23  C   UNL     1      -0.474  12.667  20.248  0.00  0.00    +0.000 A 
ATOM     24  O   UNL     1      -1.502  12.145  20.644  0.00  0.00    +0.000 OA
ENDBRANCH   7  10
BRANCH   2  25
ATOM     25  C   UNL     1       1.967   5.371  19.810  0.00  0.00    +0.000 A 
ATOM     26  C   UNL     1       2.119   4.844  18.521  0.00  0.00    +0.000 A 
ATOM     27  C   UNL     1       2.116   3.464  18.317  0.00  0.00    +0.000 A 
ATOM     28  C   UNL     1       1.953   2.601  19.400  0.00  0.00    +0.000 A 
ATOM     29  C   UNL     1       1.808   3.119  20.688  0.00  0.00    +0.000 A 
ATOM     30  C   UNL     1       1.817   4.502  20.899  0.00  0.00    +0.000 A 
ENDBRANCH   2  25
TORSDOF 2
ENDMDL
MODEL 4
REMARK VINA RESULT:      -9.3      4.702     11.686
REMARK  Name = 
REMARK  2 active torsions:
REMARK  status: ('A' for Active; 'I' for Inactive)
REMARK    1  A    between atoms: C_2  and  C_24
REMARK    2  A    between atoms: C_7  and  C_8
REMARK                            x       y       z     vdW  Elec       q    Type
REMARK                         _______ _______ _______ _____ _____    ______ ____
ROOT
ATOM      1  O   UNL     1      -3.943  11.916  23.317  0.00  0.00    +0.000 OA
ATOM      2  C   UNL     1      -3.958  13.136  23.204  0.00  0.00    +0.000 C 
ATOM      3  N   UNL     1      -2.894  13.929  22.849  0.00  0.00    +0.000 N 
ATOM      4  C   UNL     1      -1.678  13.409  22.493  0.00  0.00    +0.000 A 
ATOM      5  N   UNL     1      -0.549  14.074  22.395  0.00  0.00    +0.000 NA
ATOM      6  N   UNL     1       0.405  13.168  21.972  0.00  0.00    +0.000 NA
ATOM      7  C   UNL     1      -0.219  12.016  21.793  0.00  0.00    +0.000 A 
ATOM      8  O   UNL     1      -1.548  12.101  22.126  0.00  0.00    +0.000 OA
ATOM      9  H   UNL     1      -2.912  14.925  23.006  0.00  0.00    +0.000 HD
ENDROOT
BRANCH   7  10
ATOM     10  C   UNL     1       0.383  10.807  21.277  0.00  0.00    +0.000 A 
ATOM     11  N   UNL     1       0.709  10.719  20.017  0.00  0.00    +0.000 NA
ATOM     12  C   UNL     1       1.260   9.522  19.549  0.00  0.00    +0.000 A 
ATOM     13  C   UNL     1       1.607   9.413  18.205  0.00  0.00    +0.000 A 
ATOM     14  C   UNL     1       2.163   8.231  17.704  0.00  0.00    +0.000 A 
ATOM     15  C   UNL     1       2.381   7.123  18.541  0.00  0.00    +0.000 A 
ATOM     16  C   UNL     1       2.945   5.936  18.043  0.00  0.00    +0.000 A 
ATOM     17  C   UNL     1       3.155   4.837  18.876  0.00  0.00    +0.000 A 
ATOM     18  C   UNL     1       2.802   4.908  20.218  0.00  0.00    +0.000 A 
ATOM     19  C   UNL     1       2.244   6.082  20.730  0.00  0.00    +0.000 A 
ATOM     20  C   UNL     1       2.028   7.208  19.907  0.00  0.00    +0.000 A 
ATOM     21  C   UNL     1       1.475   8.422  20.376  0.00  0.00    +0.000 A 
ATOM     22  O   UNL     1       1.132   8.508  21.739  0.00  0.00    +0.000 OA
ATOM     23  C   UNL     1       0.574   9.649  22.262  0.00  0.00    +0.000 A 
ATOM     24  O   UNL     1       0.236   9.706  23.433  0.00  0.00    +0.000 OA
ENDBRANCH   7  10
BRANCH   2  25
ATOM     25  C   UNL     1      -5.216  13.861  23.552  0.00  0.00    +0.000 A 
ATOM     26  C   UNL     1      -6.346  13.104  23.889  0.00  0.00    +0.000 A 
ATOM     27  C   UNL     1      -7.563  13.732  24.149  0.00  0.00    +0.000 A 
ATOM     28  C   UNL     1      -7.662  15.121  24.065  0.00  0.00    +0.000 A 
ATOM     29  C   UNL     1      -6.539  15.881  23.737  0.00  0.00    +0.000 A 
ATOM     30  C   UNL     1      -5.313  15.256  23.482  0.00  0.00    +0.000 A 
ENDBRANCH   2  25
TORSDOF 2
ENDMDL
MODEL 5
REMARK VINA RESULT:      -9.0      3.504     10.548
REMARK  Name = 
REMARK  2 active torsions:
REMARK  status: ('A' for Active; 'I' for Inactive)
REMARK    1  A    between atoms: C_2  and  C_24
REMARK    2  A    between atoms: C_7  and  C_8
REMARK                            x       y       z     vdW  Elec       q    Type
REMARK                         _______ _______ _______ _____ _____    ______ ____
ROOT
ATOM      1  O   UNL     1      -0.567  10.911  23.151  0.00  0.00    +0.000 OA
ATOM      2  C   UNL     1      -0.931  11.943  22.598  0.00  0.00    +0.000 C 
ATOM      3  N   UNL     1      -0.550  12.370  21.350  0.00  0.00    +0.000 N 
ATOM      4  C   UNL     1       0.247  11.619  20.529  0.00  0.00    +0.000 A 
ATOM      5  N   UNL     1       0.868  12.043  19.451  0.00  0.00    +0.000 NA
ATOM      6  N   UNL     1       1.519  10.946  18.916  0.00  0.00    +0.000 NA
ATOM      7  C   UNL     1       1.211   9.912  19.680  0.00  0.00    +0.000 A 
ATOM      8  O   UNL     1       0.415  10.280  20.737  0.00  0.00    +0.000 OA
ATOM      9  H   UNL     1      -0.695  13.325  21.060  0.00  0.00    +0.000 HD
ENDROOT
BRANCH   7  10
ATOM     10  C   UNL     1       1.612   8.544  19.442  0.00  0.00    +0.000 A 
ATOM     11  N   UNL     1       1.496   7.650  20.385  0.00  0.00    +0.000 NA
ATOM     12  C   UNL     1       1.924   6.344  20.127  0.00  0.00    +0.000 A 
ATOM     13  C   UNL     1       1.812   5.381  21.126  0.00  0.00    +0.000 A 
ATOM     14  C   UNL     1       2.227   4.064  20.900  0.00  0.00    +0.000 A 
ATOM     15  C   UNL     1       2.773   3.681  19.663  0.00  0.00    +0.000 A 
ATOM     16  C   UNL     1       3.186   2.357  19.430  0.00  0.00    +0.000 A 
ATOM     17  C   UNL     1       3.731   1.982  18.203  0.00  0.00    +0.000 A 
ATOM     18  C   UNL     1       3.873   2.924  17.191  0.00  0.00    +0.000 A 
ATOM     19  C   UNL     1       3.464   4.242  17.404  0.00  0.00    +0.000 A 
ATOM     20  C   UNL     1       2.905   4.643  18.637  0.00  0.00    +0.000 A 
ATOM     21  C   UNL     1       2.466   5.962  18.902  0.00  0.00    +0.000 A 
ATOM     22  O   UNL     1       2.590   6.917  17.875  0.00  0.00    +0.000 OA
ATOM     23  C   UNL     1       2.203   8.221  18.066  0.00  0.00    +0.000 A 
ATOM     24  O   UNL     1       2.353   9.057  17.191  0.00  0.00    +0.000 OA
ENDBRANCH   7  10
BRANCH   2  25
ATOM     25  C   UNL     1      -1.813  12.876  23.360  0.00  0.00    +0.000 A 
ATOM     26  C   UNL     1      -1.284  14.110  23.761  0.00  0.00    +0.000 A 
ATOM     27  C   UNL     1      -2.044  14.984  24.538  0.00  0.00    +0.000 A 
ATOM     28  C   UNL     1      -3.335  14.627  24.926  0.00  0.00    +0.000 A 
ATOM     29  C   UNL     1      -3.871  13.403  24.524  0.00  0.00    +0.000 A 
ATOM     30  C   UNL     1      -3.115  12.525  23.738  0.00  0.00    +0.000 A 
ENDBRANCH   2  25
TORSDOF 2
ENDMDL
MODEL 6
REMARK VINA RESULT:      -9.0      3.959     10.088
REMARK  Name = 
REMARK  2 active torsions:
REMARK  status: ('A' for Active; 'I' for Inactive)
REMARK    1  A    between atoms: C_2  and  C_24
REMARK    2  A    between atoms: C_7  and  C_8
REMARK                            x       y       z     vdW  Elec       q    Type
REMARK                         _______ _______ _______ _____ _____    ______ ____
ROOT
ATOM      1  O   UNL     1      -3.244  10.160  18.123  0.00  0.00    +0.000 OA
ATOM      2  C   UNL     1      -3.331  11.259  18.660  0.00  0.00    +0.000 C 
ATOM      3  N   UNL     1      -2.421  11.809  19.529  0.00  0.00    +0.000 N 
ATOM      4  C   UNL     1      -1.236  11.196  19.836  0.00  0.00    +0.000 A 
ATOM      5  N   UNL     1      -0.437  11.506  20.833  0.00  0.00    +0.000 NA
ATOM      6  N   UNL     1       0.653  10.661  20.740  0.00  0.00    +0.000 NA
ATOM      7  C   UNL     1       0.469   9.921  19.660  0.00  0.00    +0.000 A 
ATOM      8  O   UNL     1      -0.728  10.203  19.048  0.00  0.00    +0.000 OA
ATOM      9  H   UNL     1      -2.665  12.598  20.108  0.00  0.00    +0.000 HD
ENDROOT
BRANCH   7  10
ATOM     10  C   UNL     1       1.406   8.953  19.136  0.00  0.00    +0.000 A 
ATOM     11  N   UNL     1       1.615   7.830  19.768  0.00  0.00    +0.000 NA
ATOM     12  C   UNL     1       2.552   6.933  19.247  0.00  0.00    +0.000 A 
ATOM     13  C   UNL     1       2.790   5.734  19.913  0.00  0.00    +0.000 A 
ATOM     14  C   UNL     1       3.718   4.812  19.418  0.00  0.00    +0.000 A 
ATOM     15  C   UNL     1       4.438   5.074  18.240  0.00  0.00    +0.000 A 
ATOM     16  C   UNL     1       5.368   4.148  17.735  0.00  0.00    +0.000 A 
ATOM     17  C   UNL     1       6.084   4.413  16.568  0.00  0.00    +0.000 A 
ATOM     18  C   UNL     1       5.882   5.609  15.889  0.00  0.00    +0.000 A 
ATOM     19  C   UNL     1       4.960   6.538  16.374  0.00  0.00    +0.000 A 
ATOM     20  C   UNL     1       4.220   6.288  17.551  0.00  0.00    +0.000 A 
ATOM     21  C   UNL     1       3.268   7.191  18.080  0.00  0.00    +0.000 A 
ATOM     22  O   UNL     1       3.046   8.397  17.388  0.00  0.00    +0.000 OA
ATOM     23  C   UNL     1       2.150   9.329  17.851  0.00  0.00    +0.000 A 
ATOM     24  O   UNL     1       1.992  10.392  17.274  0.00  0.00    +0.000 OA
ENDBRANCH   7  10
BRANCH   2  25
ATOM     25  C   UNL     1      -4.566  12.063  18.424  0.00  0.00    +0.000 A 
ATOM     26  C   UNL     1      -5.110  12.776  19.500  0.00  0.00    +0.000 A 
ATOM     27  C   UNL     1      -6.304  13.482  19.347  0.00  0.00    +0.000 A 
ATOM     28  C   UNL     1      -6.966  13.472  18.120  0.00  0.00    +0.000 A 
ATOM     29  C   UNL     1      -6.426  12.769  17.042  0.00  0.00    +0.000 A 
ATOM     30  C   UNL     1      -5.225  12.065  17.187  0.00  0.00    +0.000 A 
ENDBRANCH   2  25
TORSDOF 2
ENDMDL
MODEL 7
REMARK VINA RESULT:      -8.7      3.767     10.578
REMARK  Name = 
REMARK  2 active torsions:
REMARK  status: ('A' for Active; 'I' for Inactive)
REMARK    1  A    between atoms: C_2  and  C_24
REMARK    2  A    between atoms: C_7  and  C_8
REMARK                            x       y       z     vdW  Elec       q    Type
REMARK                         _______ _______ _______ _____ _____    ______ ____
ROOT
ATOM      1  O   UNL     1      -0.711  11.812  23.228  0.00  0.00    +0.000 OA
ATOM      2  C   UNL     1      -1.231  12.684  22.541  0.00  0.00    +0.000 C 
ATOM      3  N   UNL     1      -1.014  12.897  21.202  0.00  0.00    +0.000 N 
ATOM      4  C   UNL     1      -0.222  12.075  20.447  0.00  0.00    +0.000 A 
ATOM      5  N   UNL     1       0.249  12.337  19.249  0.00  0.00    +0.000 NA
ATOM      6  N   UNL     1       0.960  11.219  18.853  0.00  0.00    +0.000 NA
ATOM      7  C   UNL     1       0.835  10.327  19.820  0.00  0.00    +0.000 A 
ATOM      8  O   UNL     1       0.105  10.820  20.874  0.00  0.00    +0.000 OA
ATOM      9  H   UNL     1      -1.286  13.762  20.762  0.00  0.00    +0.000 HD
ENDROOT
BRANCH   7  10
ATOM     10  C   UNL     1       1.354   8.978  19.791  0.00  0.00    +0.000 A 
ATOM     11  N   UNL     1       2.083   8.575  18.787  0.00  0.00    +0.000 NA
ATOM     12  C   UNL     1       2.541   7.254  18.779  0.00  0.00    +0.000 A 
ATOM     13  C   UNL     1       3.316   6.808  17.711  0.00  0.00    +0.000 A 
ATOM     14  C   UNL     1       3.793   5.494  17.673  0.00  0.00    +0.000 A 
ATOM     15  C   UNL     1       3.500   4.589  18.707  0.00  0.00    +0.000 A 
ATOM     16  C   UNL     1       3.982   3.268  18.676  0.00  0.00    +0.000 A 
ATOM     17  C   UNL     1       3.685   2.372  19.702  0.00  0.00    +0.000 A 
ATOM     18  C   UNL     1       2.900   2.781  20.773  0.00  0.00    +0.000 A 
ATOM     19  C   UNL     1       2.416   4.089  20.822  0.00  0.00    +0.000 A 
ATOM     20  C   UNL     1       2.708   5.016  19.797  0.00  0.00    +0.000 A 
ATOM     21  C   UNL     1       2.251   6.354  19.802  0.00  0.00    +0.000 A 
ATOM     22  O   UNL     1       1.470   6.781  20.893  0.00  0.00    +0.000 OA
ATOM     23  C   UNL     1       0.976   8.060  20.958  0.00  0.00    +0.000 A 
ATOM     24  O   UNL     1       0.262   8.415  21.881  0.00  0.00    +0.000 OA
ENDBRANCH   7  10
BRANCH   2  25
ATOM     25  C   UNL     1      -2.132  13.665  23.214  0.00  0.00    +0.000 A 
ATOM     26  C   UNL     1      -1.574  14.545  24.151  0.00  0.00    +0.000 A 
ATOM     27  C   UNL     1      -2.387  15.430  24.859  0.00  0.00    +0.000 A 
ATOM     28  C   UNL     1      -3.764  15.436  24.643  0.00  0.00    +0.000 A 
ATOM     29  C   UNL     1      -4.327  14.566  23.706  0.00  0.00    +0.000 A 
ATOM     30  C   UNL     1      -3.515  13.682  22.987  0.00  0.00    +0.000 A 
ENDBRANCH   2  25
TORSDOF 2
ENDMDL
MODEL 8
REMARK VINA RESULT:      -8.6      4.285      7.147
REMARK  Name = 
REMARK  2 active torsions:
REMARK  status: ('A' for Active; 'I' for Inactive)
REMARK    1  A    between atoms: C_2  and  C_24
REMARK    2  A    between atoms: C_7  and  C_8
REMARK                            x       y       z     vdW  Elec       q    Type
REMARK                         _______ _______ _______ _____ _____    ______ ____
ROOT
ATOM      1  O   UNL     1       2.410   7.993  18.867  0.00  0.00    +0.000 OA
ATOM      2  C   UNL     1       2.001   7.216  19.722  0.00  0.00    +0.000 C 
ATOM      3  N   UNL     1       1.435   7.561  20.925  0.00  0.00    +0.000 N 
ATOM      4  C   UNL     1       1.187   8.861  21.273  0.00  0.00    +0.000 A 
ATOM      5  N   UNL     1       0.900   9.299  22.478  0.00  0.00    +0.000 NA
ATOM      6  N   UNL     1       0.689  10.661  22.361  0.00  0.00    +0.000 NA
ATOM      7  C   UNL     1       0.815  10.955  21.078  0.00  0.00    +0.000 A 
ATOM      8  O   UNL     1       1.150   9.851  20.334  0.00  0.00    +0.000 OA
ATOM      9  H   UNL     1       1.342   6.886  21.668  0.00  0.00    +0.000 HD
ENDROOT
BRANCH   7  10
ATOM     10  C   UNL     1       0.597  12.258  20.490  0.00  0.00    +0.000 A 
ATOM     11  N   UNL     1       1.577  12.888  19.902  0.00  0.00    +0.000 NA
ATOM     12  C   UNL     1       1.335  14.159  19.374  0.00  0.00    +0.000 A 
ATOM     13  C   UNL     1       2.374  14.845  18.749  0.00  0.00    +0.000 A 
ATOM     14  C   UNL     1       2.165  16.117  18.207  0.00  0.00    +0.000 A 
ATOM     15  C   UNL     1       0.907  16.739  18.283  0.00  0.00    +0.000 A 
ATOM     16  C   UNL     1       0.693  18.015  17.734  0.00  0.00    +0.000 A 
ATOM     17  C   UNL     1      -0.557  18.630  17.816  0.00  0.00    +0.000 A 
ATOM     18  C   UNL     1      -1.609  17.979  18.449  0.00  0.00    +0.000 A 
ATOM     19  C   UNL     1      -1.413  16.709  18.996  0.00  0.00    +0.000 A 
ATOM     20  C   UNL     1      -0.159  16.065  18.921  0.00  0.00    +0.000 A 
ATOM     21  C   UNL     1       0.090  14.778  19.450  0.00  0.00    +0.000 A 
ATOM     22  O   UNL     1      -0.976  14.104  20.077  0.00  0.00    +0.000 OA
ATOM     23  C   UNL     1      -0.805  12.859  20.630  0.00  0.00    +0.000 A 
ATOM     24  O   UNL     1      -1.717  12.297  21.212  0.00  0.00    +0.000 OA
ENDBRANCH   7  10
BRANCH   2  25
ATOM     25  C   UNL     1       2.192   5.754  19.492  0.00  0.00    +0.000 A 
ATOM     26  C   UNL     1       2.140   4.896  20.599  0.00  0.00    +0.000 A 
ATOM     27  C   UNL     1       2.385   3.531  20.445  0.00  0.00    +0.000 A 
ATOM     28  C   UNL     1       2.692   3.016  19.186  0.00  0.00    +0.000 A 
ATOM     29  C   UNL     1       2.738   3.864  18.078  0.00  0.00    +0.000 A 
ATOM     30  C   UNL     1       2.486   5.233  18.225  0.00  0.00    +0.000 A 
ENDBRANCH   2  25
TORSDOF 2
ENDMDL
MODEL 9
REMARK VINA RESULT:      -8.6      2.816     10.038
REMARK  Name = 
REMARK  2 active torsions:
REMARK  status: ('A' for Active; 'I' for Inactive)
REMARK    1  A    between atoms: C_2  and  C_24
REMARK    2  A    between atoms: C_7  and  C_8
REMARK                            x       y       z     vdW  Elec       q    Type
REMARK                         _______ _______ _______ _____ _____    ______ ____
ROOT
ATOM      1  O   UNL     1      -1.653  10.969  19.040  0.00  0.00    +0.000 OA
ATOM      2  C   UNL     1      -1.643  11.541  20.124  0.00  0.00    +0.000 C 
ATOM      3  N   UNL     1      -0.935  11.156  21.236  0.00  0.00    +0.000 N 
ATOM      4  C   UNL     1      -0.071  10.095  21.224  0.00  0.00    +0.000 A 
ATOM      5  N   UNL     1       0.440   9.499  22.278  0.00  0.00    +0.000 NA
ATOM      6  N   UNL     1       1.284   8.513  21.801  0.00  0.00    +0.000 NA
ATOM      7  C   UNL     1       1.269   8.606  20.482  0.00  0.00    +0.000 A 
ATOM      8  O   UNL     1       0.409   9.586  20.052  0.00  0.00    +0.000 OA
ATOM      9  H   UNL     1      -1.155  11.527  22.147  0.00  0.00    +0.000 HD
ENDROOT
BRANCH   7  10
ATOM     10  C   UNL     1       2.072   7.816  19.576  0.00  0.00    +0.000 A 
ATOM     11  N   UNL     1       2.391   6.587  19.878  0.00  0.00    +0.000 NA
ATOM     12  C   UNL     1       3.196   5.867  18.991  0.00  0.00    +0.000 A 
ATOM     13  C   UNL     1       3.548   4.556  19.303  0.00  0.00    +0.000 A 
ATOM     14  C   UNL     1       4.349   3.805  18.436  0.00  0.00    +0.000 A 
ATOM     15  C   UNL     1       4.823   4.354  17.233  0.00  0.00    +0.000 A 
ATOM     16  C   UNL     1       5.624   3.601  16.356  0.00  0.00    +0.000 A 
ATOM     17  C   UNL     1       6.096   4.151  15.164  0.00  0.00    +0.000 A 
ATOM     18  C   UNL     1       5.776   5.462  14.832  0.00  0.00    +0.000 A 
ATOM     19  C   UNL     1       4.979   6.223  15.690  0.00  0.00    +0.000 A 
ATOM     20  C   UNL     1       4.486   5.685  16.899  0.00  0.00    +0.000 A 
ATOM     21  C   UNL     1       3.668   6.408  17.798  0.00  0.00    +0.000 A 
ATOM     22  O   UNL     1       3.325   7.732  17.460  0.00  0.00    +0.000 OA
ATOM     23  C   UNL     1       2.550   8.501  18.292  0.00  0.00    +0.000 A 
ATOM     24  O   UNL     1       2.292   9.662  18.019  0.00  0.00    +0.000 OA
ENDBRANCH   7  10
BRANCH   2  25
ATOM     25  C   UNL     1      -2.532  12.727  20.302  0.00  0.00    +0.000 A 
ATOM     26  C   UNL     1      -1.962  13.920  20.766  0.00  0.00    +0.000 A 
ATOM     27  C   UNL     1      -2.764  15.033  21.019  0.00  0.00    +0.000 A 
ATOM     28  C   UNL     1      -4.142  14.959  20.818  0.00  0.00    +0.000 A 
ATOM     29  C   UNL     1      -4.715  13.775  20.350  0.00  0.00    +0.000 A 
ATOM     30  C   UNL     1      -3.915  12.658  20.088  0.00  0.00    +0.000 A 
ENDBRANCH   2  25
TORSDOF 2
ENDMDL
