MODEL 1
REMARK VINA RESULT:      -8.6      0.000      0.000
REMARK  Name = 
REMARK  5 active torsions:
REMARK  status: ('A' for Active; 'I' for Inactive)
REMARK    1  A    between atoms: C_6  and  N_7
REMARK    2  A    between atoms: N_8  and  C_9
REMARK    3  A    between atoms: C_11  and  C_12
REMARK    4  A    between atoms: C_17  and  C_18
REMARK    5  A    between atoms: C_24  and  O_25
REMARK                            x       y       z     vdW  Elec       q    Type
REMARK                         _______ _______ _______ _____ _____    ______ ____
ROOT
ATOM      1  C   UNL     1       2.923   6.618  18.039  0.00  0.00    +0.000 A 
ATOM      2  C   UNL     1       2.260   5.397  18.222  0.00  0.00    +0.000 A 
ATOM      3  C   UNL     1       2.837   4.170  17.850  0.00  0.00    +0.000 A 
ATOM      4  C   UNL     1       4.082   4.179  17.213  0.00  0.00    +0.000 A 
ATOM      5  C   UNL     1       4.777   5.382  17.010  0.00  0.00    +0.000 A 
ATOM      6  C   UNL     1       4.188   6.595  17.426  0.00  0.00    +0.000 A 
ENDROOT
BRANCH   3   7
ATOM      7  C   UNL     1       2.150   2.874  18.206  0.00  0.00    +0.000 C 
ATOM      8  F   UNL     1       2.543   2.389  19.418  0.00  0.00    +0.000 F 
ATOM      9  F   UNL     1       0.796   2.987  18.265  0.00  0.00    +0.000 F 
ATOM     10  F   UNL     1       2.408   1.882  17.311  0.00  0.00    +0.000 F 
ENDBRANCH   3   7
BRANCH   5  11
ATOM     11  C   UNL     1       6.159   5.343  16.395  0.00  0.00    +0.000 C 
ATOM     12  F   UNL     1       6.807   4.170  16.646  0.00  0.00    +0.000 F 
ATOM     13  F   UNL     1       6.137   5.472  15.043  0.00  0.00    +0.000 F 
ATOM     14  F   UNL     1       6.979   6.322  16.861  0.00  0.00    +0.000 F 
ENDBRANCH   5  11
BRANCH   1  16
ATOM     15  N   UNL     1       1.994   7.741  19.731  0.00  0.00    +0.000 NA
ATOM     16  N   UNL     1       2.272   7.778  18.515  0.00  0.00    +0.000 NA
BRANCH  15  22
ATOM     17  O   UNL     1      -0.732  11.651  23.091  0.00  0.00    +0.000 OA
ATOM     18  C   UNL     1      -0.209  10.970  22.206  0.00  0.00    +0.000 A 
ATOM     19  C   UNL     1      -0.338  11.463  20.825  0.00  0.00    +0.000 A 
ATOM     20  C   UNL     1       0.073  10.931  19.667  0.00  0.00    +0.000 A 
ATOM     21  C   UNL     1       0.776   9.710  19.420  0.00  0.00    +0.000 A 
ATOM     22  C   UNL     1       1.253   8.783  20.273  0.00  0.00    +0.000 A 
ATOM     23  C   UNL     1       1.129   8.843  21.724  0.00  0.00    +0.000 A 
ATOM     24  C   UNL     1       0.531   9.712  22.558  0.00  0.00    +0.000 A 
BRANCH  24  25
ATOM     25  O   UNL     1       0.582   9.458  23.933  0.00  0.00    +0.000 OA
ATOM     26  H   UNL     1       0.849  10.256  24.414  0.00  0.00    +0.000 HD
ENDBRANCH  24  25
ENDBRANCH  15  22
ENDBRANCH   1  16
TORSDOF 5
ENDMDL
MODEL 2
REMARK VINA RESULT:      -8.6      0.482      3.490
REMARK  Name = 
REMARK  5 active torsions:
REMARK  status: ('A' for Active; 'I' for Inactive)
REMARK    1  A    between atoms: C_6  and  N_7
REMARK    2  A    between atoms: N_8  and  C_9
REMARK    3  A    between atoms: C_11  and  C_12
REMARK    4  A    between atoms: C_17  and  C_18
REMARK    5  A    between atoms: C_24  and  O_25
REMARK                            x       y       z     vdW  Elec       q    Type
REMARK                         _______ _______ _______ _____ _____    ______ ____
ROOT
ATOM      1  C   UNL     1       2.690   6.476  18.320  0.00  0.00    +0.000 A 
ATOM      2  C   UNL     1       3.854   6.554  17.542  0.00  0.00    +0.000 A 
ATOM      3  C   UNL     1       4.469   5.413  16.999  0.00  0.00    +0.000 A 
ATOM      4  C   UNL     1       3.939   4.155  17.306  0.00  0.00    +0.000 A 
ATOM      5  C   UNL     1       2.776   4.035  18.084  0.00  0.00    +0.000 A 
ATOM      6  C   UNL     1       2.161   5.201  18.585  0.00  0.00    +0.000 A 
ENDROOT
BRANCH   3   7
ATOM      7  C   UNL     1       5.628   5.561  16.045  0.00  0.00    +0.000 C 
ATOM      8  F   UNL     1       6.672   6.246  16.591  0.00  0.00    +0.000 F 
ATOM      9  F   UNL     1       6.134   4.369  15.631  0.00  0.00    +0.000 F 
ATOM     10  F   UNL     1       5.292   6.242  14.916  0.00  0.00    +0.000 F 
ENDBRANCH   3   7
BRANCH   5  11
ATOM     11  C   UNL     1       2.185   2.662  18.322  0.00  0.00    +0.000 C 
ATOM     12  F   UNL     1       2.687   2.067  19.441  0.00  0.00    +0.000 F 
ATOM     13  F   UNL     1       0.837   2.692  18.492  0.00  0.00    +0.000 F 
ATOM     14  F   UNL     1       2.424   1.794  17.304  0.00  0.00    +0.000 F 
ENDBRANCH   5  11
BRANCH   1  16
ATOM     15  N   UNL     1       1.790   7.701  19.956  0.00  0.00    +0.000 NA
ATOM     16  N   UNL     1       2.126   7.697  18.753  0.00  0.00    +0.000 NA
BRANCH  15  22
ATOM     17  O   UNL     1      -0.879  11.798  23.134  0.00  0.00    +0.000 OA
ATOM     18  C   UNL     1      -0.317  11.092  22.293  0.00  0.00    +0.000 A 
ATOM     19  C   UNL     1      -0.143  11.671  20.951  0.00  0.00    +0.000 A 
ATOM     20  C   UNL     1       0.375  11.145  19.834  0.00  0.00    +0.000 A 
ATOM     21  C   UNL     1       0.931   9.845  19.608  0.00  0.00    +0.000 A 
ATOM     22  C   UNL     1       1.123   8.814  20.453  0.00  0.00    +0.000 A 
ATOM     23  C   UNL     1       0.769   8.815  21.866  0.00  0.00    +0.000 A 
ATOM     24  C   UNL     1       0.169   9.720  22.659  0.00  0.00    +0.000 A 
BRANCH  24  25
ATOM     25  O   UNL     1      -0.046   9.390  24.003  0.00  0.00    +0.000 OA
ATOM     26  H   UNL     1      -0.932   9.668  24.280  0.00  0.00    +0.000 HD
ENDBRANCH  24  25
ENDBRANCH  15  22
ENDBRANCH   1  16
TORSDOF 5
ENDMDL
MODEL 3
REMARK VINA RESULT:      -8.6      0.455      1.188
REMARK  Name = 
REMARK  5 active torsions:
REMARK  status: ('A' for Active; 'I' for Inactive)
REMARK    1  A    between atoms: C_6  and  N_7
REMARK    2  A    between atoms: N_8  and  C_9
REMARK    3  A    between atoms: C_11  and  C_12
REMARK    4  A    between atoms: C_17  and  C_18
REMARK    5  A    between atoms: C_24  and  O_25
REMARK                            x       y       z     vdW  Elec       q    Type
REMARK                         _______ _______ _______ _____ _____    ______ ____
ROOT
ATOM      1  C   UNL     1       3.138   6.417  18.161  0.00  0.00    +0.000 A 
ATOM      2  C   UNL     1       2.380   5.245  18.285  0.00  0.00    +0.000 A 
ATOM      3  C   UNL     1       2.896   3.982  17.943  0.00  0.00    +0.000 A 
ATOM      4  C   UNL     1       4.181   3.908  17.395  0.00  0.00    +0.000 A 
ATOM      5  C   UNL     1       4.970   5.060  17.253  0.00  0.00    +0.000 A 
ATOM      6  C   UNL     1       4.439   6.309  17.638  0.00  0.00    +0.000 A 
ENDROOT
BRANCH   3   7
ATOM      7  C   UNL     1       2.098   2.736  18.238  0.00  0.00    +0.000 C 
ATOM      8  F   UNL     1       2.304   1.752  17.317  0.00  0.00    +0.000 F 
ATOM      9  F   UNL     1       2.391   2.189  19.448  0.00  0.00    +0.000 F 
ATOM     10  F   UNL     1       0.756   2.962  18.240  0.00  0.00    +0.000 F 
ENDBRANCH   3   7
BRANCH   5  11
ATOM     11  C   UNL     1       6.386   4.928  16.736  0.00  0.00    +0.000 C 
ATOM     12  F   UNL     1       6.943   6.133  16.428  0.00  0.00    +0.000 F 
ATOM     13  F   UNL     1       7.223   4.352  17.639  0.00  0.00    +0.000 F 
ATOM     14  F   UNL     1       6.473   4.182  15.604  0.00  0.00    +0.000 F 
ENDBRANCH   5  11
BRANCH   1  16
ATOM     15  N   UNL     1       2.061   7.554  19.753  0.00  0.00    +0.000 NA
ATOM     16  N   UNL     1       2.536   7.618  18.601  0.00  0.00    +0.000 NA
BRANCH  15  22
ATOM     17  O   UNL     1      -0.596  11.689  22.894  0.00  0.00    +0.000 OA
ATOM     18  C   UNL     1      -0.076  10.955  22.049  0.00  0.00    +0.000 A 
ATOM     19  C   UNL     1      -0.144  11.404  20.648  0.00  0.00    +0.000 A 
ATOM     20  C   UNL     1       0.276  10.816  19.522  0.00  0.00    +0.000 A 
ATOM     21  C   UNL     1       0.935   9.558  19.338  0.00  0.00    +0.000 A 
ATOM     22  C   UNL     1       1.348   8.644  20.237  0.00  0.00    +0.000 A 
ATOM     23  C   UNL     1       1.185   8.760  21.680  0.00  0.00    +0.000 A 
ATOM     24  C   UNL     1       0.601   9.682  22.465  0.00  0.00    +0.000 A 
BRANCH  24  25
ATOM     25  O   UNL     1       0.601   9.475  23.850  0.00  0.00    +0.000 OA
ATOM     26  H   UNL     1       0.582  10.324  24.317  0.00  0.00    +0.000 HD
ENDBRANCH  24  25
ENDBRANCH  15  22
ENDBRANCH   1  16
TORSDOF 5
ENDMDL
MODEL 4
REMARK VINA RESULT:      -8.6      0.124      1.048
REMARK  Name = 
REMARK  5 active torsions:
REMARK  status: ('A' for Active; 'I' for Inactive)
REMARK    1  A    between atoms: C_6  and  N_7
REMARK    2  A    between atoms: N_8  and  C_9
REMARK    3  A    between atoms: C_11  and  C_12
REMARK    4  A    between atoms: C_17  and  C_18
REMARK    5  A    between atoms: C_24  and  O_25
REMARK                            x       y       z     vdW  Elec       q    Type
REMARK                         _______ _______ _______ _____ _____    ______ ____
ROOT
ATOM      1  C   UNL     1       3.047   6.677  18.002  0.00  0.00    +0.000 A 
ATOM      2  C   UNL     1       2.353   5.472  18.180  0.00  0.00    +0.000 A 
ATOM      3  C   UNL     1       2.894   4.234  17.793  0.00  0.00    +0.000 A 
ATOM      4  C   UNL     1       4.134   4.216  17.145  0.00  0.00    +0.000 A 
ATOM      5  C   UNL     1       4.858   5.402  16.945  0.00  0.00    +0.000 A 
ATOM      6  C   UNL     1       4.306   6.626  17.377  0.00  0.00    +0.000 A 
ENDROOT
BRANCH   3   7
ATOM      7  C   UNL     1       2.177   2.953  18.145  0.00  0.00    +0.000 C 
ATOM      8  F   UNL     1       0.828   3.120  18.245  0.00  0.00    +0.000 F 
ATOM      9  F   UNL     1       2.368   1.966  17.229  0.00  0.00    +0.000 F 
ATOM     10  F   UNL     1       2.575   2.442  19.341  0.00  0.00    +0.000 F 
ENDBRANCH   3   7
BRANCH   5  11
ATOM     11  C   UNL     1       6.233   5.331  16.318  0.00  0.00    +0.000 C 
ATOM     12  F   UNL     1       6.184   5.327  14.955  0.00  0.00    +0.000 F 
ATOM     13  F   UNL     1       7.021   6.385  16.657  0.00  0.00    +0.000 F 
ATOM     14  F   UNL     1       6.921   4.211  16.664  0.00  0.00    +0.000 F 
ENDBRANCH   5  11
BRANCH   1  16
ATOM     15  N   UNL     1       1.998   7.744  19.659  0.00  0.00    +0.000 NA
ATOM     16  N   UNL     1       2.430   7.850  18.493  0.00  0.00    +0.000 NA
BRANCH  15  22
ATOM     17  O   UNL     1      -0.677  11.709  22.996  0.00  0.00    +0.000 OA
ATOM     18  C   UNL     1      -0.159  11.018  22.116  0.00  0.00    +0.000 A 
ATOM     19  C   UNL     1      -0.257  11.519  20.735  0.00  0.00    +0.000 A 
ATOM     20  C   UNL     1       0.156  10.981  19.580  0.00  0.00    +0.000 A 
ATOM     21  C   UNL     1       0.832   9.743  19.338  0.00  0.00    +0.000 A 
ATOM     22  C   UNL     1       1.275   8.803  20.195  0.00  0.00    +0.000 A 
ATOM     23  C   UNL     1       1.132   8.861  21.644  0.00  0.00    +0.000 A 
ATOM     24  C   UNL     1       0.545   9.741  22.473  0.00  0.00    +0.000 A 
BRANCH  24  25
ATOM     25  O   UNL     1       0.571   9.481  23.848  0.00  0.00    +0.000 OA
ATOM     26  H   UNL     1       0.145   8.632  24.039  0.00  0.00    +0.000 HD
ENDBRANCH  24  25
ENDBRANCH  15  22
ENDBRANCH   1  16
TORSDOF 5
ENDMDL
MODEL 5
REMARK VINA RESULT:      -8.5      0.697      3.467
REMARK  Name = 
REMARK  5 active torsions:
REMARK  status: ('A' for Active; 'I' for Inactive)
REMARK    1  A    between atoms: C_6  and  N_7
REMARK    2  A    between atoms: N_8  and  C_9
REMARK    3  A    between atoms: C_11  and  C_12
REMARK    4  A    between atoms: C_17  and  C_18
REMARK    5  A    between atoms: C_24  and  O_25
REMARK                            x       y       z     vdW  Elec       q    Type
REMARK                         _______ _______ _______ _____ _____    ______ ____
ROOT
ATOM      1  C   UNL     1       2.940   6.221  18.379  0.00  0.00    +0.000 A 
ATOM      2  C   UNL     1       3.969   6.230  17.428  0.00  0.00    +0.000 A 
ATOM      3  C   UNL     1       4.500   5.045  16.890  0.00  0.00    +0.000 A 
ATOM      4  C   UNL     1       4.033   3.819  17.375  0.00  0.00    +0.000 A 
ATOM      5  C   UNL     1       3.005   3.768  18.331  0.00  0.00    +0.000 A 
ATOM      6  C   UNL     1       2.466   4.975  18.826  0.00  0.00    +0.000 A 
ENDROOT
BRANCH   3   7
ATOM      7  C   UNL     1       5.498   5.109  15.759  0.00  0.00    +0.000 C 
ATOM      8  F   UNL     1       5.459   4.003  14.964  0.00  0.00    +0.000 F 
ATOM      9  F   UNL     1       5.301   6.173  14.936  0.00  0.00    +0.000 F 
ATOM     10  F   UNL     1       6.782   5.203  16.198  0.00  0.00    +0.000 F 
ENDBRANCH   3   7
BRANCH   5  11
ATOM     11  C   UNL     1       2.468   2.423  18.768  0.00  0.00    +0.000 C 
ATOM     12  F   UNL     1       1.161   2.248  18.425  0.00  0.00    +0.000 F 
ATOM     13  F   UNL     1       3.141   1.382  18.210  0.00  0.00    +0.000 F 
ATOM     14  F   UNL     1       2.523   2.238  20.113  0.00  0.00    +0.000 F 
ENDBRANCH   5  11
BRANCH   1  16
ATOM     15  N   UNL     1       1.853   7.448  19.896  0.00  0.00    +0.000 NA
ATOM     16  N   UNL     1       2.441   7.476  18.795  0.00  0.00    +0.000 NA
BRANCH  15  22
ATOM     17  O   UNL     1      -0.520  11.852  22.894  0.00  0.00    +0.000 OA
ATOM     18  C   UNL     1      -0.040  11.062  22.077  0.00  0.00    +0.000 A 
ATOM     19  C   UNL     1      -0.015  11.498  20.671  0.00  0.00    +0.000 A 
ATOM     20  C   UNL     1       0.391  10.859  19.566  0.00  0.00    +0.000 A 
ATOM     21  C   UNL     1       0.936   9.543  19.420  0.00  0.00    +0.000 A 
ATOM     22  C   UNL     1       1.228   8.606  20.342  0.00  0.00    +0.000 A 
ATOM     23  C   UNL     1       1.023   8.755  21.777  0.00  0.00    +0.000 A 
ATOM     24  C   UNL     1       0.499   9.737  22.530  0.00  0.00    +0.000 A 
BRANCH  24  25
ATOM     25  O   UNL     1       0.428   9.549  23.916  0.00  0.00    +0.000 OA
ATOM     26  H   UNL     1       0.223   8.624  24.120  0.00  0.00    +0.000 HD
ENDBRANCH  24  25
ENDBRANCH  15  22
ENDBRANCH   1  16
TORSDOF 5
ENDMDL
MODEL 6
REMARK VINA RESULT:      -8.4      1.373      1.978
REMARK  Name = 
REMARK  5 active torsions:
REMARK  status: ('A' for Active; 'I' for Inactive)
REMARK    1  A    between atoms: C_6  and  N_7
REMARK    2  A    between atoms: N_8  and  C_9
REMARK    3  A    between atoms: C_11  and  C_12
REMARK    4  A    between atoms: C_17  and  C_18
REMARK    5  A    between atoms: C_24  and  O_25
REMARK                            x       y       z     vdW  Elec       q    Type
REMARK                         _______ _______ _______ _____ _____    ______ ____
ROOT
ATOM      1  C   UNL     1       3.168   6.022  17.978  0.00  0.00    +0.000 A 
ATOM      2  C   UNL     1       2.538   4.847  18.413  0.00  0.00    +0.000 A 
ATOM      3  C   UNL     1       3.031   3.571  18.089  0.00  0.00    +0.000 A 
ATOM      4  C   UNL     1       4.143   3.475  17.247  0.00  0.00    +0.000 A 
ATOM      5  C   UNL     1       4.800   4.628  16.788  0.00  0.00    +0.000 A 
ATOM      6  C   UNL     1       4.304   5.895  17.159  0.00  0.00    +0.000 A 
ENDROOT
BRANCH   3   7
ATOM      7  C   UNL     1       2.409   2.342  18.707  0.00  0.00    +0.000 C 
ATOM      8  F   UNL     1       2.351   2.412  20.067  0.00  0.00    +0.000 F 
ATOM      9  F   UNL     1       1.135   2.121  18.286  0.00  0.00    +0.000 F 
ATOM     10  F   UNL     1       3.103   1.207  18.425  0.00  0.00    +0.000 F 
ENDBRANCH   3   7
BRANCH   5  11
ATOM     11  C   UNL     1       6.050   4.482  15.948  0.00  0.00    +0.000 C 
ATOM     12  F   UNL     1       6.089   3.298  15.273  0.00  0.00    +0.000 F 
ATOM     13  F   UNL     1       6.166   5.451  15.004  0.00  0.00    +0.000 F 
ATOM     14  F   UNL     1       7.194   4.524  16.682  0.00  0.00    +0.000 F 
ENDBRANCH   5  11
BRANCH   1  16
ATOM     15  N   UNL     1       2.244   7.228  19.615  0.00  0.00    +0.000 NA
ATOM     16  N   UNL     1       2.619   7.245  18.424  0.00  0.00    +0.000 NA
BRANCH  15  22
ATOM     17  O   UNL     1      -0.577  12.249  20.533  0.00  0.00    +0.000 OA
ATOM     18  C   UNL     1      -0.033  11.142  20.562  0.00  0.00    +0.000 A 
ATOM     19  C   UNL     1      -0.038  10.434  21.852  0.00  0.00    +0.000 A 
ATOM     20  C   UNL     1       0.504   9.261  22.206  0.00  0.00    +0.000 A 
ATOM     21  C   UNL     1       1.254   8.327  21.422  0.00  0.00    +0.000 A 
ATOM     22  C   UNL     1       1.588   8.344  20.118  0.00  0.00    +0.000 A 
ATOM     23  C   UNL     1       1.232   9.401  19.179  0.00  0.00    +0.000 A 
ATOM     24  C   UNL     1       0.579  10.568  19.317  0.00  0.00    +0.000 A 
BRANCH  24  25
ATOM     25  O   UNL     1       0.422  11.381  18.189  0.00  0.00    +0.000 OA
ATOM     26  H   UNL     1      -0.519  11.486  17.978  0.00  0.00    +0.000 HD
ENDBRANCH  24  25
ENDBRANCH  15  22
ENDBRANCH   1  16
TORSDOF 5
ENDMDL
MODEL 7
REMARK VINA RESULT:      -8.4      1.865      4.133
REMARK  Name = 
REMARK  5 active torsions:
REMARK  status: ('A' for Active; 'I' for Inactive)
REMARK    1  A    between atoms: C_6  and  N_7
REMARK    2  A    between atoms: N_8  and  C_9
REMARK    3  A    between atoms: C_11  and  C_12
REMARK    4  A    between atoms: C_17  and  C_18
REMARK    5  A    between atoms: C_24  and  O_25
REMARK                            x       y       z     vdW  Elec       q    Type
REMARK                         _______ _______ _______ _____ _____    ______ ____
ROOT
ATOM      1  C   UNL     1       2.333   6.519  19.827  0.00  0.00    +0.000 A 
ATOM      2  C   UNL     1       3.223   6.377  18.754  0.00  0.00    +0.000 A 
ATOM      3  C   UNL     1       3.697   5.120  18.337  0.00  0.00    +0.000 A 
ATOM      4  C   UNL     1       3.322   3.986  19.065  0.00  0.00    +0.000 A 
ATOM      5  C   UNL     1       2.434   4.088  20.148  0.00  0.00    +0.000 A 
ATOM      6  C   UNL     1       1.946   5.359  20.520  0.00  0.00    +0.000 A 
ENDROOT
BRANCH   3   7
ATOM      7  C   UNL     1       4.530   5.006  17.084  0.00  0.00    +0.000 C 
ATOM      8  F   UNL     1       4.112   3.997  16.268  0.00  0.00    +0.000 F 
ATOM      9  F   UNL     1       4.513   6.135  16.327  0.00  0.00    +0.000 F 
ATOM     10  F   UNL     1       5.840   4.747  17.348  0.00  0.00    +0.000 F 
ENDBRANCH   3   7
BRANCH   5  11
ATOM     11  C   UNL     1       1.985   2.828  20.856  0.00  0.00    +0.000 C 
ATOM     12  F   UNL     1       1.759   1.798  19.993  0.00  0.00    +0.000 F 
ATOM     13  F   UNL     1       2.903   2.371  21.748  0.00  0.00    +0.000 F 
ATOM     14  F   UNL     1       0.826   2.989  21.548  0.00  0.00    +0.000 F 
ENDBRANCH   5  11
BRANCH   1  16
ATOM     15  N   UNL     1       1.147   7.899  21.122  0.00  0.00    +0.000 NA
ATOM     16  N   UNL     1       1.873   7.825  20.109  0.00  0.00    +0.000 NA
BRANCH  15  22
ATOM     17  O   UNL     1      -1.109  13.277  21.191  0.00  0.00    +0.000 OA
ATOM     18  C   UNL     1      -0.738  12.116  21.383  0.00  0.00    +0.000 A 
ATOM     19  C   UNL     1      -1.123  11.499  22.663  0.00  0.00    +0.000 A 
ATOM     20  C   UNL     1      -0.835  10.295  23.173  0.00  0.00    +0.000 A 
ATOM     21  C   UNL     1      -0.062   9.227  22.616  0.00  0.00    +0.000 A 
ATOM     22  C   UNL     1       0.551   9.118  21.422  0.00  0.00    +0.000 A 
ATOM     23  C   UNL     1       0.557  10.146  20.389  0.00  0.00    +0.000 A 
ATOM     24  C   UNL     1       0.052  11.390  20.332  0.00  0.00    +0.000 A 
BRANCH  24  25
ATOM     25  O   UNL     1       0.258  12.141  19.169  0.00  0.00    +0.000 OA
ATOM     26  H   UNL     1      -0.407  12.843  19.099  0.00  0.00    +0.000 HD
ENDBRANCH  24  25
ENDBRANCH  15  22
ENDBRANCH   1  16
TORSDOF 5
ENDMDL
MODEL 8
REMARK VINA RESULT:      -8.3      1.875      4.143
REMARK  Name = 
REMARK  5 active torsions:
REMARK  status: ('A' for Active; 'I' for Inactive)
REMARK    1  A    between atoms: C_6  and  N_7
REMARK    2  A    between atoms: N_8  and  C_9
REMARK    3  A    between atoms: C_11  and  C_12
REMARK    4  A    between atoms: C_17  and  C_18
REMARK    5  A    between atoms: C_24  and  O_25
REMARK                            x       y       z     vdW  Elec       q    Type
REMARK                         _______ _______ _______ _____ _____    ______ ____
ROOT
ATOM      1  C   UNL     1       2.314   6.504  19.821  0.00  0.00    +0.000 A 
ATOM      2  C   UNL     1       3.218   6.369  18.758  0.00  0.00    +0.000 A 
ATOM      3  C   UNL     1       3.714   5.117  18.354  0.00  0.00    +0.000 A 
ATOM      4  C   UNL     1       3.347   3.982  19.083  0.00  0.00    +0.000 A 
ATOM      5  C   UNL     1       2.446   4.077  20.157  0.00  0.00    +0.000 A 
ATOM      6  C   UNL     1       1.937   5.342  20.517  0.00  0.00    +0.000 A 
ENDROOT
BRANCH   3   7
ATOM      7  C   UNL     1       4.562   5.007  17.110  0.00  0.00    +0.000 C 
ATOM      8  F   UNL     1       4.554   6.150  16.368  0.00  0.00    +0.000 F 
ATOM      9  F   UNL     1       5.868   4.739  17.377  0.00  0.00    +0.000 F 
ATOM     10  F   UNL     1       4.138   4.022  16.273  0.00  0.00    +0.000 F 
ENDBRANCH   3   7
BRANCH   5  11
ATOM     11  C   UNL     1       2.007   2.815  20.867  0.00  0.00    +0.000 C 
ATOM     12  F   UNL     1       0.918   3.016  21.661  0.00  0.00    +0.000 F 
ATOM     13  F   UNL     1       1.662   1.821  20.008  0.00  0.00    +0.000 F 
ATOM     14  F   UNL     1       2.966   2.301  21.682  0.00  0.00    +0.000 F 
ENDBRANCH   5  11
BRANCH   1  16
ATOM     15  N   UNL     1       1.094   7.874  21.094  0.00  0.00    +0.000 NA
ATOM     16  N   UNL     1       1.833   7.805  20.091  0.00  0.00    +0.000 NA
BRANCH  15  22
ATOM     17  O   UNL     1      -1.341  13.174  21.083  0.00  0.00    +0.000 OA
ATOM     18  C   UNL     1      -0.916  12.036  21.299  0.00  0.00    +0.000 A 
ATOM     19  C   UNL     1      -1.188  11.469  22.630  0.00  0.00    +0.000 A 
ATOM     20  C   UNL     1      -0.822  10.300  23.172  0.00  0.00    +0.000 A 
ATOM     21  C   UNL     1      -0.053   9.233  22.610  0.00  0.00    +0.000 A 
ATOM     22  C   UNL     1       0.478   9.086  21.381  0.00  0.00    +0.000 A 
ATOM     23  C   UNL     1       0.375  10.064  20.305  0.00  0.00    +0.000 A 
ATOM     24  C   UNL     1      -0.177  11.287  20.229  0.00  0.00    +0.000 A 
BRANCH  24  25
ATOM     25  O   UNL     1      -0.080  11.988  19.021  0.00  0.00    +0.000 OA
ATOM     26  H   UNL     1      -0.265  12.929  19.161  0.00  0.00    +0.000 HD
ENDBRANCH  24  25
ENDBRANCH  15  22
ENDBRANCH   1  16
TORSDOF 5
ENDMDL
MODEL 9
REMARK VINA RESULT:      -8.3      1.198      1.989
REMARK  Name = 
REMARK  5 active torsions:
REMARK  status: ('A' for Active; 'I' for Inactive)
REMARK    1  A    between atoms: C_6  and  N_7
REMARK    2  A    between atoms: N_8  and  C_9
REMARK    3  A    between atoms: C_11  and  C_12
REMARK    4  A    between atoms: C_17  and  C_18
REMARK    5  A    between atoms: C_24  and  O_25
REMARK                            x       y       z     vdW  Elec       q    Type
REMARK                         _______ _______ _______ _____ _____    ______ ____
ROOT
ATOM      1  C   UNL     1       3.213   6.394  17.889  0.00  0.00    +0.000 A 
ATOM      2  C   UNL     1       2.634   5.147  18.161  0.00  0.00    +0.000 A 
ATOM      3  C   UNL     1       3.257   3.939  17.802  0.00  0.00    +0.000 A 
ATOM      4  C   UNL     1       4.459   3.991  17.089  0.00  0.00    +0.000 A 
ATOM      5  C   UNL     1       5.069   5.221  16.794  0.00  0.00    +0.000 A 
ATOM      6  C   UNL     1       4.437   6.416  17.199  0.00  0.00    +0.000 A 
ENDROOT
BRANCH   3   7
ATOM      7  C   UNL     1       2.670   2.624  18.252  0.00  0.00    +0.000 C 
ATOM      8  F   UNL     1       2.843   2.402  19.586  0.00  0.00    +0.000 F 
ATOM      9  F   UNL     1       1.333   2.531  18.025  0.00  0.00    +0.000 F 
ATOM     10  F   UNL     1       3.235   1.557  17.625  0.00  0.00    +0.000 F 
ENDBRANCH   3   7
BRANCH   5  11
ATOM     11  C   UNL     1       6.411   5.232  16.096  0.00  0.00    +0.000 C 
ATOM     12  F   UNL     1       7.214   6.246  16.526  0.00  0.00    +0.000 F 
ATOM     13  F   UNL     1       7.118   4.089  16.297  0.00  0.00    +0.000 F 
ATOM     14  F   UNL     1       6.311   5.388  14.750  0.00  0.00    +0.000 F 
ENDBRANCH   5  11
BRANCH   1  16
ATOM     15  N   UNL     1       2.245   7.494  19.575  0.00  0.00    +0.000 NA
ATOM     16  N   UNL     1       2.525   7.536  18.359  0.00  0.00    +0.000 NA
BRANCH  15  22
ATOM     17  O   UNL     1      -1.073  12.169  20.648  0.00  0.00    +0.000 OA
ATOM     18  C   UNL     1      -0.425  11.119  20.639  0.00  0.00    +0.000 A 
ATOM     19  C   UNL     1      -0.397  10.347  21.892  0.00  0.00    +0.000 A 
ATOM     20  C   UNL     1       0.245   9.215  22.205  0.00  0.00    +0.000 A 
ATOM     21  C   UNL     1       1.104   8.399  21.402  0.00  0.00    +0.000 A 
ATOM     22  C   UNL     1       1.470   8.515  20.111  0.00  0.00    +0.000 A 
ATOM     23  C   UNL     1       1.040   9.581  19.215  0.00  0.00    +0.000 A 
ATOM     24  C   UNL     1       0.274  10.671  19.389  0.00  0.00    +0.000 A 
BRANCH  24  25
ATOM     25  O   UNL     1       0.069  11.524  18.297  0.00  0.00    +0.000 OA
ATOM     26  H   UNL     1       0.824  12.122  18.190  0.00  0.00    +0.000 HD
ENDBRANCH  24  25
ENDBRANCH  15  22
ENDBRANCH   1  16
TORSDOF 5
ENDMDL
