MODEL 1
REMARK VINA RESULT:      -9.3      0.000      0.000
REMARK  Name = 
REMARK  2 active torsions:
REMARK  status: ('A' for Active; 'I' for Inactive)
REMARK    1  A    between atoms: C_7  and  C_8
REMARK    2  A    between atoms: C_12  and  C_13
REMARK                            x       y       z     vdW  Elec       q    Type
REMARK                         _______ _______ _______ _____ _____    ______ ____
ROOT
ATOM      1  O   UNL     1      -1.274  13.014  22.334  0.00  0.00    +0.000 OA
ATOM      2  C   UNL     1      -0.852  11.876  22.142  0.00  0.00    +0.000 C 
ATOM      3  C   UNL     1      -1.177  10.724  23.091  0.00  0.00    +0.000 C 
ATOM      4  C   UNL     1      -0.073   9.663  23.187  0.00  0.00    +0.000 C 
ATOM      5  C   UNL     1       0.452   9.300  21.831  0.00  0.00    +0.000 A 
ATOM      6  C   UNL     1       1.098   8.106  21.509  0.00  0.00    +0.000 A 
ATOM      7  C   UNL     1       1.623   7.870  20.204  0.00  0.00    +0.000 A 
ATOM      8  C   UNL     1       1.523   8.904  19.239  0.00  0.00    +0.000 A 
ATOM      9  C   UNL     1       0.924  10.101  19.580  0.00  0.00    +0.000 A 
ATOM     10  C   UNL     1       0.390  10.253  20.844  0.00  0.00    +0.000 A 
ATOM     11  N   UNL     1      -0.184  11.500  21.006  0.00  0.00    +0.000 N 
ATOM     12  C   UNL     1       0.045  12.297  19.801  0.00  0.00    +0.000 C 
ATOM     13  C   UNL     1       0.728  11.353  18.780  0.00  0.00    +0.000 C 
ENDROOT
BRANCH   7  14
ATOM     14  C   UNL     1       2.265   6.577  19.872  0.00  0.00    +0.000 A 
ATOM     15  C   UNL     1       1.961   5.393  20.543  0.00  0.00    +0.000 A 
ATOM     16  N   UNL     1       2.513   4.188  20.279  0.00  0.00    +0.000 NA
ATOM     17  C   UNL     1       3.416   4.143  19.272  0.00  0.00    +0.000 A 
ATOM     18  C   UNL     1       3.826   5.239  18.513  0.00  0.00    +0.000 A 
ATOM     19  C   UNL     1       3.229   6.466  18.854  0.00  0.00    +0.000 A 
BRANCH  18  20
ATOM     20  C   UNL     1       4.820   5.126  17.423  0.00  0.00    +0.000 A 
ATOM     21  C   UNL     1       4.702   4.143  16.418  0.00  0.00    +0.000 A 
ATOM     22  C   UNL     1       5.632   4.047  15.379  0.00  0.00    +0.000 A 
ATOM     23  C   UNL     1       6.705   4.923  15.338  0.00  0.00    +0.000 A 
ATOM     24  F   UNL     1       7.599   4.830  14.346  0.00  0.00    +0.000 F 
ATOM     25  C   UNL     1       6.862   5.896  16.314  0.00  0.00    +0.000 A 
ATOM     26  C   UNL     1       5.923   6.001  17.345  0.00  0.00    +0.000 A 
ENDBRANCH  18  20
ENDBRANCH   7  14
TORSDOF 2
ENDMDL
MODEL 2
REMARK VINA RESULT:      -9.0      0.420      2.017
REMARK  Name = 
REMARK  2 active torsions:
REMARK  status: ('A' for Active; 'I' for Inactive)
REMARK    1  A    between atoms: C_7  and  C_8
REMARK    2  A    between atoms: C_12  and  C_13
REMARK                            x       y       z     vdW  Elec       q    Type
REMARK                         _______ _______ _______ _____ _____    ______ ____
ROOT
ATOM      1  O   UNL     1      -1.115  13.399  20.890  0.00  0.00    +0.000 OA
ATOM      2  C   UNL     1      -0.441  12.433  20.542  0.00  0.00    +0.000 C 
ATOM      3  C   UNL     1       0.450  12.473  19.303  0.00  0.00    +0.000 C 
ATOM      4  C   UNL     1       0.599  11.120  18.595  0.00  0.00    +0.000 C 
ATOM      5  C   UNL     1       0.851  10.018  19.577  0.00  0.00    +0.000 A 
ATOM      6  C   UNL     1       1.462   8.798  19.282  0.00  0.00    +0.000 A 
ATOM      7  C   UNL     1       1.605   7.778  20.268  0.00  0.00    +0.000 A 
ATOM      8  C   UNL     1       1.062   8.003  21.557  0.00  0.00    +0.000 A 
ATOM      9  C   UNL     1       0.416   9.195  21.827  0.00  0.00    +0.000 A 
ATOM     10  C   UNL     1       0.353  10.166  20.848  0.00  0.00    +0.000 A 
ATOM     11  N   UNL     1      -0.310  11.294  21.294  0.00  0.00    +0.000 N 
ATOM     12  C   UNL     1      -0.814  11.055  22.646  0.00  0.00    +0.000 C 
ATOM     13  C   UNL     1      -0.274   9.667  23.071  0.00  0.00    +0.000 C 
ENDROOT
BRANCH   7  14
ATOM     14  C   UNL     1       2.297   6.509  19.944  0.00  0.00    +0.000 A 
ATOM     15  C   UNL     1       2.061   5.325  20.642  0.00  0.00    +0.000 A 
ATOM     16  N   UNL     1       2.660   4.140  20.386  0.00  0.00    +0.000 NA
ATOM     17  C   UNL     1       3.543   4.118  19.360  0.00  0.00    +0.000 A 
ATOM     18  C   UNL     1       3.887   5.217  18.574  0.00  0.00    +0.000 A 
ATOM     19  C   UNL     1       3.244   6.422  18.908  0.00  0.00    +0.000 A 
BRANCH  18  20
ATOM     20  C   UNL     1       4.863   5.129  17.465  0.00  0.00    +0.000 A 
ATOM     21  C   UNL     1       4.710   4.189  16.424  0.00  0.00    +0.000 A 
ATOM     22  C   UNL     1       5.622   4.117  15.367  0.00  0.00    +0.000 A 
ATOM     23  C   UNL     1       6.711   4.974  15.343  0.00  0.00    +0.000 A 
ATOM     24  F   UNL     1       7.588   4.903  14.334  0.00  0.00    +0.000 F 
ATOM     25  C   UNL     1       6.902   5.904  16.354  0.00  0.00    +0.000 A 
ATOM     26  C   UNL     1       5.980   5.985  17.403  0.00  0.00    +0.000 A 
ENDBRANCH  18  20
ENDBRANCH   7  14
TORSDOF 2
ENDMDL
MODEL 3
REMARK VINA RESULT:      -8.8      4.445      9.027
REMARK  Name = 
REMARK  2 active torsions:
REMARK  status: ('A' for Active; 'I' for Inactive)
REMARK    1  A    between atoms: C_7  and  C_8
REMARK    2  A    between atoms: C_12  and  C_13
REMARK                            x       y       z     vdW  Elec       q    Type
REMARK                         _______ _______ _______ _____ _____    ______ ____
ROOT
ATOM      1  O   UNL     1       4.276   0.974  19.044  0.00  0.00    +0.000 OA
ATOM      2  C   UNL     1       3.911   2.120  18.793  0.00  0.00    +0.000 C 
ATOM      3  C   UNL     1       3.957   2.691  17.378  0.00  0.00    +0.000 C 
ATOM      4  C   UNL     1       4.210   4.203  17.321  0.00  0.00    +0.000 C 
ATOM      5  C   UNL     1       3.368   4.933  18.322  0.00  0.00    +0.000 A 
ATOM      6  C   UNL     1       3.009   6.279  18.246  0.00  0.00    +0.000 A 
ATOM      7  C   UNL     1       2.255   6.911  19.279  0.00  0.00    +0.000 A 
ATOM      8  C   UNL     1       1.915   6.152  20.426  0.00  0.00    +0.000 A 
ATOM      9  C   UNL     1       2.314   4.832  20.515  0.00  0.00    +0.000 A 
ATOM     10  C   UNL     1       2.999   4.261  19.462  0.00  0.00    +0.000 A 
ATOM     11  N   UNL     1       3.302   2.936  19.712  0.00  0.00    +0.000 N 
ATOM     12  C   UNL     1       2.873   2.589  21.066  0.00  0.00    +0.000 C 
ATOM     13  C   UNL     1       2.128   3.831  21.616  0.00  0.00    +0.000 C 
ENDROOT
BRANCH   7  14
ATOM     14  C   UNL     1       1.848   8.329  19.156  0.00  0.00    +0.000 A 
ATOM     15  C   UNL     1       2.237   9.132  18.084  0.00  0.00    +0.000 A 
ATOM     16  N   UNL     1       1.892  10.429  17.920  0.00  0.00    +0.000 NA
ATOM     17  C   UNL     1       1.094  10.967  18.871  0.00  0.00    +0.000 A 
ATOM     18  C   UNL     1       0.625  10.296  20.000  0.00  0.00    +0.000 A 
ATOM     19  C   UNL     1       1.040   8.957  20.120  0.00  0.00    +0.000 A 
BRANCH  18  20
ATOM     20  C   UNL     1      -0.246  10.941  21.007  0.00  0.00    +0.000 A 
ATOM     21  C   UNL     1      -0.871  12.180  20.752  0.00  0.00    +0.000 A 
ATOM     22  C   UNL     1      -1.709  12.782  21.697  0.00  0.00    +0.000 A 
ATOM     23  C   UNL     1      -1.919  12.162  22.918  0.00  0.00    +0.000 A 
ATOM     24  F   UNL     1      -2.717  12.739  23.825  0.00  0.00    +0.000 F 
ATOM     25  C   UNL     1      -1.313  10.949  23.210  0.00  0.00    +0.000 A 
ATOM     26  C   UNL     1      -0.488  10.340  22.258  0.00  0.00    +0.000 A 
ENDBRANCH  18  20
ENDBRANCH   7  14
TORSDOF 2
ENDMDL
MODEL 4
REMARK VINA RESULT:      -8.7      4.359      8.805
REMARK  Name = 
REMARK  2 active torsions:
REMARK  status: ('A' for Active; 'I' for Inactive)
REMARK    1  A    between atoms: C_7  and  C_8
REMARK    2  A    between atoms: C_12  and  C_13
REMARK                            x       y       z     vdW  Elec       q    Type
REMARK                         _______ _______ _______ _____ _____    ______ ____
ROOT
ATOM      1  O   UNL     1       3.708   1.201  18.671  0.00  0.00    +0.000 OA
ATOM      2  C   UNL     1       3.339   2.343  18.935  0.00  0.00    +0.000 C 
ATOM      3  C   UNL     1       2.567   2.667  20.211  0.00  0.00    +0.000 C 
ATOM      4  C   UNL     1       1.577   3.831  20.065  0.00  0.00    +0.000 C 
ATOM      5  C   UNL     1       2.196   4.982  19.333  0.00  0.00    +0.000 A 
ATOM      6  C   UNL     1       1.774   6.310  19.414  0.00  0.00    +0.000 A 
ATOM      7  C   UNL     1       2.382   7.335  18.631  0.00  0.00    +0.000 A 
ATOM      8  C   UNL     1       3.401   6.971  17.716  0.00  0.00    +0.000 A 
ATOM      9  C   UNL     1       3.781   5.646  17.608  0.00  0.00    +0.000 A 
ATOM     10  C   UNL     1       3.191   4.705  18.428  0.00  0.00    +0.000 A 
ATOM     11  N   UNL     1       3.700   3.441  18.198  0.00  0.00    +0.000 N 
ATOM     12  C   UNL     1       4.645   3.496  17.084  0.00  0.00    +0.000 C 
ATOM     13  C   UNL     1       4.784   4.992  16.706  0.00  0.00    +0.000 C 
ENDROOT
BRANCH   7  14
ATOM     14  C   UNL     1       1.949   8.745  18.767  0.00  0.00    +0.000 A 
ATOM     15  C   UNL     1       2.375   9.749  17.898  0.00  0.00    +0.000 A 
ATOM     16  N   UNL     1       2.007  11.048  17.974  0.00  0.00    +0.000 NA
ATOM     17  C   UNL     1       1.147  11.377  18.965  0.00  0.00    +0.000 A 
ATOM     18  C   UNL     1       0.636  10.489  19.912  0.00  0.00    +0.000 A 
ATOM     19  C   UNL     1       1.076   9.159  19.789  0.00  0.00    +0.000 A 
BRANCH  18  20
ATOM     20  C   UNL     1      -0.302  10.911  20.975  0.00  0.00    +0.000 A 
ATOM     21  C   UNL     1      -0.333  10.262  22.227  0.00  0.00    +0.000 A 
ATOM     22  C   UNL     1      -1.208  10.671  23.239  0.00  0.00    +0.000 A 
ATOM     23  C   UNL     1      -2.077  11.725  23.007  0.00  0.00    +0.000 A 
ATOM     24  F   UNL     1      -2.917  12.115  23.973  0.00  0.00    +0.000 F 
ATOM     25  C   UNL     1      -2.083  12.381  21.785  0.00  0.00    +0.000 A 
ATOM     26  C   UNL     1      -1.198  11.981  20.780  0.00  0.00    +0.000 A 
ENDBRANCH  18  20
ENDBRANCH   7  14
TORSDOF 2
ENDMDL
MODEL 5
REMARK VINA RESULT:      -8.7      0.947      1.270
REMARK  Name = 
REMARK  2 active torsions:
REMARK  status: ('A' for Active; 'I' for Inactive)
REMARK    1  A    between atoms: C_7  and  C_8
REMARK    2  A    between atoms: C_12  and  C_13
REMARK                            x       y       z     vdW  Elec       q    Type
REMARK                         _______ _______ _______ _____ _____    ______ ____
ROOT
ATOM      1  O   UNL     1      -1.631  13.917  22.093  0.00  0.00    +0.000 OA
ATOM      2  C   UNL     1      -1.250  12.758  21.954  0.00  0.00    +0.000 C 
ATOM      3  C   UNL     1      -1.723  11.636  22.875  0.00  0.00    +0.000 C 
ATOM      4  C   UNL     1      -0.688  10.523  23.088  0.00  0.00    +0.000 C 
ATOM      5  C   UNL     1      -0.052  10.118  21.794  0.00  0.00    +0.000 A 
ATOM      6  C   UNL     1       0.562   8.889  21.547  0.00  0.00    +0.000 A 
ATOM      7  C   UNL     1       1.200   8.610  20.302  0.00  0.00    +0.000 A 
ATOM      8  C   UNL     1       1.247   9.635  19.324  0.00  0.00    +0.000 A 
ATOM      9  C   UNL     1       0.678  10.864  19.594  0.00  0.00    +0.000 A 
ATOM     10  C   UNL     1       0.030  11.059  20.797  0.00  0.00    +0.000 A 
ATOM     11  N   UNL     1      -0.493  12.335  20.892  0.00  0.00    +0.000 N 
ATOM     12  C   UNL     1      -0.108  13.103  19.709  0.00  0.00    +0.000 C 
ATOM     13  C   UNL     1       0.624  12.114  18.768  0.00  0.00    +0.000 C 
ENDROOT
BRANCH   7  14
ATOM     14  C   UNL     1       1.806   7.284  20.046  0.00  0.00    +0.000 A 
ATOM     15  C   UNL     1       1.591   6.186  20.879  0.00  0.00    +0.000 A 
ATOM     16  N   UNL     1       2.115   4.954  20.690  0.00  0.00    +0.000 NA
ATOM     17  C   UNL     1       2.893   4.789  19.595  0.00  0.00    +0.000 A 
ATOM     18  C   UNL     1       3.202   5.787  18.672  0.00  0.00    +0.000 A 
ATOM     19  C   UNL     1       2.643   7.050  18.940  0.00  0.00    +0.000 A 
BRANCH  18  20
ATOM     20  C   UNL     1       4.061   5.544  17.493  0.00  0.00    +0.000 A 
ATOM     21  C   UNL     1       4.525   6.606  16.689  0.00  0.00    +0.000 A 
ATOM     22  C   UNL     1       5.351   6.379  15.584  0.00  0.00    +0.000 A 
ATOM     23  C   UNL     1       5.712   5.082  15.256  0.00  0.00    +0.000 A 
ATOM     24  F   UNL     1       6.499   4.861  14.195  0.00  0.00    +0.000 F 
ATOM     25  C   UNL     1       5.268   4.009  16.015  0.00  0.00    +0.000 A 
ATOM     26  C   UNL     1       4.454   4.240  17.129  0.00  0.00    +0.000 A 
ENDBRANCH  18  20
ENDBRANCH   7  14
TORSDOF 2
ENDMDL
MODEL 6
REMARK VINA RESULT:      -8.6      4.443      9.076
REMARK  Name = 
REMARK  2 active torsions:
REMARK  status: ('A' for Active; 'I' for Inactive)
REMARK    1  A    between atoms: C_7  and  C_8
REMARK    2  A    between atoms: C_12  and  C_13
REMARK                            x       y       z     vdW  Elec       q    Type
REMARK                         _______ _______ _______ _____ _____    ______ ____
ROOT
ATOM      1  O   UNL     1       4.115   1.421  18.577  0.00  0.00    +0.000 OA
ATOM      2  C   UNL     1       3.760   2.584  18.404  0.00  0.00    +0.000 C 
ATOM      3  C   UNL     1       3.844   3.260  17.038  0.00  0.00    +0.000 C 
ATOM      4  C   UNL     1       4.104   4.771  17.102  0.00  0.00    +0.000 C 
ATOM      5  C   UNL     1       3.239   5.427  18.134  0.00  0.00    +0.000 A 
ATOM      6  C   UNL     1       2.888   6.778  18.151  0.00  0.00    +0.000 A 
ATOM      7  C   UNL     1       2.109   7.333  19.210  0.00  0.00    +0.000 A 
ATOM      8  C   UNL     1       1.738   6.491  20.287  0.00  0.00    +0.000 A 
ATOM      9  C   UNL     1       2.130   5.166  20.286  0.00  0.00    +0.000 A 
ATOM     10  C   UNL     1       2.839   4.673  19.210  0.00  0.00    +0.000 A 
ATOM     11  N   UNL     1       3.132   3.331  19.366  0.00  0.00    +0.000 N 
ATOM     12  C   UNL     1       2.667   2.886  20.680  0.00  0.00    +0.000 C 
ATOM     13  C   UNL     1       1.913   4.087  21.303  0.00  0.00    +0.000 C 
ENDROOT
BRANCH   7  14
ATOM     14  C   UNL     1       1.710   8.759  19.184  0.00  0.00    +0.000 A 
ATOM     15  C   UNL     1       2.229   9.668  18.262  0.00  0.00    +0.000 A 
ATOM     16  N   UNL     1       1.898  10.977  18.191  0.00  0.00    +0.000 NA
ATOM     17  C   UNL     1       0.978  11.417  19.082  0.00  0.00    +0.000 A 
ATOM     18  C   UNL     1       0.373  10.634  20.064  0.00  0.00    +0.000 A 
ATOM     19  C   UNL     1       0.779   9.287  20.096  0.00  0.00    +0.000 A 
BRANCH  18  20
ATOM     20  C   UNL     1      -0.626  11.175  21.011  0.00  0.00    +0.000 A 
ATOM     21  C   UNL     1      -0.619  10.811  22.374  0.00  0.00    +0.000 A 
ATOM     22  C   UNL     1      -1.553  11.335  23.273  0.00  0.00    +0.000 A 
ATOM     23  C   UNL     1      -2.519  12.219  22.819  0.00  0.00    +0.000 A 
ATOM     24  F   UNL     1      -3.416  12.718  23.678  0.00  0.00    +0.000 F 
ATOM     25  C   UNL     1      -2.565  12.592  21.484  0.00  0.00    +0.000 A 
ATOM     26  C   UNL     1      -1.621  12.079  20.589  0.00  0.00    +0.000 A 
ENDBRANCH  18  20
ENDBRANCH   7  14
TORSDOF 2
ENDMDL
MODEL 7
REMARK VINA RESULT:      -8.6      1.226      1.805
REMARK  Name = 
REMARK  2 active torsions:
REMARK  status: ('A' for Active; 'I' for Inactive)
REMARK    1  A    between atoms: C_7  and  C_8
REMARK    2  A    between atoms: C_12  and  C_13
REMARK                            x       y       z     vdW  Elec       q    Type
REMARK                         _______ _______ _______ _____ _____    ______ ____
ROOT
ATOM      1  O   UNL     1      -0.493  11.788  21.724  0.00  0.00    +0.000 OA
ATOM      2  C   UNL     1      -0.041  10.689  21.411  0.00  0.00    +0.000 C 
ATOM      3  C   UNL     1      -0.243   9.454  22.284  0.00  0.00    +0.000 C 
ATOM      4  C   UNL     1       0.908   8.442  22.211  0.00  0.00    +0.000 C 
ATOM      5  C   UNL     1       1.340   8.211  20.796  0.00  0.00    +0.000 A 
ATOM      6  C   UNL     1       2.009   7.077  20.331  0.00  0.00    +0.000 A 
ATOM      7  C   UNL     1       2.439   6.968  18.976  0.00  0.00    +0.000 A 
ATOM      8  C   UNL     1       2.223   8.067  18.108  0.00  0.00    +0.000 A 
ATOM      9  C   UNL     1       1.603   9.205  18.588  0.00  0.00    +0.000 A 
ATOM     10  C   UNL     1       1.162   9.233  19.896  0.00  0.00    +0.000 A 
ATOM     11  N   UNL     1       0.552  10.435  20.201  0.00  0.00    +0.000 N 
ATOM     12  C   UNL     1       0.653  11.333  19.051  0.00  0.00    +0.000 C 
ATOM     13  C   UNL     1       1.293  10.505  17.909  0.00  0.00    +0.000 C 
ENDROOT
BRANCH   7  14
ATOM     14  C   UNL     1       3.107   5.737  18.494  0.00  0.00    +0.000 A 
ATOM     15  C   UNL     1       2.956   4.503  19.127  0.00  0.00    +0.000 A 
ATOM     16  N   UNL     1       3.538   3.350  18.728  0.00  0.00    +0.000 NA
ATOM     17  C   UNL     1       4.309   3.414  17.618  0.00  0.00    +0.000 A 
ATOM     18  C   UNL     1       4.559   4.570  16.879  0.00  0.00    +0.000 A 
ATOM     19  C   UNL     1       3.941   5.738  17.362  0.00  0.00    +0.000 A 
BRANCH  18  20
ATOM     20  C   UNL     1       5.415   4.576  15.673  0.00  0.00    +0.000 A 
ATOM     21  C   UNL     1       5.009   3.941  14.481  0.00  0.00    +0.000 A 
ATOM     22  C   UNL     1       5.810   3.961  13.334  0.00  0.00    +0.000 A 
ATOM     23  C   UNL     1       7.038   4.603  13.368  0.00  0.00    +0.000 A 
ATOM     24  F   UNL     1       7.808   4.619  12.274  0.00  0.00    +0.000 F 
ATOM     25  C   UNL     1       7.476   5.230  14.525  0.00  0.00    +0.000 A 
ATOM     26  C   UNL     1       6.668   5.222  15.666  0.00  0.00    +0.000 A 
ENDBRANCH  18  20
ENDBRANCH   7  14
TORSDOF 2
ENDMDL
MODEL 8
REMARK VINA RESULT:      -8.6      0.995      2.437
REMARK  Name = 
REMARK  2 active torsions:
REMARK  status: ('A' for Active; 'I' for Inactive)
REMARK    1  A    between atoms: C_7  and  C_8
REMARK    2  A    between atoms: C_12  and  C_13
REMARK                            x       y       z     vdW  Elec       q    Type
REMARK                         _______ _______ _______ _____ _____    ______ ____
ROOT
ATOM      1  O   UNL     1      -0.877  12.770  20.494  0.00  0.00    +0.000 OA
ATOM      2  C   UNL     1      -0.145  11.857  20.119  0.00  0.00    +0.000 C 
ATOM      3  C   UNL     1       0.768  12.000  18.905  0.00  0.00    +0.000 C 
ATOM      4  C   UNL     1       1.004  10.691  18.141  0.00  0.00    +0.000 C 
ATOM      5  C   UNL     1       1.292   9.559  19.078  0.00  0.00    +0.000 A 
ATOM      6  C   UNL     1       1.973   8.387  18.744  0.00  0.00    +0.000 A 
ATOM      7  C   UNL     1       2.149   7.331  19.687  0.00  0.00    +0.000 A 
ATOM      8  C   UNL     1       1.566   7.469  20.971  0.00  0.00    +0.000 A 
ATOM      9  C   UNL     1       0.853   8.612  21.279  0.00  0.00    +0.000 A 
ATOM     10  C   UNL     1       0.760   9.623  20.343  0.00  0.00    +0.000 A 
ATOM     11  N   UNL     1       0.030  10.693  20.823  0.00  0.00    +0.000 N 
ATOM     12  C   UNL     1      -0.490  10.367  22.150  0.00  0.00    +0.000 C 
ATOM     13  C   UNL     1       0.112   8.990  22.526  0.00  0.00    +0.000 C 
ENDROOT
BRANCH   7  14
ATOM     14  C   UNL     1       2.914   6.116  19.323  0.00  0.00    +0.000 A 
ATOM     15  C   UNL     1       2.890   4.955  20.095  0.00  0.00    +0.000 A 
ATOM     16  N   UNL     1       3.564   3.819  19.808  0.00  0.00    +0.000 NA
ATOM     17  C   UNL     1       4.301   3.822  18.672  0.00  0.00    +0.000 A 
ATOM     18  C   UNL     1       4.427   4.904  17.801  0.00  0.00    +0.000 A 
ATOM     19  C   UNL     1       3.718   6.061  18.171  0.00  0.00    +0.000 A 
BRANCH  18  20
ATOM     20  C   UNL     1       5.251   4.847  16.574  0.00  0.00    +0.000 A 
ATOM     21  C   UNL     1       6.591   5.287  16.566  0.00  0.00    +0.000 A 
ATOM     22  C   UNL     1       7.375   5.218  15.411  0.00  0.00    +0.000 A 
ATOM     23  C   UNL     1       6.825   4.721  14.239  0.00  0.00    +0.000 A 
ATOM     24  F   UNL     1       7.573   4.658  13.131  0.00  0.00    +0.000 F 
ATOM     25  C   UNL     1       5.508   4.289  14.204  0.00  0.00    +0.000 A 
ATOM     26  C   UNL     1       4.729   4.345  15.365  0.00  0.00    +0.000 A 
ENDBRANCH  18  20
ENDBRANCH   7  14
TORSDOF 2
ENDMDL
MODEL 9
REMARK VINA RESULT:      -8.4      4.687      9.010
REMARK  Name = 
REMARK  2 active torsions:
REMARK  status: ('A' for Active; 'I' for Inactive)
REMARK    1  A    between atoms: C_7  and  C_8
REMARK    2  A    between atoms: C_12  and  C_13
REMARK                            x       y       z     vdW  Elec       q    Type
REMARK                         _______ _______ _______ _____ _____    ______ ____
ROOT
ATOM      1  O   UNL     1       5.082   3.618  18.352  0.00  0.00    +0.000 OA
ATOM      2  C   UNL     1       4.489   4.672  18.134  0.00  0.00    +0.000 C 
ATOM      3  C   UNL     1       4.578   5.386  16.788  0.00  0.00    +0.000 C 
ATOM      4  C   UNL     1       4.469   6.913  16.881  0.00  0.00    +0.000 C 
ATOM      5  C   UNL     1       3.355   7.323  17.795  0.00  0.00    +0.000 A 
ATOM      6  C   UNL     1       2.698   8.554  17.766  0.00  0.00    +0.000 A 
ATOM      7  C   UNL     1       1.689   8.885  18.717  0.00  0.00    +0.000 A 
ATOM      8  C   UNL     1       1.395   7.951  19.742  0.00  0.00    +0.000 A 
ATOM      9  C   UNL     1       2.083   6.754  19.793  0.00  0.00    +0.000 A 
ATOM     10  C   UNL     1       3.014   6.468  18.814  0.00  0.00    +0.000 A 
ATOM     11  N   UNL     1       3.591   5.227  19.009  0.00  0.00    +0.000 N 
ATOM     12  C   UNL     1       3.087   4.650  20.255  0.00  0.00    +0.000 C 
ATOM     13  C   UNL     1       2.002   5.626  20.777  0.00  0.00    +0.000 C 
ENDROOT
BRANCH   7  14
ATOM     14  C   UNL     1       0.974  10.180  18.639  0.00  0.00    +0.000 A 
ATOM     15  C   UNL     1       1.626  11.406  18.760  0.00  0.00    +0.000 A 
ATOM     16  N   UNL     1       1.025  12.615  18.692  0.00  0.00    +0.000 NA
ATOM     17  C   UNL     1      -0.311  12.615  18.474  0.00  0.00    +0.000 A 
ATOM     18  C   UNL     1      -1.102  11.475  18.336  0.00  0.00    +0.000 A 
ATOM     19  C   UNL     1      -0.416  10.251  18.439  0.00  0.00    +0.000 A 
BRANCH  18  20
ATOM     20  C   UNL     1      -2.561  11.540  18.100  0.00  0.00    +0.000 A 
ATOM     21  C   UNL     1      -3.445  12.015  19.091  0.00  0.00    +0.000 A 
ATOM     22  C   UNL     1      -4.822  12.093  18.863  0.00  0.00    +0.000 A 
ATOM     23  C   UNL     1      -5.338  11.681  17.644  0.00  0.00    +0.000 A 
ATOM     24  F   UNL     1      -6.657  11.750  17.426  0.00  0.00    +0.000 F 
ATOM     25  C   UNL     1      -4.502  11.197  16.649  0.00  0.00    +0.000 A 
ATOM     26  C   UNL     1      -3.123  11.134  16.873  0.00  0.00    +0.000 A 
ENDBRANCH  18  20
ENDBRANCH   7  14
TORSDOF 2
ENDMDL
