MODEL 1
REMARK VINA RESULT:      -6.6      0.000      0.000
REMARK  Name = 
REMARK  7 active torsions:
REMARK  status: ('A' for Active; 'I' for Inactive)
REMARK    1  A    between atoms: C_1  and  C_2
REMARK    2  A    between atoms: C_2  and  C_3
REMARK    3  A    between atoms: C_6  and  C_7
REMARK    4  A    between atoms: C_8  and  C_9
REMARK    5  A    between atoms: C_9  and  C_10
REMARK    6  A    between atoms: C_11  and  C_12
REMARK    7  A    between atoms: C_12  and  C_13
REMARK                            x       y       z     vdW  Elec       q    Type
REMARK                         _______ _______ _______ _____ _____    ______ ____
ROOT
ATOM      1  C   UNL     1       4.139   4.944  18.274  0.00  0.00    +0.000 A 
ATOM      2  C   UNL     1       3.746   4.031  19.192  0.00  0.00    +0.000 A 
ATOM      3  C   UNL     1       2.776   4.571  20.235  0.00  0.00    +0.000 A 
ATOM      4  N   UNL     1       2.305   5.778  20.249  0.00  0.00    +0.000 NA
ATOM      5  N   UNL     1       2.702   6.622  19.275  0.00  0.00    +0.000 N 
ATOM      6  C   UNL     1       3.590   6.331  18.281  0.00  0.00    +0.000 A 
ATOM      7  O   UNL     1       3.907   7.185  17.456  0.00  0.00    +0.000 OA
ATOM      8  H   UNL     1       2.326   7.564  19.298  0.00  0.00    +0.000 HD
ENDROOT
BRANCH   1  12
ATOM      9  C   UNL     1       5.986   4.242  15.252  0.00  0.00    +0.000 A 
ATOM     10  C   UNL     1       7.135   4.573  15.940  0.00  0.00    +0.000 A 
ATOM     11  S   UNL     1       6.768   4.928  17.568  0.00  0.00    +0.000 S 
ATOM     12  C   UNL     1       5.080   4.676  17.242  0.00  0.00    +0.000 A 
ATOM     13  N   UNL     1       4.823   4.280  16.008  0.00  0.00    +0.000 NA
BRANCH   9  15
ATOM     14  C   UNL     1       7.050   4.421  13.011  0.00  0.00    +0.000 C 
ATOM     15  C   UNL     1       5.900   3.839  13.817  0.00  0.00    +0.000 C 
ENDBRANCH   9  15
ENDBRANCH   1  12
BRANCH   2  16
ATOM     16  C   UNL     1       4.134   2.572  19.364  0.00  0.00    +0.000 C 
ATOM     17  C   UNL     1       3.535   1.469  18.502  0.00  0.00    +0.000 C 
ENDBRANCH   2  16
BRANCH   3  18
ATOM     18  C   UNL     1       2.325   3.642  21.371  0.00  0.00    +0.000 C 
ATOM     19  C   UNL     1       1.053   2.855  21.087  0.00  0.00    +0.000 C 
ENDBRANCH   3  18
TORSDOF 4
ENDMDL
MODEL 2
REMARK VINA RESULT:      -6.6      0.876      1.093
REMARK  Name = 
REMARK  7 active torsions:
REMARK  status: ('A' for Active; 'I' for Inactive)
REMARK    1  A    between atoms: C_1  and  C_2
REMARK    2  A    between atoms: C_2  and  C_3
REMARK    3  A    between atoms: C_6  and  C_7
REMARK    4  A    between atoms: C_8  and  C_9
REMARK    5  A    between atoms: C_9  and  C_10
REMARK    6  A    between atoms: C_11  and  C_12
REMARK    7  A    between atoms: C_12  and  C_13
REMARK                            x       y       z     vdW  Elec       q    Type
REMARK                         _______ _______ _______ _____ _____    ______ ____
ROOT
ATOM      1  C   UNL     1       3.854   4.828  17.602  0.00  0.00    +0.000 A 
ATOM      2  C   UNL     1       3.002   3.877  18.048  0.00  0.00    +0.000 A 
ATOM      3  C   UNL     1       1.939   4.390  19.010  0.00  0.00    +0.000 A 
ATOM      4  N   UNL     1       1.797   5.631  19.358  0.00  0.00    +0.000 NA
ATOM      5  N   UNL     1       2.652   6.534  18.837  0.00  0.00    +0.000 N 
ATOM      6  C   UNL     1       3.687   6.258  17.992  0.00  0.00    +0.000 A 
ATOM      7  O   UNL     1       4.428   7.155  17.596  0.00  0.00    +0.000 OA
ATOM      8  H   UNL     1       2.531   7.501  19.118  0.00  0.00    +0.000 HD
ENDROOT
BRANCH   1  12
ATOM      9  C   UNL     1       6.201   4.264  14.916  0.00  0.00    +0.000 A 
ATOM     10  C   UNL     1       7.211   4.347  15.853  0.00  0.00    +0.000 A 
ATOM     11  S   UNL     1       6.555   4.544  17.416  0.00  0.00    +0.000 S 
ATOM     12  C   UNL     1       4.954   4.566  16.739  0.00  0.00    +0.000 A 
ATOM     13  N   UNL     1       4.918   4.365  15.434  0.00  0.00    +0.000 NA
BRANCH   9  15
ATOM     14  C   UNL     1       5.087   3.562  12.807  0.00  0.00    +0.000 C 
ATOM     15  C   UNL     1       6.373   4.058  13.448  0.00  0.00    +0.000 C 
ENDBRANCH   9  15
ENDBRANCH   1  12
BRANCH   2  16
ATOM     16  C   UNL     1       2.951   2.384  17.766  0.00  0.00    +0.000 C 
ATOM     17  C   UNL     1       3.786   1.384  18.554  0.00  0.00    +0.000 C 
ENDBRANCH   2  16
BRANCH   3  18
ATOM     18  C   UNL     1       0.967   3.383  19.639  0.00  0.00    +0.000 C 
ATOM     19  C   UNL     1       1.297   2.984  21.071  0.00  0.00    +0.000 C 
ENDBRANCH   3  18
TORSDOF 4
ENDMDL
MODEL 3
REMARK VINA RESULT:      -6.0      2.108      5.891
REMARK  Name = 
REMARK  7 active torsions:
REMARK  status: ('A' for Active; 'I' for Inactive)
REMARK    1  A    between atoms: C_1  and  C_2
REMARK    2  A    between atoms: C_2  and  C_3
REMARK    3  A    between atoms: C_6  and  C_7
REMARK    4  A    between atoms: C_8  and  C_9
REMARK    5  A    between atoms: C_9  and  C_10
REMARK    6  A    between atoms: C_11  and  C_12
REMARK    7  A    between atoms: C_12  and  C_13
REMARK                            x       y       z     vdW  Elec       q    Type
REMARK                         _______ _______ _______ _____ _____    ______ ____
ROOT
ATOM      1  C   UNL     1       5.327   4.674  18.126  0.00  0.00    +0.000 A 
ATOM      2  C   UNL     1       5.206   4.262  16.844  0.00  0.00    +0.000 A 
ATOM      3  C   UNL     1       6.510   4.276  16.057  0.00  0.00    +0.000 A 
ATOM      4  N   UNL     1       7.664   4.601  16.548  0.00  0.00    +0.000 NA
ATOM      5  N   UNL     1       7.720   4.957  17.847  0.00  0.00    +0.000 N 
ATOM      6  C   UNL     1       6.656   5.039  18.698  0.00  0.00    +0.000 A 
ATOM      7  O   UNL     1       6.813   5.403  19.861  0.00  0.00    +0.000 OA
ATOM      8  H   UNL     1       8.629   5.210  18.219  0.00  0.00    +0.000 HD
ENDROOT
BRANCH   1  12
ATOM      9  C   UNL     1       2.815   4.426  20.709  0.00  0.00    +0.000 A 
ATOM     10  C   UNL     1       2.406   5.697  20.359  0.00  0.00    +0.000 A 
ATOM     11  S   UNL     1       3.305   6.261  19.023  0.00  0.00    +0.000 S 
ATOM     12  C   UNL     1       4.234   4.793  19.028  0.00  0.00    +0.000 A 
ATOM     13  N   UNL     1       3.841   3.910  19.930  0.00  0.00    +0.000 NA
BRANCH   9  15
ATOM     14  C   UNL     1       1.179   2.642  21.278  0.00  0.00    +0.000 C 
ATOM     15  C   UNL     1       2.248   3.586  21.804  0.00  0.00    +0.000 C 
ENDBRANCH   9  15
ENDBRANCH   1  12
BRANCH   2  16
ATOM     16  C   UNL     1       3.984   3.813  16.061  0.00  0.00    +0.000 C 
ATOM     17  C   UNL     1       2.830   3.069  16.720  0.00  0.00    +0.000 C 
ENDBRANCH   2  16
BRANCH   3  18
ATOM     18  C   UNL     1       6.474   3.900  14.569  0.00  0.00    +0.000 C 
ATOM     19  C   UNL     1       7.140   4.906  13.639  0.00  0.00    +0.000 C 
ENDBRANCH   3  18
TORSDOF 4
ENDMDL
MODEL 4
REMARK VINA RESULT:      -6.0      2.793      3.695
REMARK  Name = 
REMARK  7 active torsions:
REMARK  status: ('A' for Active; 'I' for Inactive)
REMARK    1  A    between atoms: C_1  and  C_2
REMARK    2  A    between atoms: C_2  and  C_3
REMARK    3  A    between atoms: C_6  and  C_7
REMARK    4  A    between atoms: C_8  and  C_9
REMARK    5  A    between atoms: C_9  and  C_10
REMARK    6  A    between atoms: C_11  and  C_12
REMARK    7  A    between atoms: C_12  and  C_13
REMARK                            x       y       z     vdW  Elec       q    Type
REMARK                         _______ _______ _______ _____ _____    ______ ____
ROOT
ATOM      1  C   UNL     1       3.996   4.432  18.297  0.00  0.00    +0.000 A 
ATOM      2  C   UNL     1       3.070   4.511  19.280  0.00  0.00    +0.000 A 
ATOM      3  C   UNL     1       2.144   3.305  19.366  0.00  0.00    +0.000 A 
ATOM      4  N   UNL     1       2.233   2.252  18.614  0.00  0.00    +0.000 NA
ATOM      5  N   UNL     1       3.210   2.221  17.686  0.00  0.00    +0.000 N 
ATOM      6  C   UNL     1       4.107   3.219  17.437  0.00  0.00    +0.000 A 
ATOM      7  O   UNL     1       4.944   3.099  16.545  0.00  0.00    +0.000 OA
ATOM      8  H   UNL     1       3.268   1.392  17.104  0.00  0.00    +0.000 HD
ENDROOT
BRANCH   1  12
ATOM      9  C   UNL     1       6.775   6.711  17.952  0.00  0.00    +0.000 A 
ATOM     10  C   UNL     1       6.106   7.282  16.889  0.00  0.00    +0.000 A 
ATOM     11  S   UNL     1       4.579   6.548  16.687  0.00  0.00    +0.000 S 
ATOM     12  C   UNL     1       4.927   5.465  18.000  0.00  0.00    +0.000 A 
ATOM     13  N   UNL     1       6.086   5.692  18.594  0.00  0.00    +0.000 NA
BRANCH   9  15
ATOM     14  C   UNL     1       8.389   8.582  18.237  0.00  0.00    +0.000 C 
ATOM     15  C   UNL     1       8.122   7.102  18.460  0.00  0.00    +0.000 C 
ENDBRANCH   9  15
ENDBRANCH   1  12
BRANCH   2  16
ATOM     16  C   UNL     1       2.791   5.612  20.289  0.00  0.00    +0.000 C 
ATOM     17  C   UNL     1       2.186   6.949  19.881  0.00  0.00    +0.000 C 
ENDBRANCH   2  16
BRANCH   3  18
ATOM     18  C   UNL     1       1.006   3.322  20.396  0.00  0.00    +0.000 C 
ATOM     19  C   UNL     1       1.328   2.636  21.716  0.00  0.00    +0.000 C 
ENDBRANCH   3  18
TORSDOF 4
ENDMDL
MODEL 5
REMARK VINA RESULT:      -5.9      2.294      5.785
REMARK  Name = 
REMARK  7 active torsions:
REMARK  status: ('A' for Active; 'I' for Inactive)
REMARK    1  A    between atoms: C_1  and  C_2
REMARK    2  A    between atoms: C_2  and  C_3
REMARK    3  A    between atoms: C_6  and  C_7
REMARK    4  A    between atoms: C_8  and  C_9
REMARK    5  A    between atoms: C_9  and  C_10
REMARK    6  A    between atoms: C_11  and  C_12
REMARK    7  A    between atoms: C_12  and  C_13
REMARK                            x       y       z     vdW  Elec       q    Type
REMARK                         _______ _______ _______ _____ _____    ______ ____
ROOT
ATOM      1  C   UNL     1       5.267   4.594  18.381  0.00  0.00    +0.000 A 
ATOM      2  C   UNL     1       5.100   4.219  17.092  0.00  0.00    +0.000 A 
ATOM      3  C   UNL     1       6.376   4.248  16.261  0.00  0.00    +0.000 A 
ATOM      4  N   UNL     1       7.549   4.552  16.722  0.00  0.00    +0.000 NA
ATOM      5  N   UNL     1       7.651   4.870  18.029  0.00  0.00    +0.000 N 
ATOM      6  C   UNL     1       6.617   4.934  18.917  0.00  0.00    +0.000 A 
ATOM      7  O   UNL     1       6.816   5.263  20.084  0.00  0.00    +0.000 OA
ATOM      8  H   UNL     1       8.574   5.106  18.376  0.00  0.00    +0.000 HD
ENDROOT
BRANCH   1  12
ATOM      9  C   UNL     1       2.434   5.427  20.459  0.00  0.00    +0.000 A 
ATOM     10  C   UNL     1       2.469   4.132  20.935  0.00  0.00    +0.000 A 
ATOM     11  S   UNL     1       3.792   3.290  20.261  0.00  0.00    +0.000 S 
ATOM     12  C   UNL     1       4.206   4.693  19.323  0.00  0.00    +0.000 A 
ATOM     13  N   UNL     1       3.442   5.744  19.559  0.00  0.00    +0.000 NA
BRANCH   9  15
ATOM     14  C   UNL     1       1.830   7.830  20.253  0.00  0.00    +0.000 C 
ATOM     15  C   UNL     1       1.448   6.480  20.838  0.00  0.00    +0.000 C 
ENDBRANCH   9  15
ENDBRANCH   1  12
BRANCH   2  16
ATOM     16  C   UNL     1       3.849   3.801  16.339  0.00  0.00    +0.000 C 
ATOM     17  C   UNL     1       2.636   3.214  17.049  0.00  0.00    +0.000 C 
ENDBRANCH   2  16
BRANCH   3  18
ATOM     18  C   UNL     1       6.288   3.916  14.765  0.00  0.00    +0.000 C 
ATOM     19  C   UNL     1       7.076   4.849  13.856  0.00  0.00    +0.000 C 
ENDBRANCH   3  18
TORSDOF 4
ENDMDL
MODEL 6
REMARK VINA RESULT:      -5.9      2.819      5.726
REMARK  Name = 
REMARK  7 active torsions:
REMARK  status: ('A' for Active; 'I' for Inactive)
REMARK    1  A    between atoms: C_1  and  C_2
REMARK    2  A    between atoms: C_2  and  C_3
REMARK    3  A    between atoms: C_6  and  C_7
REMARK    4  A    between atoms: C_8  and  C_9
REMARK    5  A    between atoms: C_9  and  C_10
REMARK    6  A    between atoms: C_11  and  C_12
REMARK    7  A    between atoms: C_12  and  C_13
REMARK                            x       y       z     vdW  Elec       q    Type
REMARK                         _______ _______ _______ _____ _____    ______ ____
ROOT
ATOM      1  C   UNL     1       2.963   6.009  18.310  0.00  0.00    +0.000 A 
ATOM      2  C   UNL     1       2.495   4.742  18.390  0.00  0.00    +0.000 A 
ATOM      3  C   UNL     1       3.328   3.719  17.630  0.00  0.00    +0.000 A 
ATOM      4  N   UNL     1       4.424   3.987  16.991  0.00  0.00    +0.000 NA
ATOM      5  N   UNL     1       4.859   5.264  16.993  0.00  0.00    +0.000 N 
ATOM      6  C   UNL     1       4.229   6.320  17.585  0.00  0.00    +0.000 A 
ATOM      7  O   UNL     1       4.698   7.453  17.502  0.00  0.00    +0.000 OA
ATOM      8  H   UNL     1       5.717   5.460  16.489  0.00  0.00    +0.000 HD
ENDROOT
BRANCH   1  12
ATOM      9  C   UNL     1       1.520   8.589  20.383  0.00  0.00    +0.000 A 
ATOM     10  C   UNL     1       1.355   9.343  19.239  0.00  0.00    +0.000 A 
ATOM     11  S   UNL     1       1.852   8.455  17.869  0.00  0.00    +0.000 S 
ATOM     12  C   UNL     1       2.317   7.132  18.896  0.00  0.00    +0.000 A 
ATOM     13  N   UNL     1       2.047   7.322  20.175  0.00  0.00    +0.000 NA
BRANCH   9  15
ATOM     14  C   UNL     1      -0.317   8.841  22.041  0.00  0.00    +0.000 C 
ATOM     15  C   UNL     1       1.170   9.006  21.773  0.00  0.00    +0.000 C 
ENDBRANCH   9  15
ENDBRANCH   1  12
BRANCH   2  16
ATOM     16  C   UNL     1       1.267   4.185  19.089  0.00  0.00    +0.000 C 
ATOM     17  C   UNL     1       1.261   3.861  20.577  0.00  0.00    +0.000 C 
ENDBRANCH   2  16
BRANCH   3  18
ATOM     18  C   UNL     1       2.845   2.262  17.588  0.00  0.00    +0.000 C 
ATOM     19  C   UNL     1       3.601   1.311  18.506  0.00  0.00    +0.000 C 
ENDBRANCH   3  18
TORSDOF 4
ENDMDL
MODEL 7
REMARK VINA RESULT:      -5.8      2.470      5.799
REMARK  Name = 
REMARK  7 active torsions:
REMARK  status: ('A' for Active; 'I' for Inactive)
REMARK    1  A    between atoms: C_1  and  C_2
REMARK    2  A    between atoms: C_2  and  C_3
REMARK    3  A    between atoms: C_6  and  C_7
REMARK    4  A    between atoms: C_8  and  C_9
REMARK    5  A    between atoms: C_9  and  C_10
REMARK    6  A    between atoms: C_11  and  C_12
REMARK    7  A    between atoms: C_12  and  C_13
REMARK                            x       y       z     vdW  Elec       q    Type
REMARK                         _______ _______ _______ _____ _____    ______ ____
ROOT
ATOM      1  C   UNL     1       5.172   6.196  17.095  0.00  0.00    +0.000 A 
ATOM      2  C   UNL     1       5.067   5.050  16.384  0.00  0.00    +0.000 A 
ATOM      3  C   UNL     1       6.306   4.702  15.571  0.00  0.00    +0.000 A 
ATOM      4  N   UNL     1       7.405   5.390  15.570  0.00  0.00    +0.000 NA
ATOM      5  N   UNL     1       7.457   6.497  16.340  0.00  0.00    +0.000 N 
ATOM      6  C   UNL     1       6.438   6.985  17.104  0.00  0.00    +0.000 A 
ATOM      7  O   UNL     1       6.581   8.022  17.749  0.00  0.00    +0.000 OA
ATOM      8  H   UNL     1       8.322   7.026  16.329  0.00  0.00    +0.000 HD
ENDROOT
BRANCH   1  12
ATOM      9  C   UNL     1       2.363   7.946  18.541  0.00  0.00    +0.000 A 
ATOM     10  C   UNL     1       2.393   7.032  19.574  0.00  0.00    +0.000 A 
ATOM     11  S   UNL     1       3.703   5.956  19.374  0.00  0.00    +0.000 S 
ATOM     12  C   UNL     1       4.120   6.742  17.881  0.00  0.00    +0.000 A 
ATOM     13  N   UNL     1       3.365   7.788  17.594  0.00  0.00    +0.000 NA
BRANCH   9  15
ATOM     14  C   UNL     1       0.888   9.560  19.726  0.00  0.00    +0.000 C 
ATOM     15  C   UNL     1       1.389   9.064  18.379  0.00  0.00    +0.000 C 
ENDBRANCH   9  15
ENDBRANCH   1  12
BRANCH   2  16
ATOM     16  C   UNL     1       3.910   4.074  16.247  0.00  0.00    +0.000 C 
ATOM     17  C   UNL     1       3.608   3.024  17.308  0.00  0.00    +0.000 C 
ENDBRANCH   2  16
BRANCH   3  18
ATOM     18  C   UNL     1       6.269   3.463  14.666  0.00  0.00    +0.000 C 
ATOM     19  C   UNL     1       6.146   3.761  13.178  0.00  0.00    +0.000 C 
ENDBRANCH   3  18
TORSDOF 4
ENDMDL
MODEL 8
REMARK VINA RESULT:      -5.7      3.203      4.682
REMARK  Name = 
REMARK  7 active torsions:
REMARK  status: ('A' for Active; 'I' for Inactive)
REMARK    1  A    between atoms: C_1  and  C_2
REMARK    2  A    between atoms: C_2  and  C_3
REMARK    3  A    between atoms: C_6  and  C_7
REMARK    4  A    between atoms: C_8  and  C_9
REMARK    5  A    between atoms: C_9  and  C_10
REMARK    6  A    between atoms: C_11  and  C_12
REMARK    7  A    between atoms: C_12  and  C_13
REMARK                            x       y       z     vdW  Elec       q    Type
REMARK                         _______ _______ _______ _____ _____    ______ ____
ROOT
ATOM      1  C   UNL     1       5.983   5.350  17.264  0.00  0.00    +0.000 A 
ATOM      2  C   UNL     1       4.695   5.269  17.671  0.00  0.00    +0.000 A 
ATOM      3  C   UNL     1       3.909   4.130  17.036  0.00  0.00    +0.000 A 
ATOM      4  N   UNL     1       4.405   3.262  16.211  0.00  0.00    +0.000 NA
ATOM      5  N   UNL     1       5.709   3.374  15.885  0.00  0.00    +0.000 N 
ATOM      6  C   UNL     1       6.559   4.347  16.323  0.00  0.00    +0.000 A 
ATOM      7  O   UNL     1       7.727   4.374  15.941  0.00  0.00    +0.000 OA
ATOM      8  H   UNL     1       6.084   2.689  15.238  0.00  0.00    +0.000 HD
ENDROOT
BRANCH   1  12
ATOM      9  C   UNL     1       7.916   8.328  17.922  0.00  0.00    +0.000 A 
ATOM     10  C   UNL     1       8.486   7.659  18.986  0.00  0.00    +0.000 A 
ATOM     11  S   UNL     1       7.912   6.054  19.052  0.00  0.00    +0.000 S 
ATOM     12  C   UNL     1       6.886   6.366  17.685  0.00  0.00    +0.000 A 
ATOM     13  N   UNL     1       7.024   7.575  17.172  0.00  0.00    +0.000 NA
BRANCH   9  15
ATOM     14  C   UNL     1       9.098  10.434  18.516  0.00  0.00    +0.000 C 
ATOM     15  C   UNL     1       8.190   9.737  17.516  0.00  0.00    +0.000 C 
ENDBRANCH   9  15
ENDBRANCH   1  12
BRANCH   2  16
ATOM     16  C   UNL     1       3.906   6.141  18.634  0.00  0.00    +0.000 C 
ATOM     17  C   UNL     1       3.098   7.341  18.161  0.00  0.00    +0.000 C 
ENDBRANCH   2  16
BRANCH   3  18
ATOM     18  C   UNL     1       2.417   3.992  17.368  0.00  0.00    +0.000 C 
ATOM     19  C   UNL     1       2.065   2.800  18.248  0.00  0.00    +0.000 C 
ENDBRANCH   3  18
TORSDOF 4
ENDMDL
MODEL 9
REMARK VINA RESULT:      -5.7      2.951      5.956
REMARK  Name = 
REMARK  7 active torsions:
REMARK  status: ('A' for Active; 'I' for Inactive)
REMARK    1  A    between atoms: C_1  and  C_2
REMARK    2  A    between atoms: C_2  and  C_3
REMARK    3  A    between atoms: C_6  and  C_7
REMARK    4  A    between atoms: C_8  and  C_9
REMARK    5  A    between atoms: C_9  and  C_10
REMARK    6  A    between atoms: C_11  and  C_12
REMARK    7  A    between atoms: C_12  and  C_13
REMARK                            x       y       z     vdW  Elec       q    Type
REMARK                         _______ _______ _______ _____ _____    ______ ____
ROOT
ATOM      1  C   UNL     1       4.956   5.056  18.407  0.00  0.00    +0.000 A 
ATOM      2  C   UNL     1       5.210   6.224  17.774  0.00  0.00    +0.000 A 
ATOM      3  C   UNL     1       6.667   6.662  17.831  0.00  0.00    +0.000 A 
ATOM      4  N   UNL     1       7.621   5.981  18.385  0.00  0.00    +0.000 NA
ATOM      5  N   UNL     1       7.304   4.802  18.957  0.00  0.00    +0.000 N 
ATOM      6  C   UNL     1       6.052   4.265  19.037  0.00  0.00    +0.000 A 
ATOM      7  O   UNL     1       5.867   3.192  19.607  0.00  0.00    +0.000 OA
ATOM      8  H   UNL     1       8.059   4.280  19.388  0.00  0.00    +0.000 HD
ENDROOT
BRANCH   1  12
ATOM      9  C   UNL     1       1.669   3.878  19.328  0.00  0.00    +0.000 A 
ATOM     10  C   UNL     1       1.468   3.562  17.999  0.00  0.00    +0.000 A 
ATOM     11  S   UNL     1       2.879   3.884  17.095  0.00  0.00    +0.000 S 
ATOM     12  C   UNL     1       3.659   4.484  18.526  0.00  0.00    +0.000 A 
ATOM     13  N   UNL     1       2.928   4.380  19.622  0.00  0.00    +0.000 NA
BRANCH   9  15
ATOM     14  C   UNL     1       1.247   2.839  21.548  0.00  0.00    +0.000 C 
ATOM     15  C   UNL     1       0.683   3.708  20.435  0.00  0.00    +0.000 C 
ENDBRANCH   9  15
ENDBRANCH   1  12
BRANCH   2  16
ATOM     16  C   UNL     1       4.278   7.175  17.041  0.00  0.00    +0.000 C 
ATOM     17  C   UNL     1       3.117   7.868  17.741  0.00  0.00    +0.000 C 
ENDBRANCH   2  16
BRANCH   3  18
ATOM     18  C   UNL     1       7.054   8.012  17.211  0.00  0.00    +0.000 C 
ATOM     19  C   UNL     1       8.161   8.759  17.944  0.00  0.00    +0.000 C 
ENDBRANCH   3  18
TORSDOF 4
ENDMDL
