MODEL 1
REMARK VINA RESULT:      -8.7      0.000      0.000
REMARK  Name = 
REMARK  5 active torsions:
REMARK  status: ('A' for Active; 'I' for Inactive)
REMARK    1  A    between atoms: C_1  and  N_2
REMARK    2  A    between atoms: N_5  and  C_6
REMARK    3  A    between atoms: C_11  and  C_12
REMARK    4  A    between atoms: C_14  and  C_15
REMARK    5  A    between atoms: C_16  and  C_17
REMARK                            x       y       z     vdW  Elec       q    Type
REMARK                         _______ _______ _______ _____ _____    ______ ____
ROOT
ATOM      1  C   UNL     1       3.763   4.394  19.523  0.00  0.00    +0.000 A 
ATOM      2  C   UNL     1       4.063   3.054  19.809  0.00  0.00    +0.000 A 
ATOM      3  C   UNL     1       3.281   2.296  20.681  0.00  0.00    +0.000 A 
ATOM      4  C   UNL     1       2.195   2.877  21.310  0.00  0.00    +0.000 A 
ATOM      5  C   UNL     1       1.906   4.223  21.083  0.00  0.00    +0.000 A 
ATOM      6  C   UNL     1       2.683   5.010  20.201  0.00  0.00    +0.000 A 
ENDROOT
BRANCH   1  11
ATOM      7  C   UNL     1       7.604   6.942  17.860  0.00  0.00    +0.000 C 
ATOM      8  N   UNL     1       6.302   6.331  17.727  0.00  0.00    +0.000 N 
ATOM      9  C   UNL     1       5.835   5.546  18.763  0.00  0.00    +0.000 C 
ATOM     10  O   UNL     1       6.556   5.291  19.724  0.00  0.00    +0.000 OA
ATOM     11  N   UNL     1       4.537   5.131  18.576  0.00  0.00    +0.000 N 
ATOM     12  H   UNL     1       5.612   6.780  17.147  0.00  0.00    +0.000 HD
ATOM     13  H   UNL     1       4.198   5.093  17.618  0.00  0.00    +0.000 HD
ENDBRANCH   1  11
BRANCH   6  14
ATOM     14  C   UNL     1       2.302   6.418  20.007  0.00  0.00    +0.000 A 
ATOM     15  N   UNL     1       2.464   7.143  18.917  0.00  0.00    +0.000 NA
ATOM     16  C   UNL     1       1.829   8.347  19.154  0.00  0.00    +0.000 A 
ATOM     17  C   UNL     1       1.745   9.354  18.069  0.00  0.00    +0.000 C 
ATOM     18  C   UNL     1       1.364   8.419  20.461  0.00  0.00    +0.000 A 
ATOM     19  N   UNL     1       1.684   7.180  20.975  0.00  0.00    +0.000 N 
ATOM     20  H   UNL     1       1.470   6.856  21.906  0.00  0.00    +0.000 HD
BRANCH  18  21
ATOM     21  C   UNL     1       0.692   9.471  21.232  0.00  0.00    +0.000 A 
ATOM     22  C   UNL     1      -0.203   9.179  22.264  0.00  0.00    +0.000 A 
ATOM     23  C   UNL     1      -0.880  10.205  22.926  0.00  0.00    +0.000 A 
ATOM     24  C   UNL     1      -0.625  11.511  22.550  0.00  0.00    +0.000 A 
ATOM     25  N   UNL     1       0.253  11.846  21.584  0.00  0.00    +0.000 NA
ATOM     26  C   UNL     1       0.882  10.824  20.949  0.00  0.00    +0.000 A 
ENDBRANCH  18  21
ENDBRANCH   6  14
TORSDOF 3
ENDMDL
MODEL 2
REMARK VINA RESULT:      -8.2      1.318      1.319
REMARK  Name = 
REMARK  5 active torsions:
REMARK  status: ('A' for Active; 'I' for Inactive)
REMARK    1  A    between atoms: C_1  and  N_2
REMARK    2  A    between atoms: N_5  and  C_6
REMARK    3  A    between atoms: C_11  and  C_12
REMARK    4  A    between atoms: C_14  and  C_15
REMARK    5  A    between atoms: C_16  and  C_17
REMARK                            x       y       z     vdW  Elec       q    Type
REMARK                         _______ _______ _______ _____ _____    ______ ____
ROOT
ATOM      1  C   UNL     1       3.786   4.476  19.470  0.00  0.00    +0.000 A 
ATOM      2  C   UNL     1       4.121   3.148  19.772  0.00  0.00    +0.000 A 
ATOM      3  C   UNL     1       3.399   2.400  20.703  0.00  0.00    +0.000 A 
ATOM      4  C   UNL     1       2.338   2.982  21.375  0.00  0.00    +0.000 A 
ATOM      5  C   UNL     1       2.017   4.317  21.131  0.00  0.00    +0.000 A 
ATOM      6  C   UNL     1       2.734   5.093  20.190  0.00  0.00    +0.000 A 
ENDROOT
BRANCH   1  11
ATOM      7  C   UNL     1       5.734   5.304  15.050  0.00  0.00    +0.000 C 
ATOM      8  N   UNL     1       5.434   5.657  16.419  0.00  0.00    +0.000 N 
ATOM      9  C   UNL     1       4.599   4.830  17.144  0.00  0.00    +0.000 C 
ATOM     10  O   UNL     1       4.042   3.879  16.603  0.00  0.00    +0.000 OA
ATOM     11  N   UNL     1       4.497   5.200  18.465  0.00  0.00    +0.000 N 
ATOM     12  H   UNL     1       6.107   6.197  16.939  0.00  0.00    +0.000 HD
ATOM     13  H   UNL     1       4.692   6.172  18.689  0.00  0.00    +0.000 HD
ENDBRANCH   1  11
BRANCH   6  14
ATOM     14  C   UNL     1       2.321   6.490  19.982  0.00  0.00    +0.000 A 
ATOM     15  N   UNL     1       2.448   7.202  18.879  0.00  0.00    +0.000 NA
ATOM     16  C   UNL     1       1.794   8.397  19.111  0.00  0.00    +0.000 A 
ATOM     17  C   UNL     1       1.670   9.386  18.013  0.00  0.00    +0.000 C 
ATOM     18  C   UNL     1       1.351   8.478  20.425  0.00  0.00    +0.000 A 
ATOM     19  N   UNL     1       1.705   7.254  20.951  0.00  0.00    +0.000 N 
ATOM     20  H   UNL     1       1.515   6.940  21.890  0.00  0.00    +0.000 HD
BRANCH  18  21
ATOM     21  C   UNL     1       0.672   9.528  21.192  0.00  0.00    +0.000 A 
ATOM     22  C   UNL     1      -0.089   9.243  22.329  0.00  0.00    +0.000 A 
ATOM     23  C   UNL     1      -0.781  10.259  22.992  0.00  0.00    +0.000 A 
ATOM     24  C   UNL     1      -0.676  11.550  22.507  0.00  0.00    +0.000 A 
ATOM     25  N   UNL     1       0.071  11.881  21.436  0.00  0.00    +0.000 NA
ATOM     26  C   UNL     1       0.717  10.868  20.805  0.00  0.00    +0.000 A 
ENDBRANCH  18  21
ENDBRANCH   6  14
TORSDOF 3
ENDMDL
MODEL 3
REMARK VINA RESULT:      -8.1      2.940      7.328
REMARK  Name = 
REMARK  5 active torsions:
REMARK  status: ('A' for Active; 'I' for Inactive)
REMARK    1  A    between atoms: C_1  and  N_2
REMARK    2  A    between atoms: N_5  and  C_6
REMARK    3  A    between atoms: C_11  and  C_12
REMARK    4  A    between atoms: C_14  and  C_15
REMARK    5  A    between atoms: C_16  and  C_17
REMARK                            x       y       z     vdW  Elec       q    Type
REMARK                         _______ _______ _______ _____ _____    ______ ____
ROOT
ATOM      1  C   UNL     1       2.215   4.750  19.262  0.00  0.00    +0.000 A 
ATOM      2  C   UNL     1       1.095   4.387  20.026  0.00  0.00    +0.000 A 
ATOM      3  C   UNL     1       1.132   3.316  20.920  0.00  0.00    +0.000 A 
ATOM      4  C   UNL     1       2.287   2.565  21.044  0.00  0.00    +0.000 A 
ATOM      5  C   UNL     1       3.397   2.873  20.257  0.00  0.00    +0.000 A 
ATOM      6  C   UNL     1       3.384   3.955  19.347  0.00  0.00    +0.000 A 
ENDROOT
BRANCH   1  11
ATOM      7  C   UNL     1       1.851   9.497  18.102  0.00  0.00    +0.000 C 
ATOM      8  N   UNL     1       2.014   8.097  17.786  0.00  0.00    +0.000 N 
ATOM      9  C   UNL     1       2.161   7.200  18.826  0.00  0.00    +0.000 C 
ATOM     10  O   UNL     1       2.257   7.600  19.983  0.00  0.00    +0.000 OA
ATOM     11  N   UNL     1       2.176   5.891  18.405  0.00  0.00    +0.000 N 
ATOM     12  H   UNL     1       1.617   7.743  16.930  0.00  0.00    +0.000 HD
ATOM     13  H   UNL     1       2.456   5.719  17.443  0.00  0.00    +0.000 HD
ENDBRANCH   1  11
BRANCH   6  14
ATOM     14  C   UNL     1       4.602   4.221  18.565  0.00  0.00    +0.000 A 
ATOM     15  N   UNL     1       5.811   4.463  19.034  0.00  0.00    +0.000 NA
ATOM     16  C   UNL     1       6.650   4.507  17.937  0.00  0.00    +0.000 A 
ATOM     17  C   UNL     1       8.110   4.664  18.141  0.00  0.00    +0.000 C 
ATOM     18  C   UNL     1       5.931   4.408  16.752  0.00  0.00    +0.000 A 
ATOM     19  N   UNL     1       4.635   4.232  17.188  0.00  0.00    +0.000 N 
ATOM     20  H   UNL     1       3.830   4.094  16.596  0.00  0.00    +0.000 HD
BRANCH  18  21
ATOM     21  C   UNL     1       6.315   4.462  15.338  0.00  0.00    +0.000 A 
ATOM     22  C   UNL     1       5.713   3.649  14.373  0.00  0.00    +0.000 A 
ATOM     23  C   UNL     1       6.156   3.676  13.049  0.00  0.00    +0.000 A 
ATOM     24  C   UNL     1       7.184   4.538  12.715  0.00  0.00    +0.000 A 
ATOM     25  N   UNL     1       7.773   5.366  13.601  0.00  0.00    +0.000 NA
ATOM     26  C   UNL     1       7.331   5.303  14.883  0.00  0.00    +0.000 A 
ENDBRANCH  18  21
ENDBRANCH   6  14
TORSDOF 3
ENDMDL
MODEL 4
REMARK VINA RESULT:      -8.1      2.974      7.638
REMARK  Name = 
REMARK  5 active torsions:
REMARK  status: ('A' for Active; 'I' for Inactive)
REMARK    1  A    between atoms: C_1  and  N_2
REMARK    2  A    between atoms: N_5  and  C_6
REMARK    3  A    between atoms: C_11  and  C_12
REMARK    4  A    between atoms: C_14  and  C_15
REMARK    5  A    between atoms: C_16  and  C_17
REMARK                            x       y       z     vdW  Elec       q    Type
REMARK                         _______ _______ _______ _____ _____    ______ ____
ROOT
ATOM      1  C   UNL     1       2.200   6.933  20.037  0.00  0.00    +0.000 A 
ATOM      2  C   UNL     1       1.510   8.015  20.605  0.00  0.00    +0.000 A 
ATOM      3  C   UNL     1       1.160   9.139  19.856  0.00  0.00    +0.000 A 
ATOM      4  C   UNL     1       1.523   9.215  18.522  0.00  0.00    +0.000 A 
ATOM      5  C   UNL     1       2.255   8.176  17.948  0.00  0.00    +0.000 A 
ATOM      6  C   UNL     1       2.619   7.027  18.687  0.00  0.00    +0.000 A 
ENDROOT
BRANCH   1  11
ATOM      7  C   UNL     1       1.368   2.523  22.004  0.00  0.00    +0.000 C 
ATOM      8  N   UNL     1       2.169   3.700  21.759  0.00  0.00    +0.000 N 
ATOM      9  C   UNL     1       1.707   4.634  20.853  0.00  0.00    +0.000 C 
ATOM     10  O   UNL     1       0.694   4.414  20.195  0.00  0.00    +0.000 OA
ATOM     11  N   UNL     1       2.488   5.765  20.805  0.00  0.00    +0.000 N 
ATOM     12  H   UNL     1       2.776   4.035  22.490  0.00  0.00    +0.000 HD
ATOM     13  H   UNL     1       3.456   5.670  21.101  0.00  0.00    +0.000 HD
ENDBRANCH   1  11
BRANCH   6  14
ATOM     14  C   UNL     1       3.379   5.970  18.001  0.00  0.00    +0.000 A 
ATOM     15  N   UNL     1       3.344   4.675  18.249  0.00  0.00    +0.000 NA
ATOM     16  C   UNL     1       4.106   4.071  17.267  0.00  0.00    +0.000 A 
ATOM     17  C   UNL     1       4.183   2.591  17.210  0.00  0.00    +0.000 C 
ATOM     18  C   UNL     1       4.723   5.018  16.459  0.00  0.00    +0.000 A 
ATOM     19  N   UNL     1       4.244   6.212  16.955  0.00  0.00    +0.000 N 
ATOM     20  H   UNL     1       4.458   7.128  16.591  0.00  0.00    +0.000 HD
BRANCH  18  21
ATOM     21  C   UNL     1       5.664   4.921  15.338  0.00  0.00    +0.000 A 
ATOM     22  C   UNL     1       5.375   4.183  14.187  0.00  0.00    +0.000 A 
ATOM     23  C   UNL     1       6.325   4.052  13.172  0.00  0.00    +0.000 A 
ATOM     24  C   UNL     1       7.544   4.686  13.326  0.00  0.00    +0.000 A 
ATOM     25  N   UNL     1       7.859   5.436  14.401  0.00  0.00    +0.000 NA
ATOM     26  C   UNL     1       6.919   5.529  15.377  0.00  0.00    +0.000 A 
ENDBRANCH  18  21
ENDBRANCH   6  14
TORSDOF 3
ENDMDL
MODEL 5
REMARK VINA RESULT:      -8.1      2.434      4.125
REMARK  Name = 
REMARK  5 active torsions:
REMARK  status: ('A' for Active; 'I' for Inactive)
REMARK    1  A    between atoms: C_1  and  N_2
REMARK    2  A    between atoms: N_5  and  C_6
REMARK    3  A    between atoms: C_11  and  C_12
REMARK    4  A    between atoms: C_14  and  C_15
REMARK    5  A    between atoms: C_16  and  C_17
REMARK                            x       y       z     vdW  Elec       q    Type
REMARK                         _______ _______ _______ _____ _____    ______ ____
ROOT
ATOM      1  C   UNL     1       3.168   5.065  17.813  0.00  0.00    +0.000 A 
ATOM      2  C   UNL     1       3.998   4.274  17.005  0.00  0.00    +0.000 A 
ATOM      3  C   UNL     1       5.035   4.826  16.252  0.00  0.00    +0.000 A 
ATOM      4  C   UNL     1       5.243   6.194  16.271  0.00  0.00    +0.000 A 
ATOM      5  C   UNL     1       4.399   7.009  17.026  0.00  0.00    +0.000 A 
ATOM      6  C   UNL     1       3.344   6.470  17.798  0.00  0.00    +0.000 A 
ENDROOT
BRANCH   1  11
ATOM      7  C   UNL     1       1.343   2.547  21.599  0.00  0.00    +0.000 C 
ATOM      8  N   UNL     1       1.230   3.302  20.373  0.00  0.00    +0.000 N 
ATOM      9  C   UNL     1       2.366   3.894  19.858  0.00  0.00    +0.000 C 
ATOM     10  O   UNL     1       3.421   3.867  20.485  0.00  0.00    +0.000 OA
ATOM     11  N   UNL     1       2.157   4.470  18.626  0.00  0.00    +0.000 N 
ATOM     12  H   UNL     1       0.504   3.058  19.718  0.00  0.00    +0.000 HD
ATOM     13  H   UNL     1       1.204   4.743  18.400  0.00  0.00    +0.000 HD
ENDBRANCH   1  11
BRANCH   6  14
ATOM     14  C   UNL     1       2.509   7.399  18.577  0.00  0.00    +0.000 A 
ATOM     15  N   UNL     1       2.218   7.321  19.861  0.00  0.00    +0.000 NA
ATOM     16  C   UNL     1       1.532   8.479  20.175  0.00  0.00    +0.000 A 
ATOM     17  C   UNL     1       1.149   8.742  21.583  0.00  0.00    +0.000 C 
ATOM     18  C   UNL     1       1.288   9.239  19.038  0.00  0.00    +0.000 A 
ATOM     19  N   UNL     1       1.917   8.523  18.042  0.00  0.00    +0.000 N 
ATOM     20  H   UNL     1       1.974   8.791  17.071  0.00  0.00    +0.000 HD
BRANCH  18  21
ATOM     21  C   UNL     1       0.564  10.493  18.805  0.00  0.00    +0.000 A 
ATOM     22  C   UNL     1      -0.789  10.516  18.457  0.00  0.00    +0.000 A 
ATOM     23  C   UNL     1      -1.427  11.725  18.171  0.00  0.00    +0.000 A 
ATOM     24  C   UNL     1      -0.693  12.894  18.263  0.00  0.00    +0.000 A 
ATOM     25  N   UNL     1       0.604  12.928  18.626  0.00  0.00    +0.000 NA
ATOM     26  C   UNL     1       1.199  11.734  18.881  0.00  0.00    +0.000 A 
ENDBRANCH  18  21
ENDBRANCH   6  14
TORSDOF 3
ENDMDL
MODEL 6
REMARK VINA RESULT:      -8.1      1.566      1.669
REMARK  Name = 
REMARK  5 active torsions:
REMARK  status: ('A' for Active; 'I' for Inactive)
REMARK    1  A    between atoms: C_1  and  N_2
REMARK    2  A    between atoms: N_5  and  C_6
REMARK    3  A    between atoms: C_11  and  C_12
REMARK    4  A    between atoms: C_14  and  C_15
REMARK    5  A    between atoms: C_16  and  C_17
REMARK                            x       y       z     vdW  Elec       q    Type
REMARK                         _______ _______ _______ _____ _____    ______ ____
ROOT
ATOM      1  C   UNL     1       3.932   5.034  17.442  0.00  0.00    +0.000 A 
ATOM      2  C   UNL     1       4.171   3.675  17.188  0.00  0.00    +0.000 A 
ATOM      3  C   UNL     1       3.261   2.686  17.564  0.00  0.00    +0.000 A 
ATOM      4  C   UNL     1       2.102   3.039  18.232  0.00  0.00    +0.000 A 
ATOM      5  C   UNL     1       1.866   4.378  18.543  0.00  0.00    +0.000 A 
ATOM      6  C   UNL     1       2.773   5.397  18.169  0.00  0.00    +0.000 A 
ENDROOT
BRANCH   1  11
ATOM      7  C   UNL     1       7.835   7.990  17.646  0.00  0.00    +0.000 C 
ATOM      8  N   UNL     1       6.656   7.446  17.013  0.00  0.00    +0.000 N 
ATOM      9  C   UNL     1       6.023   6.374  17.610  0.00  0.00    +0.000 C 
ATOM     10  O   UNL     1       6.516   5.832  18.596  0.00  0.00    +0.000 OA
ATOM     11  N   UNL     1       4.845   6.034  16.988  0.00  0.00    +0.000 N 
ATOM     12  H   UNL     1       6.087   8.053  16.443  0.00  0.00    +0.000 HD
ATOM     13  H   UNL     1       4.745   6.298  16.011  0.00  0.00    +0.000 HD
ENDBRANCH   1  11
BRANCH   6  14
ATOM     14  C   UNL     1       2.441   6.787  18.523  0.00  0.00    +0.000 A 
ATOM     15  N   UNL     1       2.663   7.867  17.799  0.00  0.00    +0.000 NA
ATOM     16  C   UNL     1       2.057   8.913  18.468  0.00  0.00    +0.000 A 
ATOM     17  C   UNL     1       2.043  10.262  17.852  0.00  0.00    +0.000 C 
ATOM     18  C   UNL     1       1.548   8.497  19.692  0.00  0.00    +0.000 A 
ATOM     19  N   UNL     1       1.812   7.144  19.696  0.00  0.00    +0.000 N 
ATOM     20  H   UNL     1       1.556   6.498  20.426  0.00  0.00    +0.000 HD
BRANCH  18  21
ATOM     21  C   UNL     1       0.881   9.200  20.792  0.00  0.00    +0.000 A 
ATOM     22  C   UNL     1       0.128   8.526  21.757  0.00  0.00    +0.000 A 
ATOM     23  C   UNL     1      -0.553   9.236  22.748  0.00  0.00    +0.000 A 
ATOM     24  C   UNL     1      -0.445  10.614  22.762  0.00  0.00    +0.000 A 
ATOM     25  N   UNL     1       0.295  11.308  21.876  0.00  0.00    +0.000 NA
ATOM     26  C   UNL     1       0.931  10.590  20.915  0.00  0.00    +0.000 A 
ENDBRANCH  18  21
ENDBRANCH   6  14
TORSDOF 3
ENDMDL
MODEL 7
REMARK VINA RESULT:      -8.0      2.430      4.209
REMARK  Name = 
REMARK  5 active torsions:
REMARK  status: ('A' for Active; 'I' for Inactive)
REMARK    1  A    between atoms: C_1  and  N_2
REMARK    2  A    between atoms: N_5  and  C_6
REMARK    3  A    between atoms: C_11  and  C_12
REMARK    4  A    between atoms: C_14  and  C_15
REMARK    5  A    between atoms: C_16  and  C_17
REMARK                            x       y       z     vdW  Elec       q    Type
REMARK                         _______ _______ _______ _____ _____    ______ ____
ROOT
ATOM      1  C   UNL     1       3.176   5.043  17.796  0.00  0.00    +0.000 A 
ATOM      2  C   UNL     1       3.994   4.223  17.004  0.00  0.00    +0.000 A 
ATOM      3  C   UNL     1       5.037   4.746  16.238  0.00  0.00    +0.000 A 
ATOM      4  C   UNL     1       5.263   6.111  16.228  0.00  0.00    +0.000 A 
ATOM      5  C   UNL     1       4.431   6.952  16.966  0.00  0.00    +0.000 A 
ATOM      6  C   UNL     1       3.370   6.445  17.751  0.00  0.00    +0.000 A 
ENDROOT
BRANCH   1  11
ATOM      7  C   UNL     1       1.328   2.554  21.592  0.00  0.00    +0.000 C 
ATOM      8  N   UNL     1       1.221   3.327  20.376  0.00  0.00    +0.000 N 
ATOM      9  C   UNL     1       2.369   3.880  19.844  0.00  0.00    +0.000 C 
ATOM     10  O   UNL     1       3.434   3.804  20.450  0.00  0.00    +0.000 OA
ATOM     11  N   UNL     1       2.158   4.478  18.623  0.00  0.00    +0.000 N 
ATOM     12  H   UNL     1       0.474   3.119  19.733  0.00  0.00    +0.000 HD
ATOM     13  H   UNL     1       1.213   4.791  18.419  0.00  0.00    +0.000 HD
ENDBRANCH   1  11
BRANCH   6  14
ATOM     14  C   UNL     1       2.548   7.400  18.512  0.00  0.00    +0.000 A 
ATOM     15  N   UNL     1       2.197   7.314  19.780  0.00  0.00    +0.000 NA
ATOM     16  C   UNL     1       1.556   8.500  20.086  0.00  0.00    +0.000 A 
ATOM     17  C   UNL     1       1.125   8.757  21.481  0.00  0.00    +0.000 C 
ATOM     18  C   UNL     1       1.402   9.292  18.955  0.00  0.00    +0.000 A 
ATOM     19  N   UNL     1       2.038   8.562  17.974  0.00  0.00    +0.000 N 
ATOM     20  H   UNL     1       2.151   8.844  17.012  0.00  0.00    +0.000 HD
BRANCH  18  21
ATOM     21  C   UNL     1       0.752  10.585  18.717  0.00  0.00    +0.000 A 
ATOM     22  C   UNL     1       1.463  11.788  18.738  0.00  0.00    +0.000 A 
ATOM     23  C   UNL     1       0.798  13.006  18.580  0.00  0.00    +0.000 A 
ATOM     24  C   UNL     1      -0.570  12.988  18.381  0.00  0.00    +0.000 A 
ATOM     25  N   UNL     1      -1.295  11.854  18.320  0.00  0.00    +0.000 NA
ATOM     26  C   UNL     1      -0.621  10.688  18.494  0.00  0.00    +0.000 A 
ENDBRANCH  18  21
ENDBRANCH   6  14
TORSDOF 3
ENDMDL
MODEL 8
REMARK VINA RESULT:      -8.0      3.030      6.979
REMARK  Name = 
REMARK  5 active torsions:
REMARK  status: ('A' for Active; 'I' for Inactive)
REMARK    1  A    between atoms: C_1  and  N_2
REMARK    2  A    between atoms: N_5  and  C_6
REMARK    3  A    between atoms: C_11  and  C_12
REMARK    4  A    between atoms: C_14  and  C_15
REMARK    5  A    between atoms: C_16  and  C_17
REMARK                            x       y       z     vdW  Elec       q    Type
REMARK                         _______ _______ _______ _____ _____    ______ ____
ROOT
ATOM      1  C   UNL     1       2.490   4.682  20.514  0.00  0.00    +0.000 A 
ATOM      2  C   UNL     1       1.473   4.080  21.269  0.00  0.00    +0.000 A 
ATOM      3  C   UNL     1       1.519   2.730  21.620  0.00  0.00    +0.000 A 
ATOM      4  C   UNL     1       2.577   1.946  21.194  0.00  0.00    +0.000 A 
ATOM      5  C   UNL     1       3.574   2.509  20.398  0.00  0.00    +0.000 A 
ATOM      6  C   UNL     1       3.549   3.875  20.032  0.00  0.00    +0.000 A 
ENDROOT
BRANCH   1  11
ATOM      7  C   UNL     1       2.318   8.692  17.702  0.00  0.00    +0.000 C 
ATOM      8  N   UNL     1       2.375   8.003  18.970  0.00  0.00    +0.000 N 
ATOM      9  C   UNL     1       2.254   6.627  18.978  0.00  0.00    +0.000 C 
ATOM     10  O   UNL     1       1.998   6.020  17.942  0.00  0.00    +0.000 OA
ATOM     11  N   UNL     1       2.456   6.080  20.224  0.00  0.00    +0.000 N 
ATOM     12  H   UNL     1       2.894   8.420  19.726  0.00  0.00    +0.000 HD
ATOM     13  H   UNL     1       2.292   6.683  21.025  0.00  0.00    +0.000 HD
ENDBRANCH   1  11
BRANCH   6  14
ATOM     14  C   UNL     1       4.649   4.393  19.202  0.00  0.00    +0.000 A 
ATOM     15  N   UNL     1       5.716   5.051  19.615  0.00  0.00    +0.000 NA
ATOM     16  C   UNL     1       6.529   5.203  18.508  0.00  0.00    +0.000 A 
ATOM     17  C   UNL     1       7.867   5.822  18.665  0.00  0.00    +0.000 C 
ATOM     18  C   UNL     1       5.905   4.733  17.359  0.00  0.00    +0.000 A 
ATOM     19  N   UNL     1       4.712   4.231  17.835  0.00  0.00    +0.000 N 
ATOM     20  H   UNL     1       4.002   3.777  17.280  0.00  0.00    +0.000 HD
BRANCH  18  21
ATOM     21  C   UNL     1       6.290   4.714  15.944  0.00  0.00    +0.000 A 
ATOM     22  C   UNL     1       5.622   3.925  15.004  0.00  0.00    +0.000 A 
ATOM     23  C   UNL     1       6.063   3.875  13.679  0.00  0.00    +0.000 A 
ATOM     24  C   UNL     1       7.158   4.640  13.322  0.00  0.00    +0.000 A 
ATOM     25  N   UNL     1       7.815   5.442  14.183  0.00  0.00    +0.000 NA
ATOM     26  C   UNL     1       7.371   5.454  15.466  0.00  0.00    +0.000 A 
ENDBRANCH  18  21
ENDBRANCH   6  14
TORSDOF 3
ENDMDL
MODEL 9
REMARK VINA RESULT:      -7.9      1.002      1.002
REMARK  Name = 
REMARK  5 active torsions:
REMARK  status: ('A' for Active; 'I' for Inactive)
REMARK    1  A    between atoms: C_1  and  N_2
REMARK    2  A    between atoms: N_5  and  C_6
REMARK    3  A    between atoms: C_11  and  C_12
REMARK    4  A    between atoms: C_14  and  C_15
REMARK    5  A    between atoms: C_16  and  C_17
REMARK                            x       y       z     vdW  Elec       q    Type
REMARK                         _______ _______ _______ _____ _____    ______ ____
ROOT
ATOM      1  C   UNL     1       3.926   4.338  19.386  0.00  0.00    +0.000 A 
ATOM      2  C   UNL     1       4.109   2.947  19.415  0.00  0.00    +0.000 A 
ATOM      3  C   UNL     1       3.030   2.063  19.395  0.00  0.00    +0.000 A 
ATOM      4  C   UNL     1       1.738   2.558  19.373  0.00  0.00    +0.000 A 
ATOM      5  C   UNL     1       1.528   3.937  19.396  0.00  0.00    +0.000 A 
ATOM      6  C   UNL     1       2.607   4.851  19.415  0.00  0.00    +0.000 A 
ENDROOT
BRANCH   1  11
ATOM      7  C   UNL     1       7.572   6.879  17.320  0.00  0.00    +0.000 C 
ATOM      8  N   UNL     1       6.773   6.441  18.441  0.00  0.00    +0.000 N 
ATOM      9  C   UNL     1       5.645   5.686  18.191  0.00  0.00    +0.000 C 
ATOM     10  O   UNL     1       5.274   5.485  17.038  0.00  0.00    +0.000 OA
ATOM     11  N   UNL     1       5.046   5.222  19.340  0.00  0.00    +0.000 N 
ATOM     12  H   UNL     1       7.221   6.311  19.335  0.00  0.00    +0.000 HD
ATOM     13  H   UNL     1       5.219   5.745  20.194  0.00  0.00    +0.000 HD
ENDBRANCH   1  11
BRANCH   6  14
ATOM     14  C   UNL     1       2.298   6.290  19.424  0.00  0.00    +0.000 A 
ATOM     15  N   UNL     1       2.516   7.157  18.454  0.00  0.00    +0.000 NA
ATOM     16  C   UNL     1       1.937   8.345  18.857  0.00  0.00    +0.000 A 
ATOM     17  C   UNL     1       1.923   9.502  17.930  0.00  0.00    +0.000 C 
ATOM     18  C   UNL     1       1.450   8.249  20.155  0.00  0.00    +0.000 A 
ATOM     19  N   UNL     1       1.700   6.934  20.486  0.00  0.00    +0.000 N 
ATOM     20  H   UNL     1       1.452   6.490  21.357  0.00  0.00    +0.000 HD
BRANCH  18  21
ATOM     21  C   UNL     1       0.816   9.211  21.063  0.00  0.00    +0.000 A 
ATOM     22  C   UNL     1       0.030   8.804  22.144  0.00  0.00    +0.000 A 
ATOM     23  C   UNL     1      -0.618   9.749  22.943  0.00  0.00    +0.000 A 
ATOM     24  C   UNL     1      -0.445  11.089  22.650  0.00  0.00    +0.000 A 
ATOM     25  N   UNL     1       0.328  11.532  21.639  0.00  0.00    +0.000 NA
ATOM     26  C   UNL     1       0.931  10.588  20.872  0.00  0.00    +0.000 A 
ENDBRANCH  18  21
ENDBRANCH   6  14
TORSDOF 3
ENDMDL
