MODEL 1
REMARK VINA RESULT:      -6.9      0.000      0.000
REMARK  Name = 
REMARK  3 active torsions:
REMARK  status: ('A' for Active; 'I' for Inactive)
REMARK    1  A    between atoms: N_1  and  C_2
REMARK    2  A    between atoms: C_2  and  C_3
REMARK    3  A    between atoms: C_6  and  C_7
REMARK                            x       y       z     vdW  Elec       q    Type
REMARK                         _______ _______ _______ _____ _____    ______ ____
ROOT
ATOM      1  C   UNL     1       6.817   4.813  14.517  0.00  0.00    +0.000 A 
ATOM      2  C   UNL     1       7.400   5.034  15.772  0.00  0.00    +0.000 A 
ATOM      3  C   UNL     1       6.640   4.920  16.939  0.00  0.00    +0.000 A 
ATOM      4  C   UNL     1       5.281   4.580  16.879  0.00  0.00    +0.000 A 
ATOM      5  C   UNL     1       4.685   4.430  15.619  0.00  0.00    +0.000 A 
ATOM      6  C   UNL     1       5.445   4.542  14.450  0.00  0.00    +0.000 A 
ENDROOT
BRANCH   4   7
ATOM      7  C   UNL     1       4.555   4.277  18.110  0.00  0.00    +0.000 A 
ATOM      8  N   UNL     1       4.897   3.467  19.098  0.00  0.00    +0.000 NA
ATOM      9  C   UNL     1       3.747   3.351  19.837  0.00  0.00    +0.000 A 
ATOM     10  C   UNL     1       3.444   2.568  20.957  0.00  0.00    +0.000 A 
ATOM     11  C   UNL     1       2.137   2.617  21.464  0.00  0.00    +0.000 A 
ATOM     12  C   UNL     1       1.165   3.443  20.883  0.00  0.00    +0.000 A 
ATOM     13  C   UNL     1       1.459   4.249  19.779  0.00  0.00    +0.000 A 
ATOM     14  C   UNL     1       2.757   4.150  19.292  0.00  0.00    +0.000 A 
ATOM     15  O   UNL     1       3.276   4.771  18.197  0.00  0.00    +0.000 OA
ENDBRANCH   4   7
BRANCH   1  16
ATOM     16  C   UNL     1       7.659   4.822  13.267  0.00  0.00    +0.000 C 
BRANCH  16  17
ATOM     17  N   UNL     1       8.657   5.885  13.313  0.00  0.00    +0.000 NA
ATOM     18  H   UNL     1       8.255   6.704  13.763  0.00  0.00    +0.000 HD
ATOM     19  H   UNL     1       8.885   6.163  12.358  0.00  0.00    +0.000 HD
ENDBRANCH  16  17
ENDBRANCH   1  16
TORSDOF 3
ENDMDL
MODEL 2
REMARK VINA RESULT:      -6.9      0.461      1.146
REMARK  Name = 
REMARK  3 active torsions:
REMARK  status: ('A' for Active; 'I' for Inactive)
REMARK    1  A    between atoms: N_1  and  C_2
REMARK    2  A    between atoms: C_2  and  C_3
REMARK    3  A    between atoms: C_6  and  C_7
REMARK                            x       y       z     vdW  Elec       q    Type
REMARK                         _______ _______ _______ _____ _____    ______ ____
ROOT
ATOM      1  C   UNL     1       6.933   4.808  14.542  0.00  0.00    +0.000 A 
ATOM      2  C   UNL     1       6.007   3.759  14.619  0.00  0.00    +0.000 A 
ATOM      3  C   UNL     1       5.334   3.493  15.814  0.00  0.00    +0.000 A 
ATOM      4  C   UNL     1       5.567   4.270  16.958  0.00  0.00    +0.000 A 
ATOM      5  C   UNL     1       6.546   5.272  16.896  0.00  0.00    +0.000 A 
ATOM      6  C   UNL     1       7.220   5.541  15.700  0.00  0.00    +0.000 A 
ENDROOT
BRANCH   4   7
ATOM      7  C   UNL     1       4.717   4.101  18.134  0.00  0.00    +0.000 A 
ATOM      8  N   UNL     1       4.931   3.372  19.216  0.00  0.00    +0.000 NA
ATOM      9  C   UNL     1       3.713   3.360  19.847  0.00  0.00    +0.000 A 
ATOM     10  C   UNL     1       3.274   2.690  20.995  0.00  0.00    +0.000 A 
ATOM     11  C   UNL     1       1.929   2.826  21.366  0.00  0.00    +0.000 A 
ATOM     12  C   UNL     1       1.050   3.628  20.626  0.00  0.00    +0.000 A 
ATOM     13  C   UNL     1       1.479   4.323  19.490  0.00  0.00    +0.000 A 
ATOM     14  C   UNL     1       2.812   4.139  19.142  0.00  0.00    +0.000 A 
ATOM     15  O   UNL     1       3.456   4.642  18.053  0.00  0.00    +0.000 OA
ENDBRANCH   4   7
BRANCH   1  16
ATOM     16  C   UNL     1       7.575   5.171  13.227  0.00  0.00    +0.000 C 
BRANCH  16  17
ATOM     17  N   UNL     1       8.809   5.921  13.435  0.00  0.00    +0.000 NA
ATOM     18  H   UNL     1       8.593   6.805  13.889  0.00  0.00    +0.000 HD
ATOM     19  H   UNL     1       9.210   6.153  12.526  0.00  0.00    +0.000 HD
ENDBRANCH  16  17
ENDBRANCH   1  16
TORSDOF 3
ENDMDL
MODEL 3
REMARK VINA RESULT:      -6.9      1.086      1.634
REMARK  Name = 
REMARK  3 active torsions:
REMARK  status: ('A' for Active; 'I' for Inactive)
REMARK    1  A    between atoms: N_1  and  C_2
REMARK    2  A    between atoms: C_2  and  C_3
REMARK    3  A    between atoms: C_6  and  C_7
REMARK                            x       y       z     vdW  Elec       q    Type
REMARK                         _______ _______ _______ _____ _____    ______ ____
ROOT
ATOM      1  C   UNL     1       6.970   4.765  14.155  0.00  0.00    +0.000 A 
ATOM      2  C   UNL     1       5.784   4.037  13.992  0.00  0.00    +0.000 A 
ATOM      3  C   UNL     1       5.003   3.694  15.099  0.00  0.00    +0.000 A 
ATOM      4  C   UNL     1       5.387   4.073  16.393  0.00  0.00    +0.000 A 
ATOM      5  C   UNL     1       6.611   4.738  16.558  0.00  0.00    +0.000 A 
ATOM      6  C   UNL     1       7.393   5.083  15.452  0.00  0.00    +0.000 A 
ENDROOT
BRANCH   4   7
ATOM      7  C   UNL     1       4.466   3.876  17.510  0.00  0.00    +0.000 A 
ATOM      8  N   UNL     1       3.698   2.834  17.778  0.00  0.00    +0.000 NA
ATOM      9  C   UNL     1       2.856   3.294  18.759  0.00  0.00    +0.000 A 
ATOM     10  C   UNL     1       1.765   2.692  19.397  0.00  0.00    +0.000 A 
ATOM     11  C   UNL     1       1.045   3.451  20.331  0.00  0.00    +0.000 A 
ATOM     12  C   UNL     1       1.417   4.766  20.639  0.00  0.00    +0.000 A 
ATOM     13  C   UNL     1       2.520   5.374  20.027  0.00  0.00    +0.000 A 
ATOM     14  C   UNL     1       3.188   4.597  19.088  0.00  0.00    +0.000 A 
ATOM     15  O   UNL     1       4.240   4.971  18.310  0.00  0.00    +0.000 OA
ENDBRANCH   4   7
BRANCH   1  16
ATOM     16  C   UNL     1       7.754   5.235  12.957  0.00  0.00    +0.000 C 
BRANCH  16  17
ATOM     17  N   UNL     1       8.931   5.995  13.364  0.00  0.00    +0.000 NA
ATOM     18  H   UNL     1       9.750   5.394  13.323  0.00  0.00    +0.000 HD
ATOM     19  H   UNL     1       8.823   6.268  14.342  0.00  0.00    +0.000 HD
ENDBRANCH  16  17
ENDBRANCH   1  16
TORSDOF 3
ENDMDL
MODEL 4
REMARK VINA RESULT:      -6.9      1.159      1.652
REMARK  Name = 
REMARK  3 active torsions:
REMARK  status: ('A' for Active; 'I' for Inactive)
REMARK    1  A    between atoms: N_1  and  C_2
REMARK    2  A    between atoms: C_2  and  C_3
REMARK    3  A    between atoms: C_6  and  C_7
REMARK                            x       y       z     vdW  Elec       q    Type
REMARK                         _______ _______ _______ _____ _____    ______ ____
ROOT
ATOM      1  C   UNL     1       6.955   4.846  14.198  0.00  0.00    +0.000 A 
ATOM      2  C   UNL     1       5.875   3.957  14.111  0.00  0.00    +0.000 A 
ATOM      3  C   UNL     1       4.979   3.822  15.174  0.00  0.00    +0.000 A 
ATOM      4  C   UNL     1       5.138   4.574  16.347  0.00  0.00    +0.000 A 
ATOM      5  C   UNL     1       6.260   5.409  16.458  0.00  0.00    +0.000 A 
ATOM      6  C   UNL     1       7.157   5.546  15.394  0.00  0.00    +0.000 A 
ENDROOT
BRANCH   4   7
ATOM      7  C   UNL     1       4.089   4.564  17.363  0.00  0.00    +0.000 A 
ATOM      8  N   UNL     1       4.077   5.145  18.550  0.00  0.00    +0.000 NA
ATOM      9  C   UNL     1       2.994   4.583  19.178  0.00  0.00    +0.000 A 
ATOM     10  C   UNL     1       2.506   4.723  20.482  0.00  0.00    +0.000 A 
ATOM     11  C   UNL     1       1.395   3.955  20.859  0.00  0.00    +0.000 A 
ATOM     12  C   UNL     1       0.771   3.088  19.951  0.00  0.00    +0.000 A 
ATOM     13  C   UNL     1       1.233   2.954  18.637  0.00  0.00    +0.000 A 
ATOM     14  C   UNL     1       2.352   3.712  18.314  0.00  0.00    +0.000 A 
ATOM     15  O   UNL     1       3.033   3.714  17.135  0.00  0.00    +0.000 OA
ENDBRANCH   4   7
BRANCH   1  16
ATOM     16  C   UNL     1       7.856   5.079  13.012  0.00  0.00    +0.000 C 
BRANCH  16  17
ATOM     17  N   UNL     1       8.920   6.022  13.339  0.00  0.00    +0.000 NA
ATOM     18  H   UNL     1       9.282   5.813  14.266  0.00  0.00    +0.000 HD
ATOM     19  H   UNL     1       8.523   6.961  13.389  0.00  0.00    +0.000 HD
ENDBRANCH  16  17
ENDBRANCH   1  16
TORSDOF 3
ENDMDL
MODEL 5
REMARK VINA RESULT:      -6.7      2.802      3.387
REMARK  Name = 
REMARK  3 active torsions:
REMARK  status: ('A' for Active; 'I' for Inactive)
REMARK    1  A    between atoms: N_1  and  C_2
REMARK    2  A    between atoms: C_2  and  C_3
REMARK    3  A    between atoms: C_6  and  C_7
REMARK                            x       y       z     vdW  Elec       q    Type
REMARK                         _______ _______ _______ _____ _____    ______ ____
ROOT
ATOM      1  C   UNL     1       7.644   7.665  17.914  0.00  0.00    +0.000 A 
ATOM      2  C   UNL     1       6.454   7.666  17.174  0.00  0.00    +0.000 A 
ATOM      3  C   UNL     1       5.517   6.642  17.334  0.00  0.00    +0.000 A 
ATOM      4  C   UNL     1       5.746   5.594  18.237  0.00  0.00    +0.000 A 
ATOM      5  C   UNL     1       6.970   5.558  18.921  0.00  0.00    +0.000 A 
ATOM      6  C   UNL     1       7.908   6.584  18.764  0.00  0.00    +0.000 A 
ENDROOT
BRANCH   4   7
ATOM      7  C   UNL     1       4.677   4.643  18.530  0.00  0.00    +0.000 A 
ATOM      8  N   UNL     1       4.243   3.630  17.800  0.00  0.00    +0.000 NA
ATOM      9  C   UNL     1       3.070   3.266  18.411  0.00  0.00    +0.000 A 
ATOM     10  C   UNL     1       2.104   2.315  18.063  0.00  0.00    +0.000 A 
ATOM     11  C   UNL     1       0.958   2.214  18.865  0.00  0.00    +0.000 A 
ATOM     12  C   UNL     1       0.791   3.022  19.998  0.00  0.00    +0.000 A 
ATOM     13  C   UNL     1       1.760   3.960  20.372  0.00  0.00    +0.000 A 
ATOM     14  C   UNL     1       2.866   4.048  19.535  0.00  0.00    +0.000 A 
ATOM     15  O   UNL     1       3.908   4.918  19.635  0.00  0.00    +0.000 OA
ENDBRANCH   4   7
BRANCH   1  16
ATOM     16  C   UNL     1       8.602   8.826  17.830  0.00  0.00    +0.000 C 
BRANCH  16  17
ATOM     17  N   UNL     1       9.015   9.262  19.159  0.00  0.00    +0.000 NA
ATOM     18  H   UNL     1       8.361   8.902  19.850  0.00  0.00    +0.000 HD
ATOM     19  H   UNL     1       8.952  10.280  19.206  0.00  0.00    +0.000 HD
ENDBRANCH  16  17
ENDBRANCH   1  16
TORSDOF 3
ENDMDL
MODEL 6
REMARK VINA RESULT:      -6.6      1.039      1.908
REMARK  Name = 
REMARK  3 active torsions:
REMARK  status: ('A' for Active; 'I' for Inactive)
REMARK    1  A    between atoms: N_1  and  C_2
REMARK    2  A    between atoms: C_2  and  C_3
REMARK    3  A    between atoms: C_6  and  C_7
REMARK                            x       y       z     vdW  Elec       q    Type
REMARK                         _______ _______ _______ _____ _____    ______ ____
ROOT
ATOM      1  C   UNL     1       6.973   4.749  14.113  0.00  0.00    +0.000 A 
ATOM      2  C   UNL     1       5.718   4.158  13.913  0.00  0.00    +0.000 A 
ATOM      3  C   UNL     1       4.860   3.930  14.992  0.00  0.00    +0.000 A 
ATOM      4  C   UNL     1       5.234   4.290  16.294  0.00  0.00    +0.000 A 
ATOM      5  C   UNL     1       6.518   4.815  16.499  0.00  0.00    +0.000 A 
ATOM      6  C   UNL     1       7.378   5.045  15.421  0.00  0.00    +0.000 A 
ENDROOT
BRANCH   4   7
ATOM      7  C   UNL     1       4.253   4.223  17.375  0.00  0.00    +0.000 A 
ATOM      8  N   UNL     1       3.417   5.157  17.797  0.00  0.00    +0.000 NA
ATOM      9  C   UNL     1       2.946   4.660  18.985  0.00  0.00    +0.000 A 
ATOM     10  C   UNL     1       2.097   5.217  19.948  0.00  0.00    +0.000 A 
ATOM     11  C   UNL     1       1.842   4.478  21.112  0.00  0.00    +0.000 A 
ATOM     12  C   UNL     1       2.399   3.206  21.300  0.00  0.00    +0.000 A 
ATOM     13  C   UNL     1       3.231   2.625  20.336  0.00  0.00    +0.000 A 
ATOM     14  C   UNL     1       3.479   3.402  19.211  0.00  0.00    +0.000 A 
ATOM     15  O   UNL     1       4.300   3.101  18.167  0.00  0.00    +0.000 OA
ENDBRANCH   4   7
BRANCH   1  16
ATOM     16  C   UNL     1       7.852   5.102  12.940  0.00  0.00    +0.000 C 
BRANCH  16  17
ATOM     17  N   UNL     1       8.914   6.020  13.338  0.00  0.00    +0.000 NA
ATOM     18  H   UNL     1       8.631   6.973  13.126  0.00  0.00    +0.000 HD
ATOM     19  H   UNL     1       9.741   5.831  12.771  0.00  0.00    +0.000 HD
ENDBRANCH  16  17
ENDBRANCH   1  16
TORSDOF 3
ENDMDL
MODEL 7
REMARK VINA RESULT:      -6.5      2.073      6.880
REMARK  Name = 
REMARK  3 active torsions:
REMARK  status: ('A' for Active; 'I' for Inactive)
REMARK    1  A    between atoms: N_1  and  C_2
REMARK    2  A    between atoms: C_2  and  C_3
REMARK    3  A    between atoms: C_6  and  C_7
REMARK                            x       y       z     vdW  Elec       q    Type
REMARK                         _______ _______ _______ _____ _____    ______ ____
ROOT
ATOM      1  C   UNL     1       3.073   5.324  19.417  0.00  0.00    +0.000 A 
ATOM      2  C   UNL     1       3.194   6.316  18.436  0.00  0.00    +0.000 A 
ATOM      3  C   UNL     1       4.104   6.169  17.385  0.00  0.00    +0.000 A 
ATOM      4  C   UNL     1       4.911   5.027  17.290  0.00  0.00    +0.000 A 
ATOM      5  C   UNL     1       4.838   4.070  18.313  0.00  0.00    +0.000 A 
ATOM      6  C   UNL     1       3.927   4.215  19.364  0.00  0.00    +0.000 A 
ENDROOT
BRANCH   4   7
ATOM      7  C   UNL     1       5.711   4.803  16.088  0.00  0.00    +0.000 A 
ATOM      8  N   UNL     1       6.754   5.484  15.646  0.00  0.00    +0.000 NA
ATOM      9  C   UNL     1       6.927   5.022  14.366  0.00  0.00    +0.000 A 
ATOM     10  C   UNL     1       7.811   5.413  13.354  0.00  0.00    +0.000 A 
ATOM     11  C   UNL     1       7.704   4.786  12.104  0.00  0.00    +0.000 A 
ATOM     12  C   UNL     1       6.757   3.778  11.877  0.00  0.00    +0.000 A 
ATOM     13  C   UNL     1       5.882   3.359  12.886  0.00  0.00    +0.000 A 
ATOM     14  C   UNL     1       6.003   4.026  14.099  0.00  0.00    +0.000 A 
ATOM     15  O   UNL     1       5.235   3.858  15.211  0.00  0.00    +0.000 OA
ENDBRANCH   4   7
BRANCH   1  16
ATOM     16  C   UNL     1       2.014   5.425  20.485  0.00  0.00    +0.000 C 
BRANCH  16  17
ATOM     17  N   UNL     1       1.821   6.808  20.905  0.00  0.00    +0.000 NA
ATOM     18  H   UNL     1       2.603   7.095  21.489  0.00  0.00    +0.000 HD
ATOM     19  H   UNL     1       0.988   6.861  21.492  0.00  0.00    +0.000 HD
ENDBRANCH  16  17
ENDBRANCH   1  16
TORSDOF 3
ENDMDL
MODEL 8
REMARK VINA RESULT:      -6.5      3.852      4.702
REMARK  Name = 
REMARK  3 active torsions:
REMARK  status: ('A' for Active; 'I' for Inactive)
REMARK    1  A    between atoms: N_1  and  C_2
REMARK    2  A    between atoms: C_2  and  C_3
REMARK    3  A    between atoms: C_6  and  C_7
REMARK                            x       y       z     vdW  Elec       q    Type
REMARK                         _______ _______ _______ _____ _____    ______ ____
ROOT
ATOM      1  C   UNL     1       5.203   4.784  16.286  0.00  0.00    +0.000 A 
ATOM      2  C   UNL     1       4.167   4.260  17.070  0.00  0.00    +0.000 A 
ATOM      3  C   UNL     1       3.355   5.105  17.831  0.00  0.00    +0.000 A 
ATOM      4  C   UNL     1       3.557   6.492  17.824  0.00  0.00    +0.000 A 
ATOM      5  C   UNL     1       4.640   7.005  17.095  0.00  0.00    +0.000 A 
ATOM      6  C   UNL     1       5.453   6.161  16.332  0.00  0.00    +0.000 A 
ENDROOT
BRANCH   4   7
ATOM      7  C   UNL     1       2.583   7.370  18.467  0.00  0.00    +0.000 A 
ATOM      8  N   UNL     1       2.057   8.497  18.019  0.00  0.00    +0.000 NA
ATOM      9  C   UNL     1       1.439   9.030  19.121  0.00  0.00    +0.000 A 
ATOM     10  C   UNL     1       0.779  10.250  19.311  0.00  0.00    +0.000 A 
ATOM     11  C   UNL     1       0.296  10.548  20.594  0.00  0.00    +0.000 A 
ATOM     12  C   UNL     1       0.447   9.643  21.654  0.00  0.00    +0.000 A 
ATOM     13  C   UNL     1       1.083   8.410  21.474  0.00  0.00    +0.000 A 
ATOM     14  C   UNL     1       1.570   8.166  20.195  0.00  0.00    +0.000 A 
ATOM     15  O   UNL     1       2.281   7.083  19.777  0.00  0.00    +0.000 OA
ENDBRANCH   4   7
BRANCH   1  16
ATOM     16  C   UNL     1       6.006   3.889  15.377  0.00  0.00    +0.000 C 
BRANCH  16  17
ATOM     17  N   UNL     1       6.955   4.663  14.583  0.00  0.00    +0.000 NA
ATOM     18  H   UNL     1       6.930   5.635  14.883  0.00  0.00    +0.000 HD
ATOM     19  H   UNL     1       6.652   4.654  13.608  0.00  0.00    +0.000 HD
ENDBRANCH  16  17
ENDBRANCH   1  16
TORSDOF 3
ENDMDL
MODEL 9
REMARK VINA RESULT:      -6.5      1.957      6.970
REMARK  Name = 
REMARK  3 active torsions:
REMARK  status: ('A' for Active; 'I' for Inactive)
REMARK    1  A    between atoms: N_1  and  C_2
REMARK    2  A    between atoms: C_2  and  C_3
REMARK    3  A    between atoms: C_6  and  C_7
REMARK                            x       y       z     vdW  Elec       q    Type
REMARK                         _______ _______ _______ _____ _____    ______ ____
ROOT
ATOM      1  C   UNL     1       2.784   4.400  19.541  0.00  0.00    +0.000 A 
ATOM      2  C   UNL     1       2.509   3.632  18.402  0.00  0.00    +0.000 A 
ATOM      3  C   UNL     1       3.321   3.725  17.268  0.00  0.00    +0.000 A 
ATOM      4  C   UNL     1       4.427   4.585  17.247  0.00  0.00    +0.000 A 
ATOM      5  C   UNL     1       4.657   5.405  18.362  0.00  0.00    +0.000 A 
ATOM      6  C   UNL     1       3.846   5.312  19.497  0.00  0.00    +0.000 A 
ENDROOT
BRANCH   4   7
ATOM      7  C   UNL     1       5.371   4.526  16.134  0.00  0.00    +0.000 A 
ATOM      8  N   UNL     1       6.434   5.277  15.905  0.00  0.00    +0.000 NA
ATOM      9  C   UNL     1       6.772   4.978  14.609  0.00  0.00    +0.000 A 
ATOM     10  C   UNL     1       7.755   5.507  13.765  0.00  0.00    +0.000 A 
ATOM     11  C   UNL     1       7.819   5.035  12.446  0.00  0.00    +0.000 A 
ATOM     12  C   UNL     1       6.941   4.042  11.988  0.00  0.00    +0.000 A 
ATOM     13  C   UNL     1       5.969   3.486  12.827  0.00  0.00    +0.000 A 
ATOM     14  C   UNL     1       5.922   4.002  14.117  0.00  0.00    +0.000 A 
ATOM     15  O   UNL     1       5.035   3.685  15.099  0.00  0.00    +0.000 OA
ENDBRANCH   4   7
BRANCH   1  16
ATOM     16  C   UNL     1       1.981   4.218  20.803  0.00  0.00    +0.000 C 
BRANCH  16  17
ATOM     17  N   UNL     1       0.670   3.648  20.514  0.00  0.00    +0.000 NA
ATOM     18  H   UNL     1       0.787   2.707  20.146  0.00  0.00    +0.000 HD
ATOM     19  H   UNL     1       0.230   4.195  19.773  0.00  0.00    +0.000 HD
ENDBRANCH  16  17
ENDBRANCH   1  16
TORSDOF 3
ENDMDL
