MODEL 1
REMARK VINA RESULT:      -8.6      0.000      0.000
REMARK  Name = 
REMARK  7 active torsions:
REMARK  status: ('A' for Active; 'I' for Inactive)
REMARK    1  A    between atoms: C_1  and  O_2
REMARK    2  A    between atoms: O_2  and  C_3
REMARK    3  A    between atoms: C_6  and  C_7
REMARK    4  A    between atoms: C_11  and  C_12
REMARK    5  A    between atoms: C_12  and  C_14
REMARK    6  A    between atoms: C_16  and  C_17
REMARK    7  A    between atoms: C_20  and  O_21
REMARK                            x       y       z     vdW  Elec       q    Type
REMARK                         _______ _______ _______ _____ _____    ______ ____
ROOT
ATOM      1  C   UNL     1       1.711   8.325  19.472  0.00  0.00    +0.000 C 
ATOM      2  O   UNL     1       1.941   8.837  18.377  0.00  0.00    +0.000 OA
ATOM      3  N   UNL     1       2.155   7.004  19.667  0.00  0.00    +0.000 N 
ATOM      4  C   UNL     1       3.106   6.338  18.933  0.00  0.00    +0.000 A 
ATOM      5  C   UNL     1       3.268   5.092  19.500  0.00  0.00    +0.000 A 
ATOM      6  C   UNL     1       2.277   5.056  20.504  0.00  0.00    +0.000 A 
ATOM      7  N   UNL     1       1.646   6.225  20.660  0.00  0.00    +0.000 NA
ENDROOT
BRANCH   1  11
ATOM      8  C   UNL     1      -0.407  10.538  22.456  0.00  0.00    +0.000 A 
ATOM      9  C   UNL     1       0.408   9.464  22.819  0.00  0.00    +0.000 A 
ATOM     10  C   UNL     1       1.142   8.771  21.854  0.00  0.00    +0.000 A 
ATOM     11  C   UNL     1       1.065   9.159  20.513  0.00  0.00    +0.000 A 
ATOM     12  C   UNL     1       0.245  10.231  20.144  0.00  0.00    +0.000 A 
ATOM     13  C   UNL     1      -0.492  10.916  21.114  0.00  0.00    +0.000 A 
BRANCH   8  15
ATOM     14  C   UNL     1      -2.277  11.835  23.105  0.00  0.00    +0.000 C 
ATOM     15  O   UNL     1      -1.113  11.108  23.480  0.00  0.00    +0.000 OA
ENDBRANCH   8  15
ENDBRANCH   1  11
BRANCH   5  16
ATOM     16  C   UNL     1       4.216   4.051  19.145  0.00  0.00    +0.000 C 
ATOM     17  O   UNL     1       4.137   2.925  19.628  0.00  0.00    +0.000 OA
BRANCH  16  18
ATOM     18  C   UNL     1       5.302   4.345  18.168  0.00  0.00    +0.000 A 
ATOM     19  C   UNL     1       5.090   3.990  16.825  0.00  0.00    +0.000 A 
ATOM     20  C   UNL     1       6.072   4.240  15.855  0.00  0.00    +0.000 A 
ATOM     21  C   UNL     1       5.872   3.837  14.424  0.00  0.00    +0.000 C 
ATOM     22  C   UNL     1       7.267   4.859  16.239  0.00  0.00    +0.000 A 
ATOM     23  C   UNL     1       7.502   5.184  17.575  0.00  0.00    +0.000 A 
ATOM     24  C   UNL     1       6.531   4.906  18.539  0.00  0.00    +0.000 A 
BRANCH  24  25
ATOM     25  O   UNL     1       6.821   5.154  19.852  0.00  0.00    +0.000 OA
ATOM     26  H   UNL     1       7.772   5.026  20.003  0.00  0.00    +0.000 HD
ENDBRANCH  24  25
ENDBRANCH  16  18
ENDBRANCH   5  16
TORSDOF 5
ENDMDL
MODEL 2
REMARK VINA RESULT:      -8.1      1.796      2.267
REMARK  Name = 
REMARK  7 active torsions:
REMARK  status: ('A' for Active; 'I' for Inactive)
REMARK    1  A    between atoms: C_1  and  O_2
REMARK    2  A    between atoms: O_2  and  C_3
REMARK    3  A    between atoms: C_6  and  C_7
REMARK    4  A    between atoms: C_11  and  C_12
REMARK    5  A    between atoms: C_12  and  C_14
REMARK    6  A    between atoms: C_16  and  C_17
REMARK    7  A    between atoms: C_20  and  O_21
REMARK                            x       y       z     vdW  Elec       q    Type
REMARK                         _______ _______ _______ _____ _____    ______ ____
ROOT
ATOM      1  C   UNL     1       1.350   8.611  20.456  0.00  0.00    +0.000 C 
ATOM      2  O   UNL     1       1.238   8.155  21.594  0.00  0.00    +0.000 OA
ATOM      3  N   UNL     1       2.076   7.842  19.527  0.00  0.00    +0.000 N 
ATOM      4  C   UNL     1       2.376   6.504  19.621  0.00  0.00    +0.000 A 
ATOM      5  C   UNL     1       3.051   6.151  18.472  0.00  0.00    +0.000 A 
ATOM      6  C   UNL     1       3.218   7.379  17.797  0.00  0.00    +0.000 A 
ATOM      7  N   UNL     1       2.576   8.393  18.389  0.00  0.00    +0.000 NA
ENDROOT
BRANCH   1  11
ATOM      8  C   UNL     1      -0.867  12.204  19.780  0.00  0.00    +0.000 A 
ATOM      9  C   UNL     1       0.230  12.202  20.645  0.00  0.00    +0.000 A 
ATOM     10  C   UNL     1       0.988  11.044  20.829  0.00  0.00    +0.000 A 
ATOM     11  C   UNL     1       0.651   9.878  20.137  0.00  0.00    +0.000 A 
ATOM     12  C   UNL     1      -0.450   9.873  19.274  0.00  0.00    +0.000 A 
ATOM     13  C   UNL     1      -1.210  11.033  19.100  0.00  0.00    +0.000 A 
BRANCH   8  15
ATOM     14  C   UNL     1      -0.771  14.567  19.708  0.00  0.00    +0.000 C 
ATOM     15  O   UNL     1      -1.560  13.382  19.718  0.00  0.00    +0.000 OA
ENDBRANCH   8  15
ENDBRANCH   1  11
BRANCH   5  16
ATOM     16  C   UNL     1       3.504   4.836  18.056  0.00  0.00    +0.000 C 
ATOM     17  O   UNL     1       2.816   3.835  18.243  0.00  0.00    +0.000 OA
BRANCH  16  18
ATOM     18  C   UNL     1       4.823   4.691  17.377  0.00  0.00    +0.000 A 
ATOM     19  C   UNL     1       4.824   4.433  15.996  0.00  0.00    +0.000 A 
ATOM     20  C   UNL     1       6.032   4.287  15.296  0.00  0.00    +0.000 A 
ATOM     21  C   UNL     1       6.048   3.978  13.828  0.00  0.00    +0.000 C 
ATOM     22  C   UNL     1       7.241   4.411  15.990  0.00  0.00    +0.000 A 
ATOM     23  C   UNL     1       7.250   4.634  17.368  0.00  0.00    +0.000 A 
ATOM     24  C   UNL     1       6.044   4.749  18.061  0.00  0.00    +0.000 A 
BRANCH  24  25
ATOM     25  O   UNL     1       6.079   4.879  19.422  0.00  0.00    +0.000 OA
ATOM     26  H   UNL     1       6.600   5.665  19.658  0.00  0.00    +0.000 HD
ENDBRANCH  24  25
ENDBRANCH  16  18
ENDBRANCH   5  16
TORSDOF 5
ENDMDL
MODEL 3
REMARK VINA RESULT:      -8.0      1.974      2.585
REMARK  Name = 
REMARK  7 active torsions:
REMARK  status: ('A' for Active; 'I' for Inactive)
REMARK    1  A    between atoms: C_1  and  O_2
REMARK    2  A    between atoms: O_2  and  C_3
REMARK    3  A    between atoms: C_6  and  C_7
REMARK    4  A    between atoms: C_11  and  C_12
REMARK    5  A    between atoms: C_12  and  C_14
REMARK    6  A    between atoms: C_16  and  C_17
REMARK    7  A    between atoms: C_20  and  O_21
REMARK                            x       y       z     vdW  Elec       q    Type
REMARK                         _______ _______ _______ _____ _____    ______ ____
ROOT
ATOM      1  C   UNL     1       1.355   8.618  20.308  0.00  0.00    +0.000 C 
ATOM      2  O   UNL     1       1.177   8.160  21.437  0.00  0.00    +0.000 OA
ATOM      3  N   UNL     1       2.112   7.838  19.413  0.00  0.00    +0.000 N 
ATOM      4  C   UNL     1       2.380   6.495  19.515  0.00  0.00    +0.000 A 
ATOM      5  C   UNL     1       3.105   6.133  18.400  0.00  0.00    +0.000 A 
ATOM      6  C   UNL     1       3.330   7.360  17.740  0.00  0.00    +0.000 A 
ATOM      7  N   UNL     1       2.679   8.384  18.304  0.00  0.00    +0.000 NA
ENDROOT
BRANCH   1  11
ATOM      8  C   UNL     1      -0.301  12.370  19.099  0.00  0.00    +0.000 A 
ATOM      9  C   UNL     1      -0.650  11.194  18.429  0.00  0.00    +0.000 A 
ATOM     10  C   UNL     1      -0.152   9.961  18.853  0.00  0.00    +0.000 A 
ATOM     11  C   UNL     1       0.698   9.900  19.961  0.00  0.00    +0.000 A 
ATOM     12  C   UNL     1       1.055  11.075  20.631  0.00  0.00    +0.000 A 
ATOM     13  C   UNL     1       0.558  12.308  20.197  0.00  0.00    +0.000 A 
BRANCH   8  15
ATOM     14  C   UNL     1      -0.351  14.735  19.144  0.00  0.00    +0.000 C 
ATOM     15  O   UNL     1      -0.813  13.520  18.564  0.00  0.00    +0.000 OA
ENDBRANCH   8  15
ENDBRANCH   1  11
BRANCH   5  16
ATOM     16  C   UNL     1       3.552   4.811  18.000  0.00  0.00    +0.000 C 
ATOM     17  O   UNL     1       2.866   3.814  18.210  0.00  0.00    +0.000 OA
BRANCH  16  18
ATOM     18  C   UNL     1       4.864   4.653  17.310  0.00  0.00    +0.000 A 
ATOM     19  C   UNL     1       4.851   4.391  15.930  0.00  0.00    +0.000 A 
ATOM     20  C   UNL     1       6.052   4.234  15.221  0.00  0.00    +0.000 A 
ATOM     21  C   UNL     1       6.053   3.922  13.754  0.00  0.00    +0.000 C 
ATOM     22  C   UNL     1       7.268   4.350  15.904  0.00  0.00    +0.000 A 
ATOM     23  C   UNL     1       7.290   4.576  17.281  0.00  0.00    +0.000 A 
ATOM     24  C   UNL     1       6.091   4.703  17.984  0.00  0.00    +0.000 A 
BRANCH  24  25
ATOM     25  O   UNL     1       6.139   4.836  19.344  0.00  0.00    +0.000 OA
ATOM     26  H   UNL     1       5.690   4.081  19.759  0.00  0.00    +0.000 HD
ENDBRANCH  24  25
ENDBRANCH  16  18
ENDBRANCH   5  16
TORSDOF 5
ENDMDL
MODEL 4
REMARK VINA RESULT:      -8.0      2.858      8.609
REMARK  Name = 
REMARK  7 active torsions:
REMARK  status: ('A' for Active; 'I' for Inactive)
REMARK    1  A    between atoms: C_1  and  O_2
REMARK    2  A    between atoms: O_2  and  C_3
REMARK    3  A    between atoms: C_6  and  C_7
REMARK    4  A    between atoms: C_11  and  C_12
REMARK    5  A    between atoms: C_12  and  C_14
REMARK    6  A    between atoms: C_16  and  C_17
REMARK    7  A    between atoms: C_20  and  O_21
REMARK                            x       y       z     vdW  Elec       q    Type
REMARK                         _______ _______ _______ _____ _____    ______ ____
ROOT
ATOM      1  C   UNL     1       2.755   7.480  18.164  0.00  0.00    +0.000 C 
ATOM      2  O   UNL     1       3.374   7.870  17.173  0.00  0.00    +0.000 OA
ATOM      3  N   UNL     1       1.909   8.410  18.797  0.00  0.00    +0.000 N 
ATOM      4  C   UNL     1       1.420   9.577  18.261  0.00  0.00    +0.000 A 
ATOM      5  C   UNL     1       0.593  10.149  19.204  0.00  0.00    +0.000 A 
ATOM      6  C   UNL     1       0.744   9.309  20.328  0.00  0.00    +0.000 A 
ATOM      7  N   UNL     1       1.481   8.222  20.074  0.00  0.00    +0.000 NA
ENDROOT
BRANCH   1  11
ATOM      8  C   UNL     1       3.309   3.329  19.028  0.00  0.00    +0.000 A 
ATOM      9  C   UNL     1       4.217   4.278  19.505  0.00  0.00    +0.000 A 
ATOM     10  C   UNL     1       4.012   5.639  19.269  0.00  0.00    +0.000 A 
ATOM     11  C   UNL     1       2.886   6.057  18.555  0.00  0.00    +0.000 A 
ATOM     12  C   UNL     1       1.977   5.110  18.070  0.00  0.00    +0.000 A 
ATOM     13  C   UNL     1       2.191   3.749  18.304  0.00  0.00    +0.000 A 
BRANCH   8  15
ATOM     14  C   UNL     1       4.627   1.819  20.285  0.00  0.00    +0.000 C 
ATOM     15  O   UNL     1       3.640   2.026  19.281  0.00  0.00    +0.000 OA
ENDBRANCH   8  15
ENDBRANCH   1  11
BRANCH   5  16
ATOM     16  C   UNL     1      -0.228  11.340  19.085  0.00  0.00    +0.000 C 
ATOM     17  O   UNL     1       0.174  12.433  19.476  0.00  0.00    +0.000 OA
BRANCH  16  18
ATOM     18  C   UNL     1      -1.582  11.245  18.469  0.00  0.00    +0.000 A 
ATOM     19  C   UNL     1      -1.698  10.570  17.243  0.00  0.00    +0.000 A 
ATOM     20  C   UNL     1      -2.945  10.443  16.611  0.00  0.00    +0.000 A 
ATOM     21  C   UNL     1      -3.079   9.753  15.286  0.00  0.00    +0.000 C 
ATOM     22  C   UNL     1      -4.078  10.992  17.223  0.00  0.00    +0.000 A 
ATOM     23  C   UNL     1      -3.967  11.694  18.423  0.00  0.00    +0.000 A 
ATOM     24  C   UNL     1      -2.719  11.840  19.031  0.00  0.00    +0.000 A 
BRANCH  24  25
ATOM     25  O   UNL     1      -2.624  12.607  20.160  0.00  0.00    +0.000 OA
ATOM     26  H   UNL     1      -3.338  13.267  20.163  0.00  0.00    +0.000 HD
ENDBRANCH  24  25
ENDBRANCH  16  18
ENDBRANCH   5  16
TORSDOF 5
ENDMDL
MODEL 5
REMARK VINA RESULT:      -8.0      2.152      8.634
REMARK  Name = 
REMARK  7 active torsions:
REMARK  status: ('A' for Active; 'I' for Inactive)
REMARK    1  A    between atoms: C_1  and  O_2
REMARK    2  A    between atoms: O_2  and  C_3
REMARK    3  A    between atoms: C_6  and  C_7
REMARK    4  A    between atoms: C_11  and  C_12
REMARK    5  A    between atoms: C_12  and  C_14
REMARK    6  A    between atoms: C_16  and  C_17
REMARK    7  A    between atoms: C_20  and  O_21
REMARK                            x       y       z     vdW  Elec       q    Type
REMARK                         _______ _______ _______ _____ _____    ______ ____
ROOT
ATOM      1  C   UNL     1       3.730   5.557  18.801  0.00  0.00    +0.000 C 
ATOM      2  O   UNL     1       3.516   4.671  19.629  0.00  0.00    +0.000 OA
ATOM      3  N   UNL     1       2.957   6.729  18.905  0.00  0.00    +0.000 N 
ATOM      4  C   UNL     1       2.250   7.155  20.003  0.00  0.00    +0.000 A 
ATOM      5  C   UNL     1       1.687   8.373  19.685  0.00  0.00    +0.000 A 
ATOM      6  C   UNL     1       2.014   8.542  18.323  0.00  0.00    +0.000 A 
ATOM      7  N   UNL     1       2.836   7.592  17.860  0.00  0.00    +0.000 NA
ENDROOT
BRANCH   1  11
ATOM      8  C   UNL     1       6.786   5.231  15.828  0.00  0.00    +0.000 A 
ATOM      9  C   UNL     1       7.001   5.988  16.983  0.00  0.00    +0.000 A 
ATOM     10  C   UNL     1       6.026   6.055  17.980  0.00  0.00    +0.000 A 
ATOM     11  C   UNL     1       4.826   5.354  17.824  0.00  0.00    +0.000 A 
ATOM     12  C   UNL     1       4.603   4.601  16.667  0.00  0.00    +0.000 A 
ATOM     13  C   UNL     1       5.581   4.544  15.669  0.00  0.00    +0.000 A 
BRANCH   8  15
ATOM     14  C   UNL     1       7.430   4.931  13.571  0.00  0.00    +0.000 C 
ATOM     15  O   UNL     1       7.792   5.280  14.902  0.00  0.00    +0.000 OA
ENDBRANCH   8  15
ENDBRANCH   1  11
BRANCH   5  16
ATOM     16  C   UNL     1       0.923   9.267  20.535  0.00  0.00    +0.000 C 
ATOM     17  O   UNL     1       0.869   9.101  21.751  0.00  0.00    +0.000 OA
BRANCH  16  18
ATOM     18  C   UNL     1       0.196  10.419  19.930  0.00  0.00    +0.000 A 
ATOM     19  C   UNL     1      -0.764  10.142  18.943  0.00  0.00    +0.000 A 
ATOM     20  C   UNL     1      -1.485  11.181  18.334  0.00  0.00    +0.000 A 
ATOM     21  C   UNL     1      -2.489  10.903  17.255  0.00  0.00    +0.000 C 
ATOM     22  C   UNL     1      -1.243  12.501  18.730  0.00  0.00    +0.000 A 
ATOM     23  C   UNL     1      -0.268  12.789  19.686  0.00  0.00    +0.000 A 
ATOM     24  C   UNL     1       0.465  11.753  20.265  0.00  0.00    +0.000 A 
BRANCH  24  25
ATOM     25  O   UNL     1       1.474  12.068  21.133  0.00  0.00    +0.000 OA
ATOM     26  H   UNL     1       1.372  11.549  21.949  0.00  0.00    +0.000 HD
ENDBRANCH  24  25
ENDBRANCH  16  18
ENDBRANCH   5  16
TORSDOF 5
ENDMDL
MODEL 6
REMARK VINA RESULT:      -7.9      0.875      1.306
REMARK  Name = 
REMARK  7 active torsions:
REMARK  status: ('A' for Active; 'I' for Inactive)
REMARK    1  A    between atoms: C_1  and  O_2
REMARK    2  A    between atoms: O_2  and  C_3
REMARK    3  A    between atoms: C_6  and  C_7
REMARK    4  A    between atoms: C_11  and  C_12
REMARK    5  A    between atoms: C_12  and  C_14
REMARK    6  A    between atoms: C_16  and  C_17
REMARK    7  A    between atoms: C_20  and  O_21
REMARK                            x       y       z     vdW  Elec       q    Type
REMARK                         _______ _______ _______ _____ _____    ______ ____
ROOT
ATOM      1  C   UNL     1       1.815   8.551  18.664  0.00  0.00    +0.000 C 
ATOM      2  O   UNL     1       2.032   8.909  17.506  0.00  0.00    +0.000 OA
ATOM      3  N   UNL     1       2.269   7.271  19.032  0.00  0.00    +0.000 N 
ATOM      4  C   UNL     1       3.217   6.515  18.386  0.00  0.00    +0.000 A 
ATOM      5  C   UNL     1       3.392   5.359  19.116  0.00  0.00    +0.000 A 
ATOM      6  C   UNL     1       2.412   5.455  20.126  0.00  0.00    +0.000 A 
ATOM      7  N   UNL     1       1.776   6.632  20.127  0.00  0.00    +0.000 NA
ENDROOT
BRANCH   1  11
ATOM      8  C   UNL     1       0.263  11.414  21.435  0.00  0.00    +0.000 A 
ATOM      9  C   UNL     1       0.601  11.799  20.135  0.00  0.00    +0.000 A 
ATOM     10  C   UNL     1       1.059  10.857  19.211  0.00  0.00    +0.000 A 
ATOM     11  C   UNL     1       1.175   9.516  19.588  0.00  0.00    +0.000 A 
ATOM     12  C   UNL     1       0.845   9.127  20.890  0.00  0.00    +0.000 A 
ATOM     13  C   UNL     1       0.393  10.076  21.812  0.00  0.00    +0.000 A 
BRANCH   8  15
ATOM     14  C   UNL     1      -1.350  12.227  22.962  0.00  0.00    +0.000 C 
ATOM     15  O   UNL     1      -0.128  12.431  22.262  0.00  0.00    +0.000 OA
ENDBRANCH   8  15
ENDBRANCH   1  11
BRANCH   5  16
ATOM     16  C   UNL     1       4.342   4.284  18.896  0.00  0.00    +0.000 C 
ATOM     17  O   UNL     1       4.318   3.262  19.577  0.00  0.00    +0.000 OA
BRANCH  16  18
ATOM     18  C   UNL     1       5.363   4.410  17.817  0.00  0.00    +0.000 A 
ATOM     19  C   UNL     1       4.956   4.163  16.496  0.00  0.00    +0.000 A 
ATOM     20  C   UNL     1       5.867   4.267  15.434  0.00  0.00    +0.000 A 
ATOM     21  C   UNL     1       5.454   3.973  14.023  0.00  0.00    +0.000 C 
ATOM     22  C   UNL     1       7.191   4.630  15.706  0.00  0.00    +0.000 A 
ATOM     23  C   UNL     1       7.614   4.845  17.018  0.00  0.00    +0.000 A 
ATOM     24  C   UNL     1       6.708   4.712  18.071  0.00  0.00    +0.000 A 
BRANCH  24  25
ATOM     25  O   UNL     1       7.167   4.842  19.353  0.00  0.00    +0.000 OA
ATOM     26  H   UNL     1       7.553   3.999  19.645  0.00  0.00    +0.000 HD
ENDBRANCH  24  25
ENDBRANCH  16  18
ENDBRANCH   5  16
TORSDOF 5
ENDMDL
MODEL 7
REMARK VINA RESULT:      -7.9      2.448      8.839
REMARK  Name = 
REMARK  7 active torsions:
REMARK  status: ('A' for Active; 'I' for Inactive)
REMARK    1  A    between atoms: C_1  and  O_2
REMARK    2  A    between atoms: O_2  and  C_3
REMARK    3  A    between atoms: C_6  and  C_7
REMARK    4  A    between atoms: C_11  and  C_12
REMARK    5  A    between atoms: C_12  and  C_14
REMARK    6  A    between atoms: C_16  and  C_17
REMARK    7  A    between atoms: C_20  and  O_21
REMARK                            x       y       z     vdW  Elec       q    Type
REMARK                         _______ _______ _______ _____ _____    ______ ____
ROOT
ATOM      1  C   UNL     1       3.240   6.150  18.793  0.00  0.00    +0.000 C 
ATOM      2  O   UNL     1       2.879   5.407  19.706  0.00  0.00    +0.000 OA
ATOM      3  N   UNL     1       2.578   7.387  18.676  0.00  0.00    +0.000 N 
ATOM      4  C   UNL     1       1.832   8.017  19.642  0.00  0.00    +0.000 A 
ATOM      5  C   UNL     1       1.416   9.223  19.121  0.00  0.00    +0.000 A 
ATOM      6  C   UNL     1       1.862   9.176  17.783  0.00  0.00    +0.000 A 
ATOM      7  N   UNL     1       2.622   8.106  17.522  0.00  0.00    +0.000 NA
ENDROOT
BRANCH   1  11
ATOM      8  C   UNL     1       6.436   5.123  16.145  0.00  0.00    +0.000 A 
ATOM      9  C   UNL     1       6.583   6.170  17.058  0.00  0.00    +0.000 A 
ATOM     10  C   UNL     1       5.562   6.476  17.960  0.00  0.00    +0.000 A 
ATOM     11  C   UNL     1       4.384   5.723  17.953  0.00  0.00    +0.000 A 
ATOM     12  C   UNL     1       4.229   4.678  17.037  0.00  0.00    +0.000 A 
ATOM     13  C   UNL     1       5.253   4.382  16.132  0.00  0.00    +0.000 A 
BRANCH   8  15
ATOM     14  C   UNL     1       7.138   4.774  13.912  0.00  0.00    +0.000 C 
ATOM     15  O   UNL     1       7.483   4.949  15.282  0.00  0.00    +0.000 OA
ENDBRANCH   8  15
ENDBRANCH   1  11
BRANCH   5  16
ATOM     16  C   UNL     1       0.678  10.287  19.778  0.00  0.00    +0.000 C 
ATOM     17  O   UNL     1       1.123  10.852  20.773  0.00  0.00    +0.000 OA
BRANCH  16  18
ATOM     18  C   UNL     1      -0.641  10.716  19.232  0.00  0.00    +0.000 A 
ATOM     19  C   UNL     1      -1.081  10.121  18.038  0.00  0.00    +0.000 A 
ATOM     20  C   UNL     1      -2.314  10.478  17.472  0.00  0.00    +0.000 A 
ATOM     21  C   UNL     1      -2.782   9.876  16.181  0.00  0.00    +0.000 C 
ATOM     22  C   UNL     1      -3.110  11.431  18.119  0.00  0.00    +0.000 A 
ATOM     23  C   UNL     1      -2.667  12.052  19.287  0.00  0.00    +0.000 A 
ATOM     24  C   UNL     1      -1.426  11.712  19.827  0.00  0.00    +0.000 A 
BRANCH  24  25
ATOM     25  O   UNL     1      -0.977  12.397  20.922  0.00  0.00    +0.000 OA
ATOM     26  H   UNL     1      -0.237  11.913  21.325  0.00  0.00    +0.000 HD
ENDBRANCH  24  25
ENDBRANCH  16  18
ENDBRANCH   5  16
TORSDOF 5
ENDMDL
MODEL 8
REMARK VINA RESULT:      -7.8      0.987      1.988
REMARK  Name = 
REMARK  7 active torsions:
REMARK  status: ('A' for Active; 'I' for Inactive)
REMARK    1  A    between atoms: C_1  and  O_2
REMARK    2  A    between atoms: O_2  and  C_3
REMARK    3  A    between atoms: C_6  and  C_7
REMARK    4  A    between atoms: C_11  and  C_12
REMARK    5  A    between atoms: C_12  and  C_14
REMARK    6  A    between atoms: C_16  and  C_17
REMARK    7  A    between atoms: C_20  and  O_21
REMARK                            x       y       z     vdW  Elec       q    Type
REMARK                         _______ _______ _______ _____ _____    ______ ____
ROOT
ATOM      1  C   UNL     1       1.486   8.431  19.584  0.00  0.00    +0.000 C 
ATOM      2  O   UNL     1       1.731   9.027  18.535  0.00  0.00    +0.000 OA
ATOM      3  N   UNL     1       2.048   7.150  19.739  0.00  0.00    +0.000 N 
ATOM      4  C   UNL     1       3.106   6.625  19.037  0.00  0.00    +0.000 A 
ATOM      5  C   UNL     1       3.358   5.370  19.547  0.00  0.00    +0.000 A 
ATOM      6  C   UNL     1       2.315   5.177  20.478  0.00  0.00    +0.000 A 
ATOM      7  N   UNL     1       1.561   6.268  20.652  0.00  0.00    +0.000 NA
ENDROOT
BRANCH   1  11
ATOM      8  C   UNL     1      -0.556  10.677  22.596  0.00  0.00    +0.000 A 
ATOM      9  C   UNL     1      -0.745  10.973  21.244  0.00  0.00    +0.000 A 
ATOM     10  C   UNL     1      -0.121  10.209  20.255  0.00  0.00    +0.000 A 
ATOM     11  C   UNL     1       0.695   9.135  20.621  0.00  0.00    +0.000 A 
ATOM     12  C   UNL     1       0.892   8.838  21.974  0.00  0.00    +0.000 A 
ATOM     13  C   UNL     1       0.270   9.611  22.959  0.00  0.00    +0.000 A 
BRANCH   8  15
ATOM     14  C   UNL     1      -1.310  12.875  23.044  0.00  0.00    +0.000 C 
ATOM     15  O   UNL     1      -1.181  11.523  23.471  0.00  0.00    +0.000 OA
ENDBRANCH   8  15
ENDBRANCH   1  11
BRANCH   5  16
ATOM     16  C   UNL     1       4.426   4.449  19.203  0.00  0.00    +0.000 C 
ATOM     17  O   UNL     1       4.518   3.348  19.739  0.00  0.00    +0.000 OA
BRANCH  16  18
ATOM     18  C   UNL     1       5.430   4.836  18.171  0.00  0.00    +0.000 A 
ATOM     19  C   UNL     1       6.141   6.033  18.365  0.00  0.00    +0.000 A 
ATOM     20  C   UNL     1       7.101   6.453  17.432  0.00  0.00    +0.000 A 
ATOM     21  C   UNL     1       7.845   7.744  17.609  0.00  0.00    +0.000 C 
ATOM     22  C   UNL     1       7.351   5.661  16.306  0.00  0.00    +0.000 A 
ATOM     23  C   UNL     1       6.627   4.488  16.088  0.00  0.00    +0.000 A 
ATOM     24  C   UNL     1       5.653   4.092  17.005  0.00  0.00    +0.000 A 
BRANCH  24  25
ATOM     25  O   UNL     1       4.897   2.987  16.724  0.00  0.00    +0.000 OA
ATOM     26  H   UNL     1       5.301   2.498  15.988  0.00  0.00    +0.000 HD
ENDBRANCH  24  25
ENDBRANCH  16  18
ENDBRANCH   5  16
TORSDOF 5
ENDMDL
MODEL 9
REMARK VINA RESULT:      -7.8      2.803      4.430
REMARK  Name = 
REMARK  7 active torsions:
REMARK  status: ('A' for Active; 'I' for Inactive)
REMARK    1  A    between atoms: C_1  and  O_2
REMARK    2  A    between atoms: O_2  and  C_3
REMARK    3  A    between atoms: C_6  and  C_7
REMARK    4  A    between atoms: C_11  and  C_12
REMARK    5  A    between atoms: C_12  and  C_14
REMARK    6  A    between atoms: C_16  and  C_17
REMARK    7  A    between atoms: C_20  and  O_21
REMARK                            x       y       z     vdW  Elec       q    Type
REMARK                         _______ _______ _______ _____ _____    ______ ____
ROOT
ATOM      1  C   UNL     1       0.571   9.517  19.868  0.00  0.00    +0.000 C 
ATOM      2  O   UNL     1       0.693   9.539  21.093  0.00  0.00    +0.000 OA
ATOM      3  N   UNL     1       1.464   8.700  19.150  0.00  0.00    +0.000 N 
ATOM      4  C   UNL     1       2.219   7.666  19.650  0.00  0.00    +0.000 A 
ATOM      5  C   UNL     1       2.905   7.107  18.594  0.00  0.00    +0.000 A 
ATOM      6  C   UNL     1       2.590   7.954  17.510  0.00  0.00    +0.000 A 
ATOM      7  N   UNL     1       1.670   8.876  17.817  0.00  0.00    +0.000 NA
ENDROOT
BRANCH   1  11
ATOM      8  C   UNL     1      -2.855  11.526  18.282  0.00  0.00    +0.000 A 
ATOM      9  C   UNL     1      -2.272  11.958  19.475  0.00  0.00    +0.000 A 
ATOM     10  C   UNL     1      -1.123  11.338  19.970  0.00  0.00    +0.000 A 
ATOM     11  C   UNL     1      -0.547  10.279  19.262  0.00  0.00    +0.000 A 
ATOM     12  C   UNL     1      -1.130   9.839  18.069  0.00  0.00    +0.000 A 
ATOM     13  C   UNL     1      -2.285  10.460  17.583  0.00  0.00    +0.000 A 
BRANCH   8  15
ATOM     14  C   UNL     1      -4.795  11.541  16.927  0.00  0.00    +0.000 C 
ATOM     15  O   UNL     1      -4.003  12.179  17.923  0.00  0.00    +0.000 OA
ENDBRANCH   8  15
ENDBRANCH   1  11
BRANCH   5  16
ATOM     16  C   UNL     1       3.765   5.937  18.590  0.00  0.00    +0.000 C 
ATOM     17  O   UNL     1       4.981   6.040  18.455  0.00  0.00    +0.000 OA
BRANCH  16  18
ATOM     18  C   UNL     1       3.168   4.583  18.764  0.00  0.00    +0.000 A 
ATOM     19  C   UNL     1       2.563   4.286  19.996  0.00  0.00    +0.000 A 
ATOM     20  C   UNL     1       1.981   3.030  20.224  0.00  0.00    +0.000 A 
ATOM     21  C   UNL     1       1.360   2.688  21.546  0.00  0.00    +0.000 C 
ATOM     22  C   UNL     1       2.001   2.074  19.202  0.00  0.00    +0.000 A 
ATOM     23  C   UNL     1       2.630   2.347  17.986  0.00  0.00    +0.000 A 
ATOM     24  C   UNL     1       3.231   3.589  17.778  0.00  0.00    +0.000 A 
BRANCH  24  25
ATOM     25  O   UNL     1       3.916   3.800  16.613  0.00  0.00    +0.000 OA
ATOM     26  H   UNL     1       4.647   3.162  16.548  0.00  0.00    +0.000 HD
ENDBRANCH  24  25
ENDBRANCH  16  18
ENDBRANCH   5  16
TORSDOF 5
ENDMDL
