MODEL 1
REMARK VINA RESULT:      -6.7      0.000      0.000
REMARK  Name = 
REMARK  16 active torsions:
REMARK  status: ('A' for Active; 'I' for Inactive)
REMARK    1  A    between atoms: C_2  and  O_3
REMARK    2  A    between atoms: C_2  and  C_4
REMARK    3  A    between atoms: C_4  and  C_5
REMARK    4  A    between atoms: C_5  and  O_6
REMARK    5  A    between atoms: C_5  and  C_7
REMARK    6  A    between atoms: C_5  and  C_31
REMARK    7  A    between atoms: C_7  and  C_8
REMARK    8  A    between atoms: C_8  and  O_9
REMARK    9  A    between atoms: C_8  and  C_10
REMARK   10  A    between atoms: C_10  and  C_11
REMARK   11  A    between atoms: C_11  and  C_12
REMARK   12  A    between atoms: C_12  and  C_13
REMARK   13  A    between atoms: C_13  and  C_14
REMARK   14  A    between atoms: C_14  and  N_15
REMARK   15  A    between atoms: C_16  and  C_17
REMARK   16  A    between atoms: C_31  and  O_33
REMARK                            x       y       z     vdW  Elec       q    Type
REMARK                         _______ _______ _______ _____ _____    ______ ____
ROOT
ATOM      1  C   UNL     1       1.007   8.762  21.893  0.00  0.00    +0.000 C 
ENDROOT
BRANCH   1   2
ATOM      2  C   UNL     1       0.942   7.498  21.029  0.00  0.00    +0.000 C 
BRANCH   2   3
ATOM      3  C   UNL     1       2.128   7.338  20.062  0.00  0.00    +0.000 C 
BRANCH   3   4
ATOM      4  C   UNL     1       2.722   5.919  20.037  0.00  0.00    +0.000 C 
BRANCH   4   5
ATOM      5  O   UNL     1       2.392   5.243  21.256  0.00  0.00    +0.000 OA
ATOM      6  H   UNL     1       1.462   4.952  21.191  0.00  0.00    +0.000 HD
ENDBRANCH   4   5
BRANCH   4   7
ATOM      7  C   UNL     1       2.166   5.078  18.879  0.00  0.00    +0.000 C 
BRANCH   7   8
ATOM      8  C   UNL     1       3.028   3.852  18.488  0.00  0.00    +0.000 C 
BRANCH   8   9
ATOM      9  C   UNL     1       2.321   2.581  18.991  0.00  0.00    +0.000 C 
ATOM     10  O   UNL     1       1.549   2.530  19.936  0.00  0.00    +0.000 OA
BRANCH   9  11
ATOM     11  O   UNL     1       2.684   1.488  18.275  0.00  0.00    +0.000 OA
ATOM     12  H   UNL     1       2.046   1.381  17.529  0.00  0.00    +0.000 HD
ENDBRANCH   9  11
ENDBRANCH   8   9
BRANCH   8  13
ATOM     13  O   UNL     1       4.242   3.932  19.278  0.00  0.00    +0.000 OA
ATOM     14  H   UNL     1       5.006   3.748  18.692  0.00  0.00    +0.000 HD
ENDBRANCH   8  13
BRANCH   8  15
ATOM     15  C   UNL     1       3.350   3.662  17.004  0.00  0.00    +0.000 C 
BRANCH  15  17
ATOM     16  O   UNL     1       4.935   5.378  16.468  0.00  0.00    +0.000 OA
ATOM     17  C   UNL     1       4.701   4.185  16.617  0.00  0.00    +0.000 C 
BRANCH  17  18
ATOM     18  O   UNL     1       5.643   3.236  16.458  0.00  0.00    +0.000 OA
ATOM     19  H   UNL     1       6.197   3.106  17.267  0.00  0.00    +0.000 HD
ENDBRANCH  17  18
ENDBRANCH  15  17
ENDBRANCH   8  15
ENDBRANCH   7   8
ENDBRANCH   4   7
ENDBRANCH   3   4
ENDBRANCH   2   3
ENDBRANCH   1   2
BRANCH   1  20
ATOM     20  C   UNL     1      -0.381   9.236  22.336  0.00  0.00    +0.000 C 
BRANCH  20  21
ATOM     21  C   UNL     1      -0.426  10.733  22.666  0.00  0.00    +0.000 C 
BRANCH  21  22
ATOM     22  N   UNL     1      -1.373  11.451  21.822  0.00  0.00    +0.000 N 
ATOM     23  C   UNL     1      -1.294  11.660  20.448  0.00  0.00    +0.000 A 
ATOM     24  C   UNL     1      -2.405  12.440  20.134  0.00  0.00    +0.000 A 
ATOM     25  C   UNL     1      -3.128  12.746  21.316  0.00  0.00    +0.000 A 
ATOM     26  C   UNL     1      -4.274  13.519  21.584  0.00  0.00    +0.000 A 
ATOM     27  C   UNL     1      -4.734  13.624  22.899  0.00  0.00    +0.000 A 
ATOM     28 CL   UNL     1      -6.119  14.587  23.237  0.00  0.00    +0.000 Cl
ATOM     29  C   UNL     1      -4.079  12.972  23.937  0.00  0.00    +0.000 A 
ATOM     30  C   UNL     1      -2.944  12.196  23.688  0.00  0.00    +0.000 A 
ATOM     31  C   UNL     1      -2.476  12.107  22.362  0.00  0.00    +0.000 A 
BRANCH  23  32
ATOM     32  C   UNL     1      -0.218  11.234  19.519  0.00  0.00    +0.000 A 
ATOM     33  C   UNL     1      -0.292  10.097  18.701  0.00  0.00    +0.000 A 
ATOM     34  C   UNL     1       0.778   9.698  17.891  0.00  0.00    +0.000 A 
ATOM     35  C   UNL     1       1.938  10.461  17.843  0.00  0.00    +0.000 A 
ATOM     36  C   UNL     1       2.020  11.624  18.597  0.00  0.00    +0.000 A 
ATOM     37  C   UNL     1       0.957  12.000  19.428  0.00  0.00    +0.000 A 
ENDBRANCH  23  32
ENDBRANCH  21  22
ENDBRANCH  20  21
ENDBRANCH   1  20
TORSDOF 16
ENDMDL
MODEL 2
REMARK VINA RESULT:      -6.6      5.724     10.352
REMARK  Name = 
REMARK  16 active torsions:
REMARK  status: ('A' for Active; 'I' for Inactive)
REMARK    1  A    between atoms: C_2  and  O_3
REMARK    2  A    between atoms: C_2  and  C_4
REMARK    3  A    between atoms: C_4  and  C_5
REMARK    4  A    between atoms: C_5  and  O_6
REMARK    5  A    between atoms: C_5  and  C_7
REMARK    6  A    between atoms: C_5  and  C_31
REMARK    7  A    between atoms: C_7  and  C_8
REMARK    8  A    between atoms: C_8  and  O_9
REMARK    9  A    between atoms: C_8  and  C_10
REMARK   10  A    between atoms: C_10  and  C_11
REMARK   11  A    between atoms: C_11  and  C_12
REMARK   12  A    between atoms: C_12  and  C_13
REMARK   13  A    between atoms: C_13  and  C_14
REMARK   14  A    between atoms: C_14  and  N_15
REMARK   15  A    between atoms: C_16  and  C_17
REMARK   16  A    between atoms: C_31  and  O_33
REMARK                            x       y       z     vdW  Elec       q    Type
REMARK                         _______ _______ _______ _____ _____    ______ ____
ROOT
ATOM      1  C   UNL     1       2.751   8.636  17.717  0.00  0.00    +0.000 C 
ENDROOT
BRANCH   1   2
ATOM      2  C   UNL     1       1.578   9.601  17.926  0.00  0.00    +0.000 C 
BRANCH   2   3
ATOM      3  C   UNL     1       1.121   9.723  19.390  0.00  0.00    +0.000 C 
BRANCH   3   4
ATOM      4  C   UNL     1      -0.372  10.057  19.549  0.00  0.00    +0.000 C 
BRANCH   4   5
ATOM      5  O   UNL     1      -0.644  10.383  20.917  0.00  0.00    +0.000 OA
ATOM      6  H   UNL     1      -0.552  11.350  21.015  0.00  0.00    +0.000 HD
ENDBRANCH   4   5
BRANCH   4   7
ATOM      7  C   UNL     1      -0.791  11.263  18.696  0.00  0.00    +0.000 C 
BRANCH   7   8
ATOM      8  C   UNL     1      -2.211  11.171  18.087  0.00  0.00    +0.000 C 
BRANCH   8   9
ATOM      9  C   UNL     1      -3.171  11.993  18.965  0.00  0.00    +0.000 C 
ATOM     10  O   UNL     1      -2.974  12.299  20.130  0.00  0.00    +0.000 OA
BRANCH   9  11
ATOM     11  O   UNL     1      -4.305  12.321  18.298  0.00  0.00    +0.000 OA
ATOM     12  H   UNL     1      -4.216  13.250  17.974  0.00  0.00    +0.000 HD
ENDBRANCH   9  11
ENDBRANCH   8   9
BRANCH   8  13
ATOM     13  O   UNL     1      -2.646   9.797  18.256  0.00  0.00    +0.000 OA
ATOM     14  H   UNL     1      -2.069   9.220  17.715  0.00  0.00    +0.000 HD
ENDBRANCH   8  13
BRANCH   8  15
ATOM     15  C   UNL     1      -2.385  11.626  16.636  0.00  0.00    +0.000 C 
BRANCH  15  17
ATOM     16  O   UNL     1      -4.436  10.708  15.800  0.00  0.00    +0.000 OA
ATOM     17  C   UNL     1      -3.211  10.683  15.811  0.00  0.00    +0.000 C 
BRANCH  17  18
ATOM     18  O   UNL     1      -2.496   9.814  15.073  0.00  0.00    +0.000 OA
ATOM     19  H   UNL     1      -1.528  10.020  15.066  0.00  0.00    +0.000 HD
ENDBRANCH  17  18
ENDBRANCH  15  17
ENDBRANCH   8  15
ENDBRANCH   7   8
ENDBRANCH   4   7
ENDBRANCH   3   4
ENDBRANCH   2   3
ENDBRANCH   1   2
BRANCH   1  20
ATOM     20  C   UNL     1       2.415   7.208  18.158  0.00  0.00    +0.000 C 
BRANCH  20  21
ATOM     21  C   UNL     1       3.634   6.440  18.684  0.00  0.00    +0.000 C 
BRANCH  21  22
ATOM     22  N   UNL     1       3.903   5.240  17.902  0.00  0.00    +0.000 N 
ATOM     23  C   UNL     1       3.508   3.935  18.188  0.00  0.00    +0.000 A 
ATOM     24  C   UNL     1       4.057   3.159  17.169  0.00  0.00    +0.000 A 
ATOM     25  C   UNL     1       4.821   3.976  16.298  0.00  0.00    +0.000 A 
ATOM     26  C   UNL     1       5.610   3.717  15.161  0.00  0.00    +0.000 A 
ATOM     27  C   UNL     1       6.255   4.778  14.521  0.00  0.00    +0.000 A 
ATOM     28 CL   UNL     1       7.241   4.464  13.146  0.00  0.00    +0.000 Cl
ATOM     29  C   UNL     1       6.122   6.080  14.990  0.00  0.00    +0.000 A 
ATOM     30  C   UNL     1       5.338   6.356  16.114  0.00  0.00    +0.000 A 
ATOM     31  C   UNL     1       4.702   5.280  16.764  0.00  0.00    +0.000 A 
BRANCH  23  32
ATOM     32  C   UNL     1       2.750   3.447  19.366  0.00  0.00    +0.000 A 
ATOM     33  C   UNL     1       1.358   3.547  19.500  0.00  0.00    +0.000 A 
ATOM     34  C   UNL     1       0.695   3.133  20.662  0.00  0.00    +0.000 A 
ATOM     35  C   UNL     1       1.410   2.560  21.705  0.00  0.00    +0.000 A 
ATOM     36  C   UNL     1       2.783   2.393  21.579  0.00  0.00    +0.000 A 
ATOM     37  C   UNL     1       3.443   2.838  20.427  0.00  0.00    +0.000 A 
ENDBRANCH  23  32
ENDBRANCH  21  22
ENDBRANCH  20  21
ENDBRANCH   1  20
TORSDOF 16
ENDMDL
MODEL 3
REMARK VINA RESULT:      -6.6      3.533      6.217
REMARK  Name = 
REMARK  16 active torsions:
REMARK  status: ('A' for Active; 'I' for Inactive)
REMARK    1  A    between atoms: C_2  and  O_3
REMARK    2  A    between atoms: C_2  and  C_4
REMARK    3  A    between atoms: C_4  and  C_5
REMARK    4  A    between atoms: C_5  and  O_6
REMARK    5  A    between atoms: C_5  and  C_7
REMARK    6  A    between atoms: C_5  and  C_31
REMARK    7  A    between atoms: C_7  and  C_8
REMARK    8  A    between atoms: C_8  and  O_9
REMARK    9  A    between atoms: C_8  and  C_10
REMARK   10  A    between atoms: C_10  and  C_11
REMARK   11  A    between atoms: C_11  and  C_12
REMARK   12  A    between atoms: C_12  and  C_13
REMARK   13  A    between atoms: C_13  and  C_14
REMARK   14  A    between atoms: C_14  and  N_15
REMARK   15  A    between atoms: C_16  and  C_17
REMARK   16  A    between atoms: C_31  and  O_33
REMARK                            x       y       z     vdW  Elec       q    Type
REMARK                         _______ _______ _______ _____ _____    ______ ____
ROOT
ATOM      1  C   UNL     1       2.957   4.419  17.589  0.00  0.00    +0.000 C 
ENDROOT
BRANCH   1   2
ATOM      2  C   UNL     1       4.085   3.430  17.901  0.00  0.00    +0.000 C 
BRANCH   2   3
ATOM      3  C   UNL     1       4.937   3.817  19.124  0.00  0.00    +0.000 C 
BRANCH   3   4
ATOM      4  C   UNL     1       5.948   4.943  18.846  0.00  0.00    +0.000 C 
BRANCH   4   5
ATOM      5  O   UNL     1       6.953   4.942  19.866  0.00  0.00    +0.000 OA
ATOM      6  H   UNL     1       7.756   5.353  19.491  0.00  0.00    +0.000 HD
ENDBRANCH   4   5
BRANCH   4   7
ATOM      7  C   UNL     1       6.660   4.764  17.497  0.00  0.00    +0.000 C 
BRANCH   7   8
ATOM      8  C   UNL     1       6.720   6.035  16.616  0.00  0.00    +0.000 C 
BRANCH   8   9
ATOM      9  C   UNL     1       5.657   5.910  15.510  0.00  0.00    +0.000 C 
ATOM     10  O   UNL     1       5.011   6.836  15.044  0.00  0.00    +0.000 OA
BRANCH   9  11
ATOM     11  O   UNL     1       5.487   4.623  15.121  0.00  0.00    +0.000 OA
ATOM     12  H   UNL     1       5.666   4.566  14.152  0.00  0.00    +0.000 HD
ENDBRANCH   9  11
ENDBRANCH   8   9
BRANCH   8  13
ATOM     13  O   UNL     1       7.987   5.991  15.912  0.00  0.00    +0.000 OA
ATOM     14  H   UNL     1       8.580   6.669  16.296  0.00  0.00    +0.000 HD
ENDBRANCH   8  13
BRANCH   8  15
ATOM     15  C   UNL     1       6.526   7.384  17.312  0.00  0.00    +0.000 C 
BRANCH  15  17
ATOM     16  O   UNL     1       8.271   9.026  17.270  0.00  0.00    +0.000 OA
ATOM     17  C   UNL     1       7.811   8.007  17.771  0.00  0.00    +0.000 C 
BRANCH  17  18
ATOM     18  O   UNL     1       8.413   7.362  18.788  0.00  0.00    +0.000 OA
ATOM     19  H   UNL     1       8.541   6.398  18.610  0.00  0.00    +0.000 HD
ENDBRANCH  17  18
ENDBRANCH  15  17
ENDBRANCH   8  15
ENDBRANCH   7   8
ENDBRANCH   4   7
ENDBRANCH   3   4
ENDBRANCH   2   3
ENDBRANCH   1   2
BRANCH   1  20
ATOM     20  C   UNL     1       3.308   5.851  18.006  0.00  0.00    +0.000 C 
BRANCH  20  21
ATOM     21  C   UNL     1       2.121   6.817  17.893  0.00  0.00    +0.000 C 
BRANCH  21  22
ATOM     22  N   UNL     1       1.752   7.383  19.184  0.00  0.00    +0.000 N 
ATOM     23  C   UNL     1       1.510   6.699  20.372  0.00  0.00    +0.000 A 
ATOM     24  C   UNL     1       1.145   7.682  21.290  0.00  0.00    +0.000 A 
ATOM     25  C   UNL     1       1.116   8.949  20.653  0.00  0.00    +0.000 A 
ATOM     26  C   UNL     1       0.776  10.246  21.081  0.00  0.00    +0.000 A 
ATOM     27  C   UNL     1       0.850  11.306  20.173  0.00  0.00    +0.000 A 
ATOM     28 CL   UNL     1       0.412  12.890  20.683  0.00  0.00    +0.000 Cl
ATOM     29  C   UNL     1       1.257  11.093  18.862  0.00  0.00    +0.000 A 
ATOM     30  C   UNL     1       1.603   9.812  18.422  0.00  0.00    +0.000 A 
ATOM     31  C   UNL     1       1.513   8.746  19.337  0.00  0.00    +0.000 A 
BRANCH  23  32
ATOM     32  C   UNL     1       1.538   5.234  20.605  0.00  0.00    +0.000 A 
ATOM     33  C   UNL     1       0.679   4.322  19.974  0.00  0.00    +0.000 A 
ATOM     34  C   UNL     1       0.699   2.955  20.278  0.00  0.00    +0.000 A 
ATOM     35  C   UNL     1       1.620   2.458  21.192  0.00  0.00    +0.000 A 
ATOM     36  C   UNL     1       2.523   3.327  21.790  0.00  0.00    +0.000 A 
ATOM     37  C   UNL     1       2.477   4.697  21.504  0.00  0.00    +0.000 A 
ENDBRANCH  23  32
ENDBRANCH  21  22
ENDBRANCH  20  21
ENDBRANCH   1  20
TORSDOF 16
ENDMDL
MODEL 4
REMARK VINA RESULT:      -6.5      2.315      4.725
REMARK  Name = 
REMARK  16 active torsions:
REMARK  status: ('A' for Active; 'I' for Inactive)
REMARK    1  A    between atoms: C_2  and  O_3
REMARK    2  A    between atoms: C_2  and  C_4
REMARK    3  A    between atoms: C_4  and  C_5
REMARK    4  A    between atoms: C_5  and  O_6
REMARK    5  A    between atoms: C_5  and  C_7
REMARK    6  A    between atoms: C_5  and  C_31
REMARK    7  A    between atoms: C_7  and  C_8
REMARK    8  A    between atoms: C_8  and  O_9
REMARK    9  A    between atoms: C_8  and  C_10
REMARK   10  A    between atoms: C_10  and  C_11
REMARK   11  A    between atoms: C_11  and  C_12
REMARK   12  A    between atoms: C_12  and  C_13
REMARK   13  A    between atoms: C_13  and  C_14
REMARK   14  A    between atoms: C_14  and  N_15
REMARK   15  A    between atoms: C_16  and  C_17
REMARK   16  A    between atoms: C_31  and  O_33
REMARK                            x       y       z     vdW  Elec       q    Type
REMARK                         _______ _______ _______ _____ _____    ______ ____
ROOT
ATOM      1  C   UNL     1      -0.190   8.655  21.471  0.00  0.00    +0.000 C 
ENDROOT
BRANCH   1   2
ATOM      2  C   UNL     1       1.302   8.307  21.428  0.00  0.00    +0.000 C 
BRANCH   2   3
ATOM      3  C   UNL     1       1.828   7.982  20.019  0.00  0.00    +0.000 C 
BRANCH   3   4
ATOM      4  C   UNL     1       2.378   6.552  19.875  0.00  0.00    +0.000 C 
BRANCH   4   5
ATOM      5  O   UNL     1       1.533   5.643  20.590  0.00  0.00    +0.000 OA
ATOM      6  H   UNL     1       2.079   5.205  21.271  0.00  0.00    +0.000 HD
ENDBRANCH   4   5
BRANCH   4   7
ATOM      7  C   UNL     1       2.418   6.091  18.412  0.00  0.00    +0.000 C 
BRANCH   7   8
ATOM      8  C   UNL     1       3.575   5.123  18.062  0.00  0.00    +0.000 C 
BRANCH   8   9
ATOM      9  C   UNL     1       4.481   5.805  17.022  0.00  0.00    +0.000 C 
ATOM     10  O   UNL     1       4.909   5.280  16.006  0.00  0.00    +0.000 OA
BRANCH   9  11
ATOM     11  O   UNL     1       4.790   7.075  17.382  0.00  0.00    +0.000 OA
ATOM     12  H   UNL     1       4.075   7.412  17.974  0.00  0.00    +0.000 HD
ENDBRANCH   9  11
ENDBRANCH   8   9
BRANCH   8  13
ATOM     13  O   UNL     1       2.981   4.006  17.352  0.00  0.00    +0.000 OA
ATOM     14  H   UNL     1       2.626   3.373  18.011  0.00  0.00    +0.000 HD
ENDBRANCH   8  13
BRANCH   8  15
ATOM     15  C   UNL     1       4.456   4.635  19.214  0.00  0.00    +0.000 C 
BRANCH  15  17
ATOM     16  O   UNL     1       2.985   2.950  20.076  0.00  0.00    +0.000 OA
ATOM     17  C   UNL     1       4.107   3.255  19.687  0.00  0.00    +0.000 C 
BRANCH  17  18
ATOM     18  O   UNL     1       5.123   2.373  19.639  0.00  0.00    +0.000 OA
ATOM     19  H   UNL     1       5.265   2.002  18.733  0.00  0.00    +0.000 HD
ENDBRANCH  17  18
ENDBRANCH  15  17
ENDBRANCH   8  15
ENDBRANCH   7   8
ENDBRANCH   4   7
ENDBRANCH   3   4
ENDBRANCH   2   3
ENDBRANCH   1   2
BRANCH   1  20
ATOM     20  C   UNL     1      -0.453  10.002  22.152  0.00  0.00    +0.000 C 
BRANCH  20  21
ATOM     21  C   UNL     1      -0.149  11.202  21.246  0.00  0.00    +0.000 C 
BRANCH  21  22
ATOM     22  N   UNL     1      -1.324  11.634  20.498  0.00  0.00    +0.000 N 
ATOM     23  C   UNL     1      -2.348  12.469  20.937  0.00  0.00    +0.000 A 
ATOM     24  C   UNL     1      -3.249  12.526  19.876  0.00  0.00    +0.000 A 
ATOM     25  C   UNL     1      -2.803  11.692  18.819  0.00  0.00    +0.000 A 
ATOM     26  C   UNL     1      -3.334  11.344  17.562  0.00  0.00    +0.000 A 
ATOM     27  C   UNL     1      -2.624  10.464  16.741  0.00  0.00    +0.000 A 
ATOM     28 CL   UNL     1      -3.279  10.016  15.214  0.00  0.00    +0.000 Cl
ATOM     29  C   UNL     1      -1.405   9.936  17.148  0.00  0.00    +0.000 A 
ATOM     30  C   UNL     1      -0.861  10.275  18.390  0.00  0.00    +0.000 A 
ATOM     31  C   UNL     1      -1.588  11.151  19.220  0.00  0.00    +0.000 A 
BRANCH  23  32
ATOM     32  C   UNL     1      -2.508  13.095  22.272  0.00  0.00    +0.000 A 
ATOM     33  C   UNL     1      -3.535  12.775  23.171  0.00  0.00    +0.000 A 
ATOM     34  C   UNL     1      -3.684  13.443  24.393  0.00  0.00    +0.000 A 
ATOM     35  C   UNL     1      -2.771  14.421  24.768  0.00  0.00    +0.000 A 
ATOM     36  C   UNL     1      -1.709  14.720  23.925  0.00  0.00    +0.000 A 
ATOM     37  C   UNL     1      -1.584  14.069  22.691  0.00  0.00    +0.000 A 
ENDBRANCH  23  32
ENDBRANCH  21  22
ENDBRANCH  20  21
ENDBRANCH   1  20
TORSDOF 16
ENDMDL
MODEL 5
REMARK VINA RESULT:      -6.5      5.278     10.438
REMARK  Name = 
REMARK  16 active torsions:
REMARK  status: ('A' for Active; 'I' for Inactive)
REMARK    1  A    between atoms: C_2  and  O_3
REMARK    2  A    between atoms: C_2  and  C_4
REMARK    3  A    between atoms: C_4  and  C_5
REMARK    4  A    between atoms: C_5  and  O_6
REMARK    5  A    between atoms: C_5  and  C_7
REMARK    6  A    between atoms: C_5  and  C_31
REMARK    7  A    between atoms: C_7  and  C_8
REMARK    8  A    between atoms: C_8  and  O_9
REMARK    9  A    between atoms: C_8  and  C_10
REMARK   10  A    between atoms: C_10  and  C_11
REMARK   11  A    between atoms: C_11  and  C_12
REMARK   12  A    between atoms: C_12  and  C_13
REMARK   13  A    between atoms: C_13  and  C_14
REMARK   14  A    between atoms: C_14  and  N_15
REMARK   15  A    between atoms: C_16  and  C_17
REMARK   16  A    between atoms: C_31  and  O_33
REMARK                            x       y       z     vdW  Elec       q    Type
REMARK                         _______ _______ _______ _____ _____    ______ ____
ROOT
ATOM      1  C   UNL     1       3.792   7.219  17.997  0.00  0.00    +0.000 C 
ENDROOT
BRANCH   1   2
ATOM      2  C   UNL     1       2.384   7.630  18.443  0.00  0.00    +0.000 C 
BRANCH   2   3
ATOM      3  C   UNL     1       2.054   7.254  19.898  0.00  0.00    +0.000 C 
BRANCH   3   4
ATOM      4  C   UNL     1       1.263   8.335  20.654  0.00  0.00    +0.000 C 
BRANCH   4   5
ATOM      5  O   UNL     1       1.974   8.701  21.842  0.00  0.00    +0.000 OA
ATOM      6  H   UNL     1       1.383   9.263  22.380  0.00  0.00    +0.000 HD
ENDBRANCH   4   5
BRANCH   4   7
ATOM      7  C   UNL     1       1.076   9.609  19.818  0.00  0.00    +0.000 C 
BRANCH   7   8
ATOM      8  C   UNL     1       0.343  10.765  20.543  0.00  0.00    +0.000 C 
BRANCH   8   9
ATOM      9  C   UNL     1      -0.163  11.759  19.483  0.00  0.00    +0.000 C 
ATOM     10  O   UNL     1      -1.308  11.822  19.064  0.00  0.00    +0.000 OA
BRANCH   9  11
ATOM     11  O   UNL     1       0.834  12.557  19.027  0.00  0.00    +0.000 OA
ATOM     12  H   UNL     1       0.592  12.867  18.121  0.00  0.00    +0.000 HD
ENDBRANCH   9  11
ENDBRANCH   8   9
BRANCH   8  13
ATOM     13  O   UNL     1       1.354  11.499  21.280  0.00  0.00    +0.000 OA
ATOM     14  H   UNL     1       1.654  12.252  20.729  0.00  0.00    +0.000 HD
ENDBRANCH   8  13
BRANCH   8  15
ATOM     15  C   UNL     1      -0.834  10.394  21.448  0.00  0.00    +0.000 C 
BRANCH  15  17
ATOM     16  O   UNL     1      -0.073   9.985  23.683  0.00  0.00    +0.000 OA
ATOM     17  C   UNL     1      -0.611  10.747  22.889  0.00  0.00    +0.000 C 
BRANCH  17  18
ATOM     18  O   UNL     1      -1.039  11.975  23.236  0.00  0.00    +0.000 OA
ATOM     19  H   UNL     1      -1.199  12.065  24.208  0.00  0.00    +0.000 HD
ENDBRANCH  17  18
ENDBRANCH  15  17
ENDBRANCH   8  15
ENDBRANCH   7   8
ENDBRANCH   4   7
ENDBRANCH   3   4
ENDBRANCH   2   3
ENDBRANCH   1   2
BRANCH   1  20
ATOM     20  C   UNL     1       4.615   6.626  19.145  0.00  0.00    +0.000 C 
BRANCH  20  21
ATOM     21  C   UNL     1       5.555   5.502  18.691  0.00  0.00    +0.000 C 
BRANCH  21  22
ATOM     22  N   UNL     1       4.999   4.739  17.581  0.00  0.00    +0.000 N 
ATOM     23  C   UNL     1       3.879   3.913  17.597  0.00  0.00    +0.000 A 
ATOM     24  C   UNL     1       3.801   3.380  16.312  0.00  0.00    +0.000 A 
ATOM     25  C   UNL     1       4.895   3.839  15.533  0.00  0.00    +0.000 A 
ATOM     26  C   UNL     1       5.328   3.586  14.218  0.00  0.00    +0.000 A 
ATOM     27  C   UNL     1       6.485   4.211  13.748  0.00  0.00    +0.000 A 
ATOM     28 CL   UNL     1       7.034   3.888  12.149  0.00  0.00    +0.000 Cl
ATOM     29  C   UNL     1       7.206   5.079  14.560  0.00  0.00    +0.000 A 
ATOM     30  C   UNL     1       6.788   5.345  15.867  0.00  0.00    +0.000 A 
ATOM     31  C   UNL     1       5.628   4.700  16.340  0.00  0.00    +0.000 A 
BRANCH  23  32
ATOM     32  C   UNL     1       3.001   3.585  18.748  0.00  0.00    +0.000 A 
ATOM     33  C   UNL     1       1.630   3.876  18.797  0.00  0.00    +0.000 A 
ATOM     34  C   UNL     1       0.858   3.608  19.935  0.00  0.00    +0.000 A 
ATOM     35  C   UNL     1       1.435   2.994  21.039  0.00  0.00    +0.000 A 
ATOM     36  C   UNL     1       2.777   2.640  20.999  0.00  0.00    +0.000 A 
ATOM     37  C   UNL     1       3.550   2.939  19.870  0.00  0.00    +0.000 A 
ENDBRANCH  23  32
ENDBRANCH  21  22
ENDBRANCH  20  21
ENDBRANCH   1  20
TORSDOF 16
ENDMDL
MODEL 6
REMARK VINA RESULT:      -6.5      5.744     10.588
REMARK  Name = 
REMARK  16 active torsions:
REMARK  status: ('A' for Active; 'I' for Inactive)
REMARK    1  A    between atoms: C_2  and  O_3
REMARK    2  A    between atoms: C_2  and  C_4
REMARK    3  A    between atoms: C_4  and  C_5
REMARK    4  A    between atoms: C_5  and  O_6
REMARK    5  A    between atoms: C_5  and  C_7
REMARK    6  A    between atoms: C_5  and  C_31
REMARK    7  A    between atoms: C_7  and  C_8
REMARK    8  A    between atoms: C_8  and  O_9
REMARK    9  A    between atoms: C_8  and  C_10
REMARK   10  A    between atoms: C_10  and  C_11
REMARK   11  A    between atoms: C_11  and  C_12
REMARK   12  A    between atoms: C_12  and  C_13
REMARK   13  A    between atoms: C_13  and  C_14
REMARK   14  A    between atoms: C_14  and  N_15
REMARK   15  A    between atoms: C_16  and  C_17
REMARK   16  A    between atoms: C_31  and  O_33
REMARK                            x       y       z     vdW  Elec       q    Type
REMARK                         _______ _______ _______ _____ _____    ______ ____
ROOT
ATOM      1  C   UNL     1       2.989   8.110  17.755  0.00  0.00    +0.000 C 
ENDROOT
BRANCH   1   2
ATOM      2  C   UNL     1       1.678   8.899  17.697  0.00  0.00    +0.000 C 
BRANCH   2   3
ATOM      3  C   UNL     1       1.217   9.449  19.058  0.00  0.00    +0.000 C 
BRANCH   3   4
ATOM      4  C   UNL     1       0.356  10.720  18.956  0.00  0.00    +0.000 C 
BRANCH   4   5
ATOM      5  O   UNL     1       1.013  11.674  18.113  0.00  0.00    +0.000 OA
ATOM      6  H   UNL     1       1.844  11.936  18.554  0.00  0.00    +0.000 HD
ENDBRANCH   4   5
BRANCH   4   7
ATOM      7  C   UNL     1      -1.024  10.439  18.345  0.00  0.00    +0.000 C 
BRANCH   7   8
ATOM      8  C   UNL     1      -2.003  11.638  18.362  0.00  0.00    +0.000 C 
BRANCH   8   9
ATOM      9  C   UNL     1      -3.295  11.221  17.637  0.00  0.00    +0.000 C 
ATOM     10  O   UNL     1      -4.029  10.305  17.974  0.00  0.00    +0.000 OA
BRANCH   9  11
ATOM     11  O   UNL     1      -3.518  11.977  16.534  0.00  0.00    +0.000 OA
ATOM     12  H   UNL     1      -4.475  11.909  16.301  0.00  0.00    +0.000 HD
ENDBRANCH   9  11
ENDBRANCH   8   9
BRANCH   8  13
ATOM     13  O   UNL     1      -1.421  12.660  17.513  0.00  0.00    +0.000 OA
ATOM     14  H   UNL     1      -0.915  12.220  16.799  0.00  0.00    +0.000 HD
ENDBRANCH   8  13
BRANCH   8  15
ATOM     15  C   UNL     1      -2.389  12.212  19.727  0.00  0.00    +0.000 C 
BRANCH  15  17
ATOM     16  O   UNL     1      -1.486  14.433  19.705  0.00  0.00    +0.000 OA
ATOM     17  C   UNL     1      -1.475  13.308  20.190  0.00  0.00    +0.000 C 
BRANCH  17  18
ATOM     18  O   UNL     1      -0.648  12.960  21.194  0.00  0.00    +0.000 OA
ATOM     19  H   UNL     1      -0.320  12.030  21.116  0.00  0.00    +0.000 HD
ENDBRANCH  17  18
ENDBRANCH  15  17
ENDBRANCH   8  15
ENDBRANCH   7   8
ENDBRANCH   4   7
ENDBRANCH   3   4
ENDBRANCH   2   3
ENDBRANCH   1   2
BRANCH   1  20
ATOM     20  C   UNL     1       2.974   7.036  18.848  0.00  0.00    +0.000 C 
BRANCH  20  21
ATOM     21  C   UNL     1       4.271   6.219  18.906  0.00  0.00    +0.000 C 
BRANCH  21  22
ATOM     22  N   UNL     1       4.247   5.089  17.985  0.00  0.00    +0.000 N 
ATOM     23  C   UNL     1       3.597   3.870  18.157  0.00  0.00    +0.000 A 
ATOM     24  C   UNL     1       3.925   3.121  17.029  0.00  0.00    +0.000 A 
ATOM     25  C   UNL     1       4.809   3.860  16.200  0.00  0.00    +0.000 A 
ATOM     26  C   UNL     1       5.477   3.578  14.994  0.00  0.00    +0.000 A 
ATOM     27  C   UNL     1       6.306   4.551  14.429  0.00  0.00    +0.000 A 
ATOM     28 CL   UNL     1       7.145   4.204  12.967  0.00  0.00    +0.000 Cl
ATOM     29  C   UNL     1       6.472   5.788  15.040  0.00  0.00    +0.000 A 
ATOM     30  C   UNL     1       5.811   6.086  16.236  0.00  0.00    +0.000 A 
ATOM     31  C   UNL     1       4.989   5.096  16.808  0.00  0.00    +0.000 A 
BRANCH  23  32
ATOM     32  C   UNL     1       2.801   3.414  19.324  0.00  0.00    +0.000 A 
ATOM     33  C   UNL     1       1.411   3.562  19.432  0.00  0.00    +0.000 A 
ATOM     34  C   UNL     1       0.714   3.177  20.584  0.00  0.00    +0.000 A 
ATOM     35  C   UNL     1       1.391   2.586  21.643  0.00  0.00    +0.000 A 
ATOM     36  C   UNL     1       2.759   2.372  21.542  0.00  0.00    +0.000 A 
ATOM     37  C   UNL     1       3.455   2.787  20.400  0.00  0.00    +0.000 A 
ENDBRANCH  23  32
ENDBRANCH  21  22
ENDBRANCH  20  21
ENDBRANCH   1  20
TORSDOF 16
ENDMDL
MODEL 7
REMARK VINA RESULT:      -6.5      5.998     10.336
REMARK  Name = 
REMARK  16 active torsions:
REMARK  status: ('A' for Active; 'I' for Inactive)
REMARK    1  A    between atoms: C_2  and  O_3
REMARK    2  A    between atoms: C_2  and  C_4
REMARK    3  A    between atoms: C_4  and  C_5
REMARK    4  A    between atoms: C_5  and  O_6
REMARK    5  A    between atoms: C_5  and  C_7
REMARK    6  A    between atoms: C_5  and  C_31
REMARK    7  A    between atoms: C_7  and  C_8
REMARK    8  A    between atoms: C_8  and  O_9
REMARK    9  A    between atoms: C_8  and  C_10
REMARK   10  A    between atoms: C_10  and  C_11
REMARK   11  A    between atoms: C_11  and  C_12
REMARK   12  A    between atoms: C_12  and  C_13
REMARK   13  A    between atoms: C_13  and  C_14
REMARK   14  A    between atoms: C_14  and  N_15
REMARK   15  A    between atoms: C_16  and  C_17
REMARK   16  A    between atoms: C_31  and  O_33
REMARK                            x       y       z     vdW  Elec       q    Type
REMARK                         _______ _______ _______ _____ _____    ______ ____
ROOT
ATOM      1  C   UNL     1       0.342   9.440  23.307  0.00  0.00    +0.000 C 
ENDROOT
BRANCH   1   2
ATOM      2  C   UNL     1      -1.016  10.106  23.064  0.00  0.00    +0.000 C 
BRANCH   2   3
ATOM      3  C   UNL     1      -0.926  11.599  22.704  0.00  0.00    +0.000 C 
BRANCH   3   4
ATOM      4  C   UNL     1      -2.245  12.367  22.899  0.00  0.00    +0.000 C 
BRANCH   4   5
ATOM      5  O   UNL     1      -3.118  11.607  23.742  0.00  0.00    +0.000 OA
ATOM      6  H   UNL     1      -2.794  10.686  23.751  0.00  0.00    +0.000 HD
ENDBRANCH   4   5
BRANCH   4   7
ATOM      7  C   UNL     1      -2.029  13.731  23.569  0.00  0.00    +0.000 C 
BRANCH   7   8
ATOM      8  C   UNL     1      -3.326  14.470  23.981  0.00  0.00    +0.000 C 
BRANCH   8   9
ATOM      9  C   UNL     1      -2.985  15.950  24.225  0.00  0.00    +0.000 C 
ATOM     10  O   UNL     1      -2.917  16.488  25.319  0.00  0.00    +0.000 OA
BRANCH   9  11
ATOM     11  O   UNL     1      -2.797  16.620  23.061  0.00  0.00    +0.000 OA
ATOM     12  H   UNL     1      -2.154  17.351  23.225  0.00  0.00    +0.000 HD
ENDBRANCH   9  11
ENDBRANCH   8   9
BRANCH   8  13
ATOM     13  O   UNL     1      -3.695  13.960  25.289  0.00  0.00    +0.000 OA
ATOM     14  H   UNL     1      -4.600  13.589  25.233  0.00  0.00    +0.000 HD
ENDBRANCH   8  13
BRANCH   8  15
ATOM     15  C   UNL     1      -4.510  14.406  23.014  0.00  0.00    +0.000 C 
BRANCH  15  17
ATOM     16  O   UNL     1      -5.908  12.516  23.479  0.00  0.00    +0.000 OA
ATOM     17  C   UNL     1      -5.713  13.720  23.590  0.00  0.00    +0.000 C 
BRANCH  17  18
ATOM     18  O   UNL     1      -6.557  14.534  24.252  0.00  0.00    +0.000 OA
ATOM     19  H   UNL     1      -6.852  14.159  25.118  0.00  0.00    +0.000 HD
ENDBRANCH  17  18
ENDBRANCH  15  17
ENDBRANCH   8  15
ENDBRANCH   7   8
ENDBRANCH   4   7
ENDBRANCH   3   4
ENDBRANCH   2   3
ENDBRANCH   1   2
BRANCH   1  20
ATOM     20  C   UNL     1       1.210   9.413  22.045  0.00  0.00    +0.000 C 
BRANCH  20  21
ATOM     21  C   UNL     1       0.896   8.225  21.125  0.00  0.00    +0.000 C 
BRANCH  21  22
ATOM     22  N   UNL     1       1.531   8.362  19.821  0.00  0.00    +0.000 N 
ATOM     23  C   UNL     1       1.346   9.381  18.890  0.00  0.00    +0.000 A 
ATOM     24  C   UNL     1       2.132   9.022  17.797  0.00  0.00    +0.000 A 
ATOM     25  C   UNL     1       2.752   7.769  18.040  0.00  0.00    +0.000 A 
ATOM     26  C   UNL     1       3.590   6.933  17.278  0.00  0.00    +0.000 A 
ATOM     27  C   UNL     1       4.030   5.726  17.825  0.00  0.00    +0.000 A 
ATOM     28 CL   UNL     1       5.035   4.688  16.890  0.00  0.00    +0.000 Cl
ATOM     29  C   UNL     1       3.655   5.346  19.109  0.00  0.00    +0.000 A 
ATOM     30  C   UNL     1       2.828   6.167  19.881  0.00  0.00    +0.000 A 
ATOM     31  C   UNL     1       2.375   7.376  19.318  0.00  0.00    +0.000 A 
BRANCH  23  32
ATOM     32  C   UNL     1       0.441  10.553  18.986  0.00  0.00    +0.000 A 
ATOM     33  C   UNL     1       0.880  11.871  19.173  0.00  0.00    +0.000 A 
ATOM     34  C   UNL     1      -0.017  12.935  19.326  0.00  0.00    +0.000 A 
ATOM     35  C   UNL     1      -1.385  12.709  19.244  0.00  0.00    +0.000 A 
ATOM     36  C   UNL     1      -1.851  11.424  19.000  0.00  0.00    +0.000 A 
ATOM     37  C   UNL     1      -0.948  10.360  18.880  0.00  0.00    +0.000 A 
ENDBRANCH  23  32
ENDBRANCH  21  22
ENDBRANCH  20  21
ENDBRANCH   1  20
TORSDOF 16
ENDMDL
MODEL 8
REMARK VINA RESULT:      -6.4      4.628      9.580
REMARK  Name = 
REMARK  16 active torsions:
REMARK  status: ('A' for Active; 'I' for Inactive)
REMARK    1  A    between atoms: C_2  and  O_3
REMARK    2  A    between atoms: C_2  and  C_4
REMARK    3  A    between atoms: C_4  and  C_5
REMARK    4  A    between atoms: C_5  and  O_6
REMARK    5  A    between atoms: C_5  and  C_7
REMARK    6  A    between atoms: C_5  and  C_31
REMARK    7  A    between atoms: C_7  and  C_8
REMARK    8  A    between atoms: C_8  and  O_9
REMARK    9  A    between atoms: C_8  and  C_10
REMARK   10  A    between atoms: C_10  and  C_11
REMARK   11  A    between atoms: C_11  and  C_12
REMARK   12  A    between atoms: C_12  and  C_13
REMARK   13  A    between atoms: C_13  and  C_14
REMARK   14  A    between atoms: C_14  and  N_15
REMARK   15  A    between atoms: C_16  and  C_17
REMARK   16  A    between atoms: C_31  and  O_33
REMARK                            x       y       z     vdW  Elec       q    Type
REMARK                         _______ _______ _______ _____ _____    ______ ____
ROOT
ATOM      1  C   UNL     1       3.003   8.592  17.818  0.00  0.00    +0.000 C 
ENDROOT
BRANCH   1   2
ATOM      2  C   UNL     1       1.531   8.428  18.211  0.00  0.00    +0.000 C 
BRANCH   2   3
ATOM      3  C   UNL     1       0.689   9.705  18.034  0.00  0.00    +0.000 C 
BRANCH   3   4
ATOM      4  C   UNL     1       1.202  10.905  18.848  0.00  0.00    +0.000 C 
BRANCH   4   5
ATOM      5  O   UNL     1       1.944  11.780  17.990  0.00  0.00    +0.000 OA
ATOM      6  H   UNL     1       1.989  12.653  18.425  0.00  0.00    +0.000 HD
ENDBRANCH   4   5
BRANCH   4   7
ATOM      7  C   UNL     1       0.056  11.723  19.460  0.00  0.00    +0.000 C 
BRANCH   7   8
ATOM      8  C   UNL     1      -0.254  11.406  20.943  0.00  0.00    +0.000 C 
BRANCH   8   9
ATOM      9  C   UNL     1      -1.627  12.006  21.292  0.00  0.00    +0.000 C 
ATOM     10  O   UNL     1      -2.450  12.404  20.482  0.00  0.00    +0.000 OA
BRANCH   9  11
ATOM     11  O   UNL     1      -1.817  12.080  22.633  0.00  0.00    +0.000 OA
ATOM     12  H   UNL     1      -1.347  11.320  23.053  0.00  0.00    +0.000 HD
ENDBRANCH   9  11
ENDBRANCH   8   9
BRANCH   8  13
ATOM     13  O   UNL     1       0.691  12.170  21.736  0.00  0.00    +0.000 OA
ATOM     14  H   UNL     1       0.825  11.709  22.590  0.00  0.00    +0.000 HD
ENDBRANCH   8  13
BRANCH   8  15
ATOM     15  C   UNL     1      -0.257   9.934  21.363  0.00  0.00    +0.000 C 
BRANCH  15  17
ATOM     16  O   UNL     1       1.791   9.266  22.413  0.00  0.00    +0.000 OA
ATOM     17  C   UNL     1       0.633   9.647  22.535  0.00  0.00    +0.000 C 
BRANCH  17  18
ATOM     18  O   UNL     1       0.061   9.856  23.736  0.00  0.00    +0.000 OA
ATOM     19  H   UNL     1       0.723   9.959  24.464  0.00  0.00    +0.000 HD
ENDBRANCH  17  18
ENDBRANCH  15  17
ENDBRANCH   8  15
ENDBRANCH   7   8
ENDBRANCH   4   7
ENDBRANCH   3   4
ENDBRANCH   2   3
ENDBRANCH   1   2
BRANCH   1  20
ATOM     20  C   UNL     1       3.521   7.404  17.001  0.00  0.00    +0.000 C 
BRANCH  20  21
ATOM     21  C   UNL     1       4.715   6.699  17.658  0.00  0.00    +0.000 C 
BRANCH  21  22
ATOM     22  N   UNL     1       4.479   5.271  17.829  0.00  0.00    +0.000 N 
ATOM     23  C   UNL     1       4.868   4.239  16.979  0.00  0.00    +0.000 A 
ATOM     24  C   UNL     1       4.359   3.079  17.559  0.00  0.00    +0.000 A 
ATOM     25  C   UNL     1       3.624   3.406  18.726  0.00  0.00    +0.000 A 
ATOM     26  C   UNL     1       2.877   2.651  19.651  0.00  0.00    +0.000 A 
ATOM     27  C   UNL     1       2.251   3.302  20.716  0.00  0.00    +0.000 A 
ATOM     28 CL   UNL     1       1.316   2.388  21.836  0.00  0.00    +0.000 Cl
ATOM     29  C   UNL     1       2.362   4.678  20.875  0.00  0.00    +0.000 A 
ATOM     30  C   UNL     1       3.104   5.442  19.970  0.00  0.00    +0.000 A 
ATOM     31  C   UNL     1       3.720   4.782  18.889  0.00  0.00    +0.000 A 
BRANCH  23  32
ATOM     32  C   UNL     1       5.585   4.344  15.684  0.00  0.00    +0.000 A 
ATOM     33  C   UNL     1       5.150   3.743  14.494  0.00  0.00    +0.000 A 
ATOM     34  C   UNL     1       5.899   3.814  13.313  0.00  0.00    +0.000 A 
ATOM     35  C   UNL     1       7.086   4.535  13.283  0.00  0.00    +0.000 A 
ATOM     36  C   UNL     1       7.515   5.190  14.430  0.00  0.00    +0.000 A 
ATOM     37  C   UNL     1       6.776   5.089  15.616  0.00  0.00    +0.000 A 
ENDBRANCH  23  32
ENDBRANCH  21  22
ENDBRANCH  20  21
ENDBRANCH   1  20
TORSDOF 16
ENDMDL
MODEL 9
REMARK VINA RESULT:      -6.4      2.111      3.049
REMARK  Name = 
REMARK  16 active torsions:
REMARK  status: ('A' for Active; 'I' for Inactive)
REMARK    1  A    between atoms: C_2  and  O_3
REMARK    2  A    between atoms: C_2  and  C_4
REMARK    3  A    between atoms: C_4  and  C_5
REMARK    4  A    between atoms: C_5  and  O_6
REMARK    5  A    between atoms: C_5  and  C_7
REMARK    6  A    between atoms: C_5  and  C_31
REMARK    7  A    between atoms: C_7  and  C_8
REMARK    8  A    between atoms: C_8  and  O_9
REMARK    9  A    between atoms: C_8  and  C_10
REMARK   10  A    between atoms: C_10  and  C_11
REMARK   11  A    between atoms: C_11  and  C_12
REMARK   12  A    between atoms: C_12  and  C_13
REMARK   13  A    between atoms: C_13  and  C_14
REMARK   14  A    between atoms: C_14  and  N_15
REMARK   15  A    between atoms: C_16  and  C_17
REMARK   16  A    between atoms: C_31  and  O_33
REMARK                            x       y       z     vdW  Elec       q    Type
REMARK                         _______ _______ _______ _____ _____    ______ ____
ROOT
ATOM      1  C   UNL     1       1.705  10.741  18.524  0.00  0.00    +0.000 C 
ENDROOT
BRANCH   1   2
ATOM      2  C   UNL     1       1.176   9.328  18.262  0.00  0.00    +0.000 C 
BRANCH   2   3
ATOM      3  C   UNL     1       2.249   8.337  17.777  0.00  0.00    +0.000 C 
BRANCH   3   4
ATOM      4  C   UNL     1       2.625   7.269  18.820  0.00  0.00    +0.000 C 
BRANCH   4   5
ATOM      5  O   UNL     1       1.913   7.521  20.037  0.00  0.00    +0.000 OA
ATOM      6  H   UNL     1       2.178   6.837  20.681  0.00  0.00    +0.000 HD
ENDBRANCH   4   5
BRANCH   4   7
ATOM      7  C   UNL     1       2.259   5.852  18.356  0.00  0.00    +0.000 C 
BRANCH   7   8
ATOM      8  C   UNL     1       2.829   4.710  19.233  0.00  0.00    +0.000 C 
BRANCH   8   9
ATOM      9  C   UNL     1       1.677   4.112  20.060  0.00  0.00    +0.000 C 
ATOM     10  O   UNL     1       0.641   4.690  20.348  0.00  0.00    +0.000 OA
BRANCH   9  11
ATOM     11  O   UNL     1       1.958   2.852  20.474  0.00  0.00    +0.000 OA
ATOM     12  H   UNL     1       1.441   2.221  19.917  0.00  0.00    +0.000 HD
ENDBRANCH   9  11
ENDBRANCH   8   9
BRANCH   8  13
ATOM     13  O   UNL     1       3.697   5.334  20.213  0.00  0.00    +0.000 OA
ATOM     14  H   UNL     1       3.562   4.889  21.075  0.00  0.00    +0.000 HD
ENDBRANCH   8  13
BRANCH   8  15
ATOM     15  C   UNL     1       3.546   3.563  18.516  0.00  0.00    +0.000 C 
BRANCH  15  17
ATOM     16  O   UNL     1       4.954   2.394  20.063  0.00  0.00    +0.000 OA
ATOM     17  C   UNL     1       4.858   3.198  19.144  0.00  0.00    +0.000 C 
BRANCH  17  18
ATOM     18  O   UNL     1       5.926   3.816  18.606  0.00  0.00    +0.000 OA
ATOM     19  H   UNL     1       6.202   4.618  19.115  0.00  0.00    +0.000 HD
ENDBRANCH  17  18
ENDBRANCH  15  17
ENDBRANCH   8  15
ENDBRANCH   7   8
ENDBRANCH   4   7
ENDBRANCH   3   4
ENDBRANCH   2   3
ENDBRANCH   1   2
BRANCH   1  20
ATOM     20  C   UNL     1       0.651  11.646  19.171  0.00  0.00    +0.000 C 
BRANCH  20  21
ATOM     21  C   UNL     1      -0.397  10.866  19.975  0.00  0.00    +0.000 C 
BRANCH  21  22
ATOM     22  N   UNL     1      -1.599  11.655  20.216  0.00  0.00    +0.000 N 
ATOM     23  C   UNL     1      -2.707  11.786  19.384  0.00  0.00    +0.000 A 
ATOM     24  C   UNL     1      -3.549  12.683  20.039  0.00  0.00    +0.000 A 
ATOM     25  C   UNL     1      -2.936  13.133  21.236  0.00  0.00    +0.000 A 
ATOM     26  C   UNL     1      -3.306  14.056  22.232  0.00  0.00    +0.000 A 
ATOM     27  C   UNL     1      -2.444  14.282  23.308  0.00  0.00    +0.000 A 
ATOM     28 CL   UNL     1      -2.880  15.427  24.517  0.00  0.00    +0.000 Cl
ATOM     29  C   UNL     1      -1.234  13.605  23.406  0.00  0.00    +0.000 A 
ATOM     30  C   UNL     1      -0.853  12.681  22.428  0.00  0.00    +0.000 A 
ATOM     31  C   UNL     1      -1.720  12.469  21.338  0.00  0.00    +0.000 A 
BRANCH  23  32
ATOM     32  C   UNL     1      -2.922  11.183  18.045  0.00  0.00    +0.000 A 
ATOM     33  C   UNL     1      -2.122  10.165  17.505  0.00  0.00    +0.000 A 
ATOM     34  C   UNL     1      -2.323   9.676  16.208  0.00  0.00    +0.000 A 
ATOM     35  C   UNL     1      -3.369  10.164  15.435  0.00  0.00    +0.000 A 
ATOM     36  C   UNL     1      -4.215  11.130  15.963  0.00  0.00    +0.000 A 
ATOM     37  C   UNL     1      -3.988  11.636  17.249  0.00  0.00    +0.000 A 
ENDBRANCH  23  32
ENDBRANCH  21  22
ENDBRANCH  20  21
ENDBRANCH   1  20
TORSDOF 16
ENDMDL
