MODEL 1
REMARK VINA RESULT:      -7.2      0.000      0.000
REMARK  Name = 
REMARK  17 active torsions:
REMARK  status: ('A' for Active; 'I' for Inactive)
REMARK    1  A    between atoms: C_1  and  C_2
REMARK    2  A    between atoms: C_2  and  N_3
REMARK    3  A    between atoms: N_3  and  C_4
REMARK    4  A    between atoms: N_3  and  N_6
REMARK    5  A    between atoms: C_4  and  C_5
REMARK    6  A    between atoms: N_8  and  O_9
REMARK    7  A    between atoms: O_9  and  C_10
REMARK    8  A    between atoms: C_10  and  O_11
REMARK    9  A    between atoms: O_11  and  C_12
REMARK   10  A    between atoms: C_12  and  C_14
REMARK   11  A    between atoms: C_14  and  C_15
REMARK   12  A    between atoms: C_14  and  N_22
REMARK   13  A    between atoms: C_15  and  C_16
REMARK   14  A    between atoms: C_23  and  C_25
REMARK   15  A    between atoms: C_28  and  C_29
REMARK   16  A    between atoms: C_29  and  C_30
REMARK   17  A    between atoms: C_29  and  C_31
REMARK                            x       y       z     vdW  Elec       q    Type
REMARK                         _______ _______ _______ _____ _____    ______ ____
ROOT
ATOM      1  C   UNL     1       5.413   5.635  16.416  0.00  0.00    +0.000 C 
ENDROOT
BRANCH   1   2
ATOM      2  N   UNL     1       4.248   6.052  17.199  0.00  0.00    +0.000 N 
ATOM      3  C   UNL     1       3.630   7.258  17.000  0.00  0.00    +0.000 C 
ATOM      4  O   UNL     1       3.935   8.001  16.070  0.00  0.00    +0.000 OA
ATOM      5  H   UNL     1       3.871   5.400  17.882  0.00  0.00    +0.000 HD
BRANCH   3   6
ATOM      6  C   UNL     1       2.505   7.593  17.965  0.00  0.00    +0.000 C 
ATOM      7  C   UNL     1       2.864   7.255  19.411  0.00  0.00    +0.000 C 
ATOM      8  C   UNL     1       1.748   7.654  20.366  0.00  0.00    +0.000 C 
ATOM      9  C   UNL     1       1.394   9.149  20.271  0.00  0.00    +0.000 C 
ATOM     10  C   UNL     1       1.066   9.510  18.808  0.00  0.00    +0.000 C 
ATOM     11  C   UNL     1       2.168   9.086  17.847  0.00  0.00    +0.000 C 
BRANCH   9  12
ATOM     12  C   UNL     1       0.231   9.513  21.237  0.00  0.00    +0.000 C 
ATOM     13  C   UNL     1      -0.543   8.280  21.716  0.00  0.00    +0.000 C 
ATOM     14  C   UNL     1      -0.767  10.487  20.596  0.00  0.00    +0.000 C 
ENDBRANCH   9  12
ENDBRANCH   3   6
ENDBRANCH   1   2
BRANCH   1  15
ATOM     15  C   UNL     1       6.750   5.757  17.185  0.00  0.00    +0.000 C 
ATOM     16  O   UNL     1       7.590   6.630  16.954  0.00  0.00    +0.000 OA
BRANCH  15  17
ATOM     17  O   UNL     1       6.807   4.882  18.224  0.00  0.00    +0.000 OA
BRANCH  17  18
ATOM     18  C   UNL     1       6.020   5.212  19.375  0.00  0.00    +0.000 C 
BRANCH  18  19
ATOM     19  O   UNL     1       4.848   4.418  19.518  0.00  0.00    +0.000 OA
BRANCH  19  22
ATOM     20  N   UNL     1       4.172   2.259  19.440  0.00  0.00    +0.000 N 
ATOM     21  O   UNL     1       4.419   1.005  19.455  0.00  0.00    +0.000 OA
ATOM     22  N   UNL     1       5.177   3.060  19.509  0.00  0.00    +0.000 NA
BRANCH  20  23
ATOM     23  N   UNL     1       2.775   2.601  19.327  0.00  0.00    +0.000 N 
BRANCH  23  25
ATOM     24  C   UNL     1       1.927   3.877  21.317  0.00  0.00    +0.000 C 
ATOM     25  C   UNL     1       1.976   2.556  20.563  0.00  0.00    +0.000 C 
ENDBRANCH  23  25
BRANCH  23  26
ATOM     26  C   UNL     1       2.157   2.788  18.018  0.00  0.00    +0.000 C 
ATOM     27  C   UNL     1       1.479   4.106  17.690  0.00  0.00    +0.000 C 
ENDBRANCH  23  26
ENDBRANCH  20  23
ENDBRANCH  19  22
ENDBRANCH  18  19
ENDBRANCH  17  18
ENDBRANCH  15  17
ENDBRANCH   1  15
BRANCH   1  28
ATOM     28  C   UNL     1       5.247   4.245  15.762  0.00  0.00    +0.000 C 
BRANCH  28  29
ATOM     29  C   UNL     1       5.861   4.160  14.373  0.00  0.00    +0.000 A 
ATOM     30  C   UNL     1       7.064   4.819  14.085  0.00  0.00    +0.000 A 
ATOM     31  C   UNL     1       7.623   4.747  12.808  0.00  0.00    +0.000 A 
ATOM     32  C   UNL     1       6.989   4.017  11.805  0.00  0.00    +0.000 A 
ATOM     33  C   UNL     1       5.784   3.370  12.072  0.00  0.00    +0.000 A 
ATOM     34  C   UNL     1       5.224   3.441  13.349  0.00  0.00    +0.000 A 
ENDBRANCH  28  29
ENDBRANCH   1  28
TORSDOF 13
ENDMDL
MODEL 2
REMARK VINA RESULT:      -7.1      3.892      6.063
REMARK  Name = 
REMARK  17 active torsions:
REMARK  status: ('A' for Active; 'I' for Inactive)
REMARK    1  A    between atoms: C_1  and  C_2
REMARK    2  A    between atoms: C_2  and  N_3
REMARK    3  A    between atoms: N_3  and  C_4
REMARK    4  A    between atoms: N_3  and  N_6
REMARK    5  A    between atoms: C_4  and  C_5
REMARK    6  A    between atoms: N_8  and  O_9
REMARK    7  A    between atoms: O_9  and  C_10
REMARK    8  A    between atoms: C_10  and  O_11
REMARK    9  A    between atoms: O_11  and  C_12
REMARK   10  A    between atoms: C_12  and  C_14
REMARK   11  A    between atoms: C_14  and  C_15
REMARK   12  A    between atoms: C_14  and  N_22
REMARK   13  A    between atoms: C_15  and  C_16
REMARK   14  A    between atoms: C_23  and  C_25
REMARK   15  A    between atoms: C_28  and  C_29
REMARK   16  A    between atoms: C_29  and  C_30
REMARK   17  A    between atoms: C_29  and  C_31
REMARK                            x       y       z     vdW  Elec       q    Type
REMARK                         _______ _______ _______ _____ _____    ______ ____
ROOT
ATOM      1  C   UNL     1       5.856   6.383  16.227  0.00  0.00    +0.000 C 
ENDROOT
BRANCH   1   2
ATOM      2  N   UNL     1       4.649   6.961  16.822  0.00  0.00    +0.000 N 
ATOM      3  C   UNL     1       3.973   6.347  17.842  0.00  0.00    +0.000 C 
ATOM      4  O   UNL     1       4.411   5.345  18.403  0.00  0.00    +0.000 OA
ATOM      5  H   UNL     1       4.335   7.868  16.484  0.00  0.00    +0.000 HD
BRANCH   3   6
ATOM      6  C   UNL     1       2.680   7.014  18.276  0.00  0.00    +0.000 C 
ATOM      7  C   UNL     1       2.562   7.116  19.797  0.00  0.00    +0.000 C 
ATOM      8  C   UNL     1       1.288   7.841  20.206  0.00  0.00    +0.000 C 
ATOM      9  C   UNL     1       1.189   9.252  19.598  0.00  0.00    +0.000 C 
ATOM     10  C   UNL     1       1.343   9.166  18.066  0.00  0.00    +0.000 C 
ATOM     11  C   UNL     1       2.602   8.415  17.653  0.00  0.00    +0.000 C 
BRANCH   9  12
ATOM     12  C   UNL     1      -0.138   9.949  20.013  0.00  0.00    +0.000 C 
ATOM     13  C   UNL     1      -0.314  11.320  19.350  0.00  0.00    +0.000 C 
ATOM     14  C   UNL     1      -0.240  10.133  21.532  0.00  0.00    +0.000 C 
ENDBRANCH   9  12
ENDBRANCH   3   6
ENDBRANCH   1   2
BRANCH   1  15
ATOM     15  C   UNL     1       7.141   6.655  17.046  0.00  0.00    +0.000 C 
ATOM     16  O   UNL     1       7.713   5.794  17.718  0.00  0.00    +0.000 OA
BRANCH  15  17
ATOM     17  O   UNL     1       7.624   7.904  16.811  0.00  0.00    +0.000 OA
BRANCH  17  18
ATOM     18  C   UNL     1       7.710   8.774  17.946  0.00  0.00    +0.000 C 
BRANCH  18  19
ATOM     19  O   UNL     1       8.912   9.532  18.002  0.00  0.00    +0.000 OA
BRANCH  19  22
ATOM     20  N   UNL     1       9.673  11.048  19.501  0.00  0.00    +0.000 N 
ATOM     21  O   UNL     1       9.997  11.383  20.691  0.00  0.00    +0.000 OA
ATOM     22  N   UNL     1       9.223   9.855  19.325  0.00  0.00    +0.000 NA
BRANCH  20  23
ATOM     23  N   UNL     1       9.844  12.083  18.511  0.00  0.00    +0.000 N 
BRANCH  23  25
ATOM     24  C   UNL     1       7.832  12.810  17.195  0.00  0.00    +0.000 C 
ATOM     25  C   UNL     1       8.755  13.064  18.379  0.00  0.00    +0.000 C 
ENDBRANCH  23  25
BRANCH  23  26
ATOM     26  C   UNL     1      10.952  12.031  17.562  0.00  0.00    +0.000 C 
ATOM     27  C   UNL     1      11.842  13.248  17.381  0.00  0.00    +0.000 C 
ENDBRANCH  23  26
ENDBRANCH  20  23
ENDBRANCH  19  22
ENDBRANCH  18  19
ENDBRANCH  17  18
ENDBRANCH  15  17
ENDBRANCH   1  15
BRANCH   1  28
ATOM     28  C   UNL     1       5.706   4.887  15.868  0.00  0.00    +0.000 C 
BRANCH  28  29
ATOM     29  C   UNL     1       6.176   4.559  14.460  0.00  0.00    +0.000 A 
ATOM     30  C   UNL     1       7.331   5.156  13.938  0.00  0.00    +0.000 A 
ATOM     31  C   UNL     1       7.758   4.861  12.642  0.00  0.00    +0.000 A 
ATOM     32  C   UNL     1       7.037   3.967  11.853  0.00  0.00    +0.000 A 
ATOM     33  C   UNL     1       5.877   3.379  12.352  0.00  0.00    +0.000 A 
ATOM     34  C   UNL     1       5.450   3.673  13.648  0.00  0.00    +0.000 A 
ENDBRANCH  28  29
ENDBRANCH   1  28
TORSDOF 13
ENDMDL
MODEL 3
REMARK VINA RESULT:      -7.0      5.157      9.701
REMARK  Name = 
REMARK  17 active torsions:
REMARK  status: ('A' for Active; 'I' for Inactive)
REMARK    1  A    between atoms: C_1  and  C_2
REMARK    2  A    between atoms: C_2  and  N_3
REMARK    3  A    between atoms: N_3  and  C_4
REMARK    4  A    between atoms: N_3  and  N_6
REMARK    5  A    between atoms: C_4  and  C_5
REMARK    6  A    between atoms: N_8  and  O_9
REMARK    7  A    between atoms: O_9  and  C_10
REMARK    8  A    between atoms: C_10  and  O_11
REMARK    9  A    between atoms: O_11  and  C_12
REMARK   10  A    between atoms: C_12  and  C_14
REMARK   11  A    between atoms: C_14  and  C_15
REMARK   12  A    between atoms: C_14  and  N_22
REMARK   13  A    between atoms: C_15  and  C_16
REMARK   14  A    between atoms: C_23  and  C_25
REMARK   15  A    between atoms: C_28  and  C_29
REMARK   16  A    between atoms: C_29  and  C_30
REMARK   17  A    between atoms: C_29  and  C_31
REMARK                            x       y       z     vdW  Elec       q    Type
REMARK                         _______ _______ _______ _____ _____    ______ ____
ROOT
ATOM      1  C   UNL     1       0.753   9.035  20.207  0.00  0.00    +0.000 C 
ENDROOT
BRANCH   1   2
ATOM      2  N   UNL     1       1.807   8.236  19.578  0.00  0.00    +0.000 N 
ATOM      3  C   UNL     1       2.040   6.933  19.929  0.00  0.00    +0.000 C 
ATOM      4  O   UNL     1       1.300   6.322  20.696  0.00  0.00    +0.000 OA
ATOM      5  H   UNL     1       2.350   8.661  18.831  0.00  0.00    +0.000 HD
BRANCH   3   6
ATOM      6  C   UNL     1       3.238   6.273  19.267  0.00  0.00    +0.000 C 
ATOM      7  C   UNL     1       3.008   4.786  19.004  0.00  0.00    +0.000 C 
ATOM      8  C   UNL     1       4.195   4.160  18.286  0.00  0.00    +0.000 C 
ATOM      9  C   UNL     1       4.519   4.862  16.955  0.00  0.00    +0.000 C 
ATOM     10  C   UNL     1       4.717   6.371  17.202  0.00  0.00    +0.000 C 
ATOM     11  C   UNL     1       3.543   6.994  17.946  0.00  0.00    +0.000 C 
BRANCH   9  12
ATOM     12  C   UNL     1       5.755   4.216  16.267  0.00  0.00    +0.000 C 
ATOM     13  C   UNL     1       7.080   4.805  16.764  0.00  0.00    +0.000 C 
ATOM     14  C   UNL     1       5.706   4.364  14.741  0.00  0.00    +0.000 C 
ENDBRANCH   9  12
ENDBRANCH   3   6
ENDBRANCH   1   2
BRANCH   1  15
ATOM     15  C   UNL     1       0.868   9.105  21.749  0.00  0.00    +0.000 C 
ATOM     16  O   UNL     1       1.909   9.400  22.340  0.00  0.00    +0.000 OA
BRANCH  15  17
ATOM     17  O   UNL     1      -0.343   8.944  22.345  0.00  0.00    +0.000 OA
BRANCH  17  18
ATOM     18  C   UNL     1      -0.730   9.960  23.278  0.00  0.00    +0.000 C 
BRANCH  18  19
ATOM     19  O   UNL     1      -1.346  11.092  22.675  0.00  0.00    +0.000 OA
BRANCH  19  22
ATOM     20  N   UNL     1      -1.361  13.261  23.326  0.00  0.00    +0.000 N 
ATOM     21  O   UNL     1      -0.759  14.355  23.593  0.00  0.00    +0.000 OA
ATOM     22  N   UNL     1      -0.635  12.255  22.984  0.00  0.00    +0.000 NA
BRANCH  20  23
ATOM     23  N   UNL     1      -2.796  13.307  23.467  0.00  0.00    +0.000 N 
BRANCH  23  25
ATOM     24  C   UNL     1      -4.111  12.882  21.370  0.00  0.00    +0.000 C 
ATOM     25  C   UNL     1      -3.555  13.901  22.355  0.00  0.00    +0.000 C 
ENDBRANCH  23  25
BRANCH  23  26
ATOM     26  C   UNL     1      -3.431  12.961  24.735  0.00  0.00    +0.000 C 
ATOM     27  C   UNL     1      -4.856  12.435  24.740  0.00  0.00    +0.000 C 
ENDBRANCH  23  26
ENDBRANCH  20  23
ENDBRANCH  19  22
ENDBRANCH  18  19
ENDBRANCH  17  18
ENDBRANCH  15  17
ENDBRANCH   1  15
BRANCH   1  28
ATOM     28  C   UNL     1       0.587  10.437  19.577  0.00  0.00    +0.000 C 
BRANCH  28  29
ATOM     29  C   UNL     1      -0.672  10.569  18.736  0.00  0.00    +0.000 A 
ATOM     30  C   UNL     1      -1.682  11.468  19.103  0.00  0.00    +0.000 A 
ATOM     31  C   UNL     1      -2.842  11.584  18.335  0.00  0.00    +0.000 A 
ATOM     32  C   UNL     1      -3.007  10.804  17.192  0.00  0.00    +0.000 A 
ATOM     33  C   UNL     1      -2.019   9.893  16.824  0.00  0.00    +0.000 A 
ATOM     34  C   UNL     1      -0.859   9.777  17.592  0.00  0.00    +0.000 A 
ENDBRANCH  28  29
ENDBRANCH   1  28
TORSDOF 13
ENDMDL
MODEL 4
REMARK VINA RESULT:      -6.9      3.690      6.489
REMARK  Name = 
REMARK  17 active torsions:
REMARK  status: ('A' for Active; 'I' for Inactive)
REMARK    1  A    between atoms: C_1  and  C_2
REMARK    2  A    between atoms: C_2  and  N_3
REMARK    3  A    between atoms: N_3  and  C_4
REMARK    4  A    between atoms: N_3  and  N_6
REMARK    5  A    between atoms: C_4  and  C_5
REMARK    6  A    between atoms: N_8  and  O_9
REMARK    7  A    between atoms: O_9  and  C_10
REMARK    8  A    between atoms: C_10  and  O_11
REMARK    9  A    between atoms: O_11  and  C_12
REMARK   10  A    between atoms: C_12  and  C_14
REMARK   11  A    between atoms: C_14  and  C_15
REMARK   12  A    between atoms: C_14  and  N_22
REMARK   13  A    between atoms: C_15  and  C_16
REMARK   14  A    between atoms: C_23  and  C_25
REMARK   15  A    between atoms: C_28  and  C_29
REMARK   16  A    between atoms: C_29  and  C_30
REMARK   17  A    between atoms: C_29  and  C_31
REMARK                            x       y       z     vdW  Elec       q    Type
REMARK                         _______ _______ _______ _____ _____    ______ ____
ROOT
ATOM      1  C   UNL     1       5.883   5.767  17.989  0.00  0.00    +0.000 C 
ENDROOT
BRANCH   1   2
ATOM      2  N   UNL     1       4.592   6.235  18.500  0.00  0.00    +0.000 N 
ATOM      3  C   UNL     1       3.718   6.950  17.725  0.00  0.00    +0.000 C 
ATOM      4  O   UNL     1       3.907   7.127  16.524  0.00  0.00    +0.000 OA
ATOM      5  H   UNL     1       4.332   5.982  19.450  0.00  0.00    +0.000 HD
BRANCH   3   6
ATOM      6  C   UNL     1       2.473   7.460  18.430  0.00  0.00    +0.000 C 
ATOM      7  C   UNL     1       2.539   7.255  19.943  0.00  0.00    +0.000 C 
ATOM      8  C   UNL     1       1.309   7.827  20.633  0.00  0.00    +0.000 C 
ATOM      9  C   UNL     1       1.106   9.324  20.335  0.00  0.00    +0.000 C 
ATOM     10  C   UNL     1       1.074   9.548  18.810  0.00  0.00    +0.000 C 
ATOM     11  C   UNL     1       2.290   8.951  18.113  0.00  0.00    +0.000 C 
BRANCH   9  12
ATOM     12  C   UNL     1      -0.176   9.865  21.032  0.00  0.00    +0.000 C 
ATOM     13  C   UNL     1      -0.111  11.374  21.292  0.00  0.00    +0.000 C 
ATOM     14  C   UNL     1      -0.447   9.158  22.366  0.00  0.00    +0.000 C 
ENDBRANCH   9  12
ENDBRANCH   3   6
ENDBRANCH   1   2
BRANCH   1  15
ATOM     15  C   UNL     1       7.053   5.980  18.979  0.00  0.00    +0.000 C 
ATOM     16  O   UNL     1       7.095   5.470  20.101  0.00  0.00    +0.000 OA
BRANCH  15  17
ATOM     17  O   UNL     1       8.073   6.669  18.402  0.00  0.00    +0.000 OA
BRANCH  17  18
ATOM     18  C   UNL     1       7.720   7.895  17.750  0.00  0.00    +0.000 C 
BRANCH  18  19
ATOM     19  O   UNL     1       8.387   9.038  18.272  0.00  0.00    +0.000 OA
BRANCH  19  22
ATOM     20  N   UNL     1       8.573  11.273  17.960  0.00  0.00    +0.000 N 
ATOM     21  O   UNL     1       8.219  12.358  17.384  0.00  0.00    +0.000 OA
ATOM     22  N   UNL     1       7.984  10.190  17.591  0.00  0.00    +0.000 NA
BRANCH  20  23
ATOM     23  N   UNL     1       9.615  11.420  18.946  0.00  0.00    +0.000 N 
BRANCH  23  25
ATOM     24  C   UNL     1      12.107  11.468  19.259  0.00  0.00    +0.000 C 
ATOM     25  C   UNL     1      10.899  11.970  18.480  0.00  0.00    +0.000 C 
ENDBRANCH  23  25
BRANCH  23  26
ATOM     26  C   UNL     1       9.457  10.864  20.286  0.00  0.00    +0.000 C 
ATOM     27  C   UNL     1       9.128  11.787  21.446  0.00  0.00    +0.000 C 
ENDBRANCH  23  26
ENDBRANCH  20  23
ENDBRANCH  19  22
ENDBRANCH  18  19
ENDBRANCH  17  18
ENDBRANCH  15  17
ENDBRANCH   1  15
BRANCH   1  28
ATOM     28  C   UNL     1       5.840   4.320  17.448  0.00  0.00    +0.000 C 
BRANCH  28  29
ATOM     29  C   UNL     1       4.623   3.540  17.921  0.00  0.00    +0.000 A 
ATOM     30  C   UNL     1       3.542   3.316  17.058  0.00  0.00    +0.000 A 
ATOM     31  C   UNL     1       2.422   2.607  17.495  0.00  0.00    +0.000 A 
ATOM     32  C   UNL     1       2.368   2.113  18.797  0.00  0.00    +0.000 A 
ATOM     33  C   UNL     1       3.428   2.344  19.671  0.00  0.00    +0.000 A 
ATOM     34  C   UNL     1       4.549   3.052  19.235  0.00  0.00    +0.000 A 
ENDBRANCH  28  29
ENDBRANCH   1  28
TORSDOF 13
ENDMDL
MODEL 5
REMARK VINA RESULT:      -6.8      3.230      8.095
REMARK  Name = 
REMARK  17 active torsions:
REMARK  status: ('A' for Active; 'I' for Inactive)
REMARK    1  A    between atoms: C_1  and  C_2
REMARK    2  A    between atoms: C_2  and  N_3
REMARK    3  A    between atoms: N_3  and  C_4
REMARK    4  A    between atoms: N_3  and  N_6
REMARK    5  A    between atoms: C_4  and  C_5
REMARK    6  A    between atoms: N_8  and  O_9
REMARK    7  A    between atoms: O_9  and  C_10
REMARK    8  A    between atoms: C_10  and  O_11
REMARK    9  A    between atoms: O_11  and  C_12
REMARK   10  A    between atoms: C_12  and  C_14
REMARK   11  A    between atoms: C_14  and  C_15
REMARK   12  A    between atoms: C_14  and  N_22
REMARK   13  A    between atoms: C_15  and  C_16
REMARK   14  A    between atoms: C_23  and  C_25
REMARK   15  A    between atoms: C_28  and  C_29
REMARK   16  A    between atoms: C_29  and  C_30
REMARK   17  A    between atoms: C_29  and  C_31
REMARK                            x       y       z     vdW  Elec       q    Type
REMARK                         _______ _______ _______ _____ _____    ______ ____
ROOT
ATOM      1  C   UNL     1       3.013   6.351  19.635  0.00  0.00    +0.000 C 
ENDROOT
BRANCH   1   2
ATOM      2  N   UNL     1       3.601   6.066  18.324  0.00  0.00    +0.000 N 
ATOM      3  C   UNL     1       4.941   5.841  18.160  0.00  0.00    +0.000 C 
ATOM      4  O   UNL     1       5.706   5.736  19.115  0.00  0.00    +0.000 OA
ATOM      5  H   UNL     1       2.977   5.999  17.524  0.00  0.00    +0.000 HD
BRANCH   3   6
ATOM      6  C   UNL     1       5.413   5.671  16.726  0.00  0.00    +0.000 C 
ATOM      7  C   UNL     1       6.886   5.272  16.645  0.00  0.00    +0.000 C 
ATOM      8  C   UNL     1       7.321   5.048  15.203  0.00  0.00    +0.000 C 
ATOM      9  C   UNL     1       6.470   3.983  14.488  0.00  0.00    +0.000 C 
ATOM     10  C   UNL     1       4.978   4.355  14.595  0.00  0.00    +0.000 C 
ATOM     11  C   UNL     1       4.547   4.609  16.034  0.00  0.00    +0.000 C 
BRANCH   9  12
ATOM     12  C   UNL     1       6.923   3.804  13.010  0.00  0.00    +0.000 C 
ATOM     13  C   UNL     1       7.553   5.075  12.431  0.00  0.00    +0.000 C 
ATOM     14  C   UNL     1       5.761   3.385  12.100  0.00  0.00    +0.000 C 
ENDBRANCH   9  12
ENDBRANCH   3   6
ENDBRANCH   1   2
BRANCH   1  15
ATOM     15  C   UNL     1       2.074   7.582  19.637  0.00  0.00    +0.000 C 
ATOM     16  O   UNL     1       1.755   8.190  20.661  0.00  0.00    +0.000 OA
BRANCH  15  17
ATOM     17  O   UNL     1       1.773   7.980  18.373  0.00  0.00    +0.000 OA
BRANCH  17  18
ATOM     18  C   UNL     1       1.969   9.368  18.082  0.00  0.00    +0.000 C 
BRANCH  18  19
ATOM     19  O   UNL     1       0.865  10.193  18.434  0.00  0.00    +0.000 OA
BRANCH  19  22
ATOM     20  N   UNL     1       0.336  12.365  18.792  0.00  0.00    +0.000 N 
ATOM     21  O   UNL     1       0.668  13.589  18.949  0.00  0.00    +0.000 OA
ATOM     22  N   UNL     1       1.285  11.511  18.631  0.00  0.00    +0.000 NA
BRANCH  20  23
ATOM     23  N   UNL     1      -1.084  12.111  18.836  0.00  0.00    +0.000 N 
BRANCH  23  25
ATOM     24  C   UNL     1      -3.065  12.601  20.300  0.00  0.00    +0.000 C 
ATOM     25  C   UNL     1      -1.691  11.959  20.169  0.00  0.00    +0.000 C 
ENDBRANCH  23  25
BRANCH  23  26
ATOM     26  C   UNL     1      -1.828  11.825  17.614  0.00  0.00    +0.000 C 
ATOM     27  C   UNL     1      -2.311  10.410  17.345  0.00  0.00    +0.000 C 
ENDBRANCH  23  26
ENDBRANCH  20  23
ENDBRANCH  19  22
ENDBRANCH  18  19
ENDBRANCH  17  18
ENDBRANCH  15  17
ENDBRANCH   1  15
BRANCH   1  28
ATOM     28  C   UNL     1       2.352   5.119  20.292  0.00  0.00    +0.000 C 
BRANCH  28  29
ATOM     29  C   UNL     1       2.717   3.810  19.610  0.00  0.00    +0.000 A 
ATOM     30  C   UNL     1       3.786   3.036  20.079  0.00  0.00    +0.000 A 
ATOM     31  C   UNL     1       4.126   1.838  19.447  0.00  0.00    +0.000 A 
ATOM     32  C   UNL     1       3.401   1.399  18.341  0.00  0.00    +0.000 A 
ATOM     33  C   UNL     1       2.345   2.166  17.854  0.00  0.00    +0.000 A 
ATOM     34  C   UNL     1       2.005   3.364  18.485  0.00  0.00    +0.000 A 
ENDBRANCH  28  29
ENDBRANCH   1  28
TORSDOF 13
ENDMDL
MODEL 6
REMARK VINA RESULT:      -6.8      3.633      8.518
REMARK  Name = 
REMARK  17 active torsions:
REMARK  status: ('A' for Active; 'I' for Inactive)
REMARK    1  A    between atoms: C_1  and  C_2
REMARK    2  A    between atoms: C_2  and  N_3
REMARK    3  A    between atoms: N_3  and  C_4
REMARK    4  A    between atoms: N_3  and  N_6
REMARK    5  A    between atoms: C_4  and  C_5
REMARK    6  A    between atoms: N_8  and  O_9
REMARK    7  A    between atoms: O_9  and  C_10
REMARK    8  A    between atoms: C_10  and  O_11
REMARK    9  A    between atoms: O_11  and  C_12
REMARK   10  A    between atoms: C_12  and  C_14
REMARK   11  A    between atoms: C_14  and  C_15
REMARK   12  A    between atoms: C_14  and  N_22
REMARK   13  A    between atoms: C_15  and  C_16
REMARK   14  A    between atoms: C_23  and  C_25
REMARK   15  A    between atoms: C_28  and  C_29
REMARK   16  A    between atoms: C_29  and  C_30
REMARK   17  A    between atoms: C_29  and  C_31
REMARK                            x       y       z     vdW  Elec       q    Type
REMARK                         _______ _______ _______ _____ _____    ______ ____
ROOT
ATOM      1  C   UNL     1       2.930   6.671  19.556  0.00  0.00    +0.000 C 
ENDROOT
BRANCH   1   2
ATOM      2  N   UNL     1       3.616   5.922  18.502  0.00  0.00    +0.000 N 
ATOM      3  C   UNL     1       4.903   5.475  18.645  0.00  0.00    +0.000 C 
ATOM      4  O   UNL     1       5.508   5.563  19.710  0.00  0.00    +0.000 OA
ATOM      5  H   UNL     1       3.097   5.699  17.656  0.00  0.00    +0.000 HD
BRANCH   3   6
ATOM      6  C   UNL     1       5.513   4.811  17.422  0.00  0.00    +0.000 C 
ATOM      7  C   UNL     1       4.480   4.557  16.325  0.00  0.00    +0.000 C 
ATOM      8  C   UNL     1       5.125   3.948  15.088  0.00  0.00    +0.000 C 
ATOM      9  C   UNL     1       6.258   4.822  14.521  0.00  0.00    +0.000 C 
ATOM     10  C   UNL     1       7.289   5.116  15.629  0.00  0.00    +0.000 C 
ATOM     11  C   UNL     1       6.642   5.698  16.879  0.00  0.00    +0.000 C 
BRANCH   9  12
ATOM     12  C   UNL     1       6.913   4.154  13.278  0.00  0.00    +0.000 C 
ATOM     13  C   UNL     1       7.639   5.163  12.382  0.00  0.00    +0.000 C 
ATOM     14  C   UNL     1       5.885   3.403  12.421  0.00  0.00    +0.000 C 
ENDBRANCH   9  12
ENDBRANCH   3   6
ENDBRANCH   1   2
BRANCH   1  15
ATOM     15  C   UNL     1       2.229   7.954  19.047  0.00  0.00    +0.000 C 
ATOM     16  O   UNL     1       2.279   8.335  17.875  0.00  0.00    +0.000 OA
BRANCH  15  17
ATOM     17  O   UNL     1       1.448   8.509  20.011  0.00  0.00    +0.000 OA
BRANCH  17  18
ATOM     18  C   UNL     1       0.925   9.813  19.729  0.00  0.00    +0.000 C 
BRANCH  18  19
ATOM     19  O   UNL     1       0.050  10.312  20.734  0.00  0.00    +0.000 OA
BRANCH  19  22
ATOM     20  N   UNL     1       0.133  12.488  21.356  0.00  0.00    +0.000 N 
ATOM     21  O   UNL     1       0.685  13.453  21.984  0.00  0.00    +0.000 OA
ATOM     22  N   UNL     1       0.676  11.326  21.464  0.00  0.00    +0.000 NA
BRANCH  20  23
ATOM     23  N   UNL     1      -1.053  12.843  20.616  0.00  0.00    +0.000 N 
BRANCH  23  25
ATOM     24  C   UNL     1      -0.816  12.746  18.118  0.00  0.00    +0.000 C 
ATOM     25  C   UNL     1      -0.858  13.606  19.373  0.00  0.00    +0.000 C 
ENDBRANCH  23  25
BRANCH  23  26
ATOM     26  C   UNL     1      -2.379  12.624  21.185  0.00  0.00    +0.000 C 
ATOM     27  C   UNL     1      -2.526  12.398  22.680  0.00  0.00    +0.000 C 
ENDBRANCH  23  26
ENDBRANCH  20  23
ENDBRANCH  19  22
ENDBRANCH  18  19
ENDBRANCH  17  18
ENDBRANCH  15  17
ENDBRANCH   1  15
BRANCH   1  28
ATOM     28  C   UNL     1       1.986   5.799  20.414  0.00  0.00    +0.000 C 
BRANCH  28  29
ATOM     29  C   UNL     1       1.948   4.345  19.971  0.00  0.00    +0.000 A 
ATOM     30  C   UNL     1       2.655   3.366  20.681  0.00  0.00    +0.000 A 
ATOM     31  C   UNL     1       2.626   2.032  20.270  0.00  0.00    +0.000 A 
ATOM     32  C   UNL     1       1.892   1.660  19.146  0.00  0.00    +0.000 A 
ATOM     33  C   UNL     1       1.197   2.626  18.420  0.00  0.00    +0.000 A 
ATOM     34  C   UNL     1       1.225   3.960  18.831  0.00  0.00    +0.000 A 
ENDBRANCH  28  29
ENDBRANCH   1  28
TORSDOF 13
ENDMDL
MODEL 7
REMARK VINA RESULT:      -6.8      3.823      6.711
REMARK  Name = 
REMARK  17 active torsions:
REMARK  status: ('A' for Active; 'I' for Inactive)
REMARK    1  A    between atoms: C_1  and  C_2
REMARK    2  A    between atoms: C_2  and  N_3
REMARK    3  A    between atoms: N_3  and  C_4
REMARK    4  A    between atoms: N_3  and  N_6
REMARK    5  A    between atoms: C_4  and  C_5
REMARK    6  A    between atoms: N_8  and  O_9
REMARK    7  A    between atoms: O_9  and  C_10
REMARK    8  A    between atoms: C_10  and  O_11
REMARK    9  A    between atoms: O_11  and  C_12
REMARK   10  A    between atoms: C_12  and  C_14
REMARK   11  A    between atoms: C_14  and  C_15
REMARK   12  A    between atoms: C_14  and  N_22
REMARK   13  A    between atoms: C_15  and  C_16
REMARK   14  A    between atoms: C_23  and  C_25
REMARK   15  A    between atoms: C_28  and  C_29
REMARK   16  A    between atoms: C_29  and  C_30
REMARK   17  A    between atoms: C_29  and  C_31
REMARK                            x       y       z     vdW  Elec       q    Type
REMARK                         _______ _______ _______ _____ _____    ______ ____
ROOT
ATOM      1  C   UNL     1       5.160   5.767  17.717  0.00  0.00    +0.000 C 
ENDROOT
BRANCH   1   2
ATOM      2  N   UNL     1       4.431   6.881  18.326  0.00  0.00    +0.000 N 
ATOM      3  C   UNL     1       3.077   7.029  18.187  0.00  0.00    +0.000 C 
ATOM      4  O   UNL     1       2.379   6.169  17.654  0.00  0.00    +0.000 OA
ATOM      5  H   UNL     1       4.952   7.539  18.901  0.00  0.00    +0.000 HD
BRANCH   3   6
ATOM      6  C   UNL     1       2.484   8.294  18.782  0.00  0.00    +0.000 C 
ATOM      7  C   UNL     1       1.539   9.004  17.813  0.00  0.00    +0.000 C 
ATOM      8  C   UNL     1       0.911  10.234  18.452  0.00  0.00    +0.000 C 
ATOM      9  C   UNL     1       0.148   9.903  19.748  0.00  0.00    +0.000 C 
ATOM     10  C   UNL     1       1.081   9.155  20.720  0.00  0.00    +0.000 C 
ATOM     11  C   UNL     1       1.734   7.940  20.074  0.00  0.00    +0.000 C 
BRANCH   9  12
ATOM     12  C   UNL     1      -0.453  11.187  20.387  0.00  0.00    +0.000 C 
ATOM     13  C   UNL     1      -0.737  11.021  21.884  0.00  0.00    +0.000 C 
ATOM     14  C   UNL     1      -1.753  11.620  19.697  0.00  0.00    +0.000 C 
ENDBRANCH   9  12
ENDBRANCH   3   6
ENDBRANCH   1   2
BRANCH   1  15
ATOM     15  C   UNL     1       6.473   6.195  17.018  0.00  0.00    +0.000 C 
ATOM     16  O   UNL     1       7.162   5.431  16.340  0.00  0.00    +0.000 OA
BRANCH  15  17
ATOM     17  O   UNL     1       6.681   7.534  17.130  0.00  0.00    +0.000 OA
BRANCH  17  18
ATOM     18  C   UNL     1       8.004   7.941  17.501  0.00  0.00    +0.000 C 
BRANCH  18  19
ATOM     19  O   UNL     1       8.113   9.322  17.822  0.00  0.00    +0.000 OA
BRANCH  19  22
ATOM     20  N   UNL     1       9.210  10.572  19.359  0.00  0.00    +0.000 N 
ATOM     21  O   UNL     1       9.666  10.752  20.539  0.00  0.00    +0.000 OA
ATOM     22  N   UNL     1       8.564   9.482  19.135  0.00  0.00    +0.000 NA
BRANCH  20  23
ATOM     23  N   UNL     1       9.474  11.648  18.434  0.00  0.00    +0.000 N 
BRANCH  23  25
ATOM     24  C   UNL     1      11.982  11.783  18.496  0.00  0.00    +0.000 C 
ATOM     25  C   UNL     1      10.726  11.569  17.663  0.00  0.00    +0.000 C 
ENDBRANCH  23  25
BRANCH  23  26
ATOM     26  C   UNL     1       8.636  12.842  18.421  0.00  0.00    +0.000 C 
ATOM     27  C   UNL     1       9.246  14.182  18.048  0.00  0.00    +0.000 C 
ENDBRANCH  23  26
ENDBRANCH  20  23
ENDBRANCH  19  22
ENDBRANCH  18  19
ENDBRANCH  17  18
ENDBRANCH  15  17
ENDBRANCH   1  15
BRANCH   1  28
ATOM     28  C   UNL     1       5.379   4.578  18.680  0.00  0.00    +0.000 C 
BRANCH  28  29
ATOM     29  C   UNL     1       4.168   3.666  18.790  0.00  0.00    +0.000 A 
ATOM     30  C   UNL     1       3.780   2.864  17.709  0.00  0.00    +0.000 A 
ATOM     31  C   UNL     1       2.663   2.032  17.807  0.00  0.00    +0.000 A 
ATOM     32  C   UNL     1       1.920   1.992  18.986  0.00  0.00    +0.000 A 
ATOM     33  C   UNL     1       2.284   2.797  20.063  0.00  0.00    +0.000 A 
ATOM     34  C   UNL     1       3.401   3.629  19.966  0.00  0.00    +0.000 A 
ENDBRANCH  28  29
ENDBRANCH   1  28
TORSDOF 13
ENDMDL
MODEL 8
REMARK VINA RESULT:      -6.8      4.297      6.908
REMARK  Name = 
REMARK  17 active torsions:
REMARK  status: ('A' for Active; 'I' for Inactive)
REMARK    1  A    between atoms: C_1  and  C_2
REMARK    2  A    between atoms: C_2  and  N_3
REMARK    3  A    between atoms: N_3  and  C_4
REMARK    4  A    between atoms: N_3  and  N_6
REMARK    5  A    between atoms: C_4  and  C_5
REMARK    6  A    between atoms: N_8  and  O_9
REMARK    7  A    between atoms: O_9  and  C_10
REMARK    8  A    between atoms: C_10  and  O_11
REMARK    9  A    between atoms: O_11  and  C_12
REMARK   10  A    between atoms: C_12  and  C_14
REMARK   11  A    between atoms: C_14  and  C_15
REMARK   12  A    between atoms: C_14  and  N_22
REMARK   13  A    between atoms: C_15  and  C_16
REMARK   14  A    between atoms: C_23  and  C_25
REMARK   15  A    between atoms: C_28  and  C_29
REMARK   16  A    between atoms: C_29  and  C_30
REMARK   17  A    between atoms: C_29  and  C_31
REMARK                            x       y       z     vdW  Elec       q    Type
REMARK                         _______ _______ _______ _____ _____    ______ ____
ROOT
ATOM      1  C   UNL     1       6.949   6.271  16.614  0.00  0.00    +0.000 C 
ENDROOT
BRANCH   1   2
ATOM      2  N   UNL     1       5.695   5.736  17.150  0.00  0.00    +0.000 N 
ATOM      3  C   UNL     1       4.512   6.419  17.053  0.00  0.00    +0.000 C 
ATOM      4  O   UNL     1       4.408   7.454  16.400  0.00  0.00    +0.000 OA
ATOM      5  H   UNL     1       5.710   4.811  17.571  0.00  0.00    +0.000 HD
BRANCH   3   6
ATOM      6  C   UNL     1       3.323   5.785  17.754  0.00  0.00    +0.000 C 
ATOM      7  C   UNL     1       3.207   4.289  17.461  0.00  0.00    +0.000 C 
ATOM      8  C   UNL     1       2.047   3.664  18.222  0.00  0.00    +0.000 C 
ATOM      9  C   UNL     1       2.155   3.872  19.743  0.00  0.00    +0.000 C 
ATOM     10  C   UNL     1       2.309   5.376  20.049  0.00  0.00    +0.000 C 
ATOM     11  C   UNL     1       3.452   6.011  19.267  0.00  0.00    +0.000 C 
BRANCH   9  12
ATOM     12  C   UNL     1       0.938   3.248  20.483  0.00  0.00    +0.000 C 
ATOM     13  C   UNL     1       1.331   2.588  21.809  0.00  0.00    +0.000 C 
ATOM     14  C   UNL     1       0.216   2.202  19.622  0.00  0.00    +0.000 C 
ENDBRANCH   9  12
ENDBRANCH   3   6
ENDBRANCH   1   2
BRANCH   1  15
ATOM     15  C   UNL     1       7.759   7.096  17.643  0.00  0.00    +0.000 C 
ATOM     16  O   UNL     1       8.115   6.655  18.738  0.00  0.00    +0.000 OA
BRANCH  15  17
ATOM     17  O   UNL     1       8.141   8.295  17.128  0.00  0.00    +0.000 OA
BRANCH  17  18
ATOM     18  C   UNL     1       8.016   9.427  17.997  0.00  0.00    +0.000 C 
BRANCH  18  19
ATOM     19  O   UNL     1       9.202  10.205  18.105  0.00  0.00    +0.000 OA
BRANCH  19  22
ATOM     20  N   UNL     1      10.064  11.582  19.682  0.00  0.00    +0.000 N 
ATOM     21  O   UNL     1      10.384  11.840  20.892  0.00  0.00    +0.000 OA
ATOM     22  N   UNL     1       9.504  10.448  19.448  0.00  0.00    +0.000 NA
BRANCH  20  23
ATOM     23  N   UNL     1      10.367  12.630  18.737  0.00  0.00    +0.000 N 
BRANCH  23  25
ATOM     24  C   UNL     1       8.173  13.422  17.806  0.00  0.00    +0.000 C 
ATOM     25  C   UNL     1       9.404  13.739  18.643  0.00  0.00    +0.000 C 
ENDBRANCH  23  25
BRANCH  23  26
ATOM     26  C   UNL     1      11.469  12.484  17.791  0.00  0.00    +0.000 C 
ATOM     27  C   UNL     1      11.582  13.444  16.620  0.00  0.00    +0.000 C 
ENDBRANCH  23  26
ENDBRANCH  20  23
ENDBRANCH  19  22
ENDBRANCH  18  19
ENDBRANCH  17  18
ENDBRANCH  15  17
ENDBRANCH   1  15
BRANCH   1  28
ATOM     28  C   UNL     1       7.821   5.205  15.913  0.00  0.00    +0.000 C 
BRANCH  28  29
ATOM     29  C   UNL     1       7.254   4.752  14.578  0.00  0.00    +0.000 A 
ATOM     30  C   UNL     1       7.824   5.192  13.376  0.00  0.00    +0.000 A 
ATOM     31  C   UNL     1       7.299   4.782  12.149  0.00  0.00    +0.000 A 
ATOM     32  C   UNL     1       6.199   3.928  12.108  0.00  0.00    +0.000 A 
ATOM     33  C   UNL     1       5.610   3.495  13.295  0.00  0.00    +0.000 A 
ATOM     34  C   UNL     1       6.136   3.905  14.522  0.00  0.00    +0.000 A 
ENDBRANCH  28  29
ENDBRANCH   1  28
TORSDOF 13
ENDMDL
MODEL 9
REMARK VINA RESULT:      -6.7      2.499      6.019
REMARK  Name = 
REMARK  17 active torsions:
REMARK  status: ('A' for Active; 'I' for Inactive)
REMARK    1  A    between atoms: C_1  and  C_2
REMARK    2  A    between atoms: C_2  and  N_3
REMARK    3  A    between atoms: N_3  and  C_4
REMARK    4  A    between atoms: N_3  and  N_6
REMARK    5  A    between atoms: C_4  and  C_5
REMARK    6  A    between atoms: N_8  and  O_9
REMARK    7  A    between atoms: O_9  and  C_10
REMARK    8  A    between atoms: C_10  and  O_11
REMARK    9  A    between atoms: O_11  and  C_12
REMARK   10  A    between atoms: C_12  and  C_14
REMARK   11  A    between atoms: C_14  and  C_15
REMARK   12  A    between atoms: C_14  and  N_22
REMARK   13  A    between atoms: C_15  and  C_16
REMARK   14  A    between atoms: C_23  and  C_25
REMARK   15  A    between atoms: C_28  and  C_29
REMARK   16  A    between atoms: C_29  and  C_30
REMARK   17  A    between atoms: C_29  and  C_31
REMARK                            x       y       z     vdW  Elec       q    Type
REMARK                         _______ _______ _______ _____ _____    ______ ____
ROOT
ATOM      1  C   UNL     1       4.196   4.012  17.167  0.00  0.00    +0.000 C 
ENDROOT
BRANCH   1   2
ATOM      2  N   UNL     1       3.217   5.051  17.493  0.00  0.00    +0.000 N 
ATOM      3  C   UNL     1       3.382   5.900  18.555  0.00  0.00    +0.000 C 
ATOM      4  O   UNL     1       4.419   5.926  19.215  0.00  0.00    +0.000 OA
ATOM      5  H   UNL     1       2.412   5.161  16.882  0.00  0.00    +0.000 HD
BRANCH   3   6
ATOM      6  C   UNL     1       2.228   6.849  18.831  0.00  0.00    +0.000 C 
ATOM      7  C   UNL     1       2.070   7.151  20.320  0.00  0.00    +0.000 C 
ATOM      8  C   UNL     1       0.948   8.150  20.566  0.00  0.00    +0.000 C 
ATOM      9  C   UNL     1       1.152   9.471  19.802  0.00  0.00    +0.000 C 
ATOM     10  C   UNL     1       1.350   9.175  18.302  0.00  0.00    +0.000 C 
ATOM     11  C   UNL     1       2.453   8.154  18.055  0.00  0.00    +0.000 C 
BRANCH   9  12
ATOM     12  C   UNL     1      -0.028  10.452  20.053  0.00  0.00    +0.000 C 
ATOM     13  C   UNL     1      -1.075  10.410  18.935  0.00  0.00    +0.000 C 
ATOM     14  C   UNL     1       0.452  11.901  20.208  0.00  0.00    +0.000 C 
ENDBRANCH   9  12
ENDBRANCH   3   6
ENDBRANCH   1   2
BRANCH   1  15
ATOM     15  C   UNL     1       5.664   4.458  17.377  0.00  0.00    +0.000 C 
ATOM     16  O   UNL     1       6.430   3.918  18.178  0.00  0.00    +0.000 OA
BRANCH  15  17
ATOM     17  O   UNL     1       6.029   5.407  16.474  0.00  0.00    +0.000 OA
BRANCH  17  18
ATOM     18  C   UNL     1       5.752   5.114  15.100  0.00  0.00    +0.000 C 
BRANCH  18  19
ATOM     19  O   UNL     1       6.773   4.365  14.453  0.00  0.00    +0.000 OA
BRANCH  19  22
ATOM     20  N   UNL     1       7.108   4.538  12.220  0.00  0.00    +0.000 N 
ATOM     21  O   UNL     1       7.587   5.143  11.202  0.00  0.00    +0.000 OA
ATOM     22  N   UNL     1       7.292   5.082  13.371  0.00  0.00    +0.000 NA
BRANCH  20  23
ATOM     23  N   UNL     1       6.398   3.317  11.923  0.00  0.00    +0.000 N 
BRANCH  23  25
ATOM     24  C   UNL     1       4.049   3.511  11.055  0.00  0.00    +0.000 C 
ATOM     25  C   UNL     1       4.963   3.285  12.251  0.00  0.00    +0.000 C 
ENDBRANCH  23  25
BRANCH  23  26
ATOM     26  C   UNL     1       7.119   2.119  11.505  0.00  0.00    +0.000 C 
ATOM     27  C   UNL     1       6.340   0.882  11.093  0.00  0.00    +0.000 C 
ENDBRANCH  23  26
ENDBRANCH  20  23
ENDBRANCH  19  22
ENDBRANCH  18  19
ENDBRANCH  17  18
ENDBRANCH  15  17
ENDBRANCH   1  15
BRANCH   1  28
ATOM     28  C   UNL     1       3.902   2.656  17.848  0.00  0.00    +0.000 C 
BRANCH  28  29
ATOM     29  C   UNL     1       2.934   2.770  19.015  0.00  0.00    +0.000 A 
ATOM     30  C   UNL     1       1.554   2.856  18.790  0.00  0.00    +0.000 A 
ATOM     31  C   UNL     1       0.667   2.969  19.861  0.00  0.00    +0.000 A 
ATOM     32  C   UNL     1       1.146   2.997  21.169  0.00  0.00    +0.000 A 
ATOM     33  C   UNL     1       2.517   2.929  21.408  0.00  0.00    +0.000 A 
ATOM     34  C   UNL     1       3.406   2.816  20.337  0.00  0.00    +0.000 A 
ENDBRANCH  28  29
ENDBRANCH   1  28
TORSDOF 13
ENDMDL
