MODEL 1
REMARK VINA RESULT:      -8.2      0.000      0.000
REMARK  Name = 
REMARK  5 active torsions:
REMARK  status: ('A' for Active; 'I' for Inactive)
REMARK    1  A    between atoms: C_2  and  O_3
REMARK    2  A    between atoms: C_2  and  C_4
REMARK    3  A    between atoms: C_6  and  N_7
REMARK    4  A    between atoms: N_7  and  C_8
REMARK    5  A    between atoms: C_10  and  C_11
REMARK                            x       y       z     vdW  Elec       q    Type
REMARK                         _______ _______ _______ _____ _____    ______ ____
ROOT
ATOM      1  C   UNL     1       3.028   5.946  19.732  0.00  0.00    +0.000 A 
ATOM      2  N   UNL     1       3.956   5.427  18.906  0.00  0.00    +0.000 NA
ATOM      3  C   UNL     1       4.301   6.153  17.827  0.00  0.00    +0.000 A 
ATOM      4  N   UNL     1       3.776   7.349  17.513  0.00  0.00    +0.000 NA
ATOM      5  C   UNL     1       2.838   7.842  18.330  0.00  0.00    +0.000 A 
ATOM      6  C   UNL     1       2.228   9.057  18.051  0.00  0.00    +0.000 A 
ATOM      7  N   UNL     1       1.254   9.649  18.791  0.00  0.00    +0.000 NA
ATOM      8  C   UNL     1       0.851   8.982  19.885  0.00  0.00    +0.000 A 
ATOM      9  C   UNL     1       1.383   7.763  20.267  0.00  0.00    +0.000 A 
ATOM     10  C   UNL     1       2.406   7.181  19.479  0.00  0.00    +0.000 A 
ENDROOT
BRANCH   3  11
ATOM     11  C   UNL     1       5.331   5.615  16.917  0.00  0.00    +0.000 A 
ATOM     12  C   UNL     1       5.215   5.719  15.526  0.00  0.00    +0.000 A 
ATOM     13  C   UNL     1       6.208   5.189  14.716  0.00  0.00    +0.000 A 
ATOM     14  N   UNL     1       7.305   4.563  15.184  0.00  0.00    +0.000 NA
ATOM     15  C   UNL     1       7.416   4.466  16.523  0.00  0.00    +0.000 A 
ATOM     16  C   UNL     1       6.477   4.967  17.410  0.00  0.00    +0.000 A 
ENDBRANCH   3  11
BRANCH   1  17
ATOM     17  N   UNL     1       2.600   5.171  20.837  0.00  0.00    +0.000 N 
ATOM     18  H   UNL     1       3.389   4.786  21.360  0.00  0.00    +0.000 HD
BRANCH  17  21
ATOM     19  C   UNL     1       1.772   2.424  19.991  0.00  0.00    +0.000 C 
ATOM     20  C   UNL     1       1.698   2.977  21.437  0.00  0.00    +0.000 C 
ATOM     21  C   UNL     1       1.407   4.379  20.863  0.00  0.00    +0.000 C 
ATOM     22  C   UNL     1       1.035   3.707  19.529  0.00  0.00    +0.000 C 
BRANCH  19  24
ATOM     23  O   UNL     1       3.406   1.694  18.286  0.00  0.00    +0.000 OA
ATOM     24  C   UNL     1       3.184   2.202  19.382  0.00  0.00    +0.000 C 
BRANCH  24  25
ATOM     25  O   UNL     1       4.206   2.602  20.185  0.00  0.00    +0.000 OA
ATOM     26  H   UNL     1       4.839   3.202  19.752  0.00  0.00    +0.000 HD
ENDBRANCH  24  25
ENDBRANCH  19  24
ENDBRANCH  17  21
ENDBRANCH   1  17
TORSDOF 5
ENDMDL
MODEL 2
REMARK VINA RESULT:      -8.2      1.866      6.114
REMARK  Name = 
REMARK  5 active torsions:
REMARK  status: ('A' for Active; 'I' for Inactive)
REMARK    1  A    between atoms: C_2  and  O_3
REMARK    2  A    between atoms: C_2  and  C_4
REMARK    3  A    between atoms: C_6  and  N_7
REMARK    4  A    between atoms: N_7  and  C_8
REMARK    5  A    between atoms: C_10  and  C_11
REMARK                            x       y       z     vdW  Elec       q    Type
REMARK                         _______ _______ _______ _____ _____    ______ ____
ROOT
ATOM      1  C   UNL     1       3.426   5.629  18.331  0.00  0.00    +0.000 A 
ATOM      2  N   UNL     1       2.886   6.859  18.421  0.00  0.00    +0.000 NA
ATOM      3  C   UNL     1       2.147   7.133  19.512  0.00  0.00    +0.000 A 
ATOM      4  N   UNL     1       1.901   6.262  20.505  0.00  0.00    +0.000 NA
ATOM      5  C   UNL     1       2.425   5.036  20.391  0.00  0.00    +0.000 A 
ATOM      6  C   UNL     1       2.187   4.074  21.363  0.00  0.00    +0.000 A 
ATOM      7  N   UNL     1       2.645   2.795  21.349  0.00  0.00    +0.000 NA
ATOM      8  C   UNL     1       3.389   2.442  20.287  0.00  0.00    +0.000 A 
ATOM      9  C   UNL     1       3.695   3.312  19.255  0.00  0.00    +0.000 A 
ATOM     10  C   UNL     1       3.211   4.642  19.309  0.00  0.00    +0.000 A 
ENDROOT
BRANCH   3  11
ATOM     11  C   UNL     1       1.561   8.481  19.644  0.00  0.00    +0.000 A 
ATOM     12  C   UNL     1       1.471   9.358  18.557  0.00  0.00    +0.000 A 
ATOM     13  C   UNL     1       0.919  10.617  18.738  0.00  0.00    +0.000 A 
ATOM     14  N   UNL     1       0.451  11.069  19.917  0.00  0.00    +0.000 NA
ATOM     15  C   UNL     1       0.535  10.223  20.961  0.00  0.00    +0.000 A 
ATOM     16  C   UNL     1       1.069   8.948  20.875  0.00  0.00    +0.000 A 
ENDBRANCH   3  11
BRANCH   1  17
ATOM     17  N   UNL     1       4.151   5.295  17.161  0.00  0.00    +0.000 N 
ATOM     18  H   UNL     1       4.488   4.330  17.185  0.00  0.00    +0.000 HD
BRANCH  17  21
ATOM     19  C   UNL     1       7.069   5.882  16.871  0.00  0.00    +0.000 C 
ATOM     20  C   UNL     1       6.121   5.459  15.720  0.00  0.00    +0.000 C 
ATOM     21  C   UNL     1       4.970   6.209  16.422  0.00  0.00    +0.000 C 
ATOM     22  C   UNL     1       6.026   6.963  17.251  0.00  0.00    +0.000 C 
BRANCH  19  24
ATOM     23  O   UNL     1       6.793   4.743  19.047  0.00  0.00    +0.000 OA
ATOM     24  C   UNL     1       7.375   4.826  17.968  0.00  0.00    +0.000 C 
BRANCH  24  25
ATOM     25  O   UNL     1       8.389   3.977  17.657  0.00  0.00    +0.000 OA
ATOM     26  H   UNL     1       9.224   4.169  18.119  0.00  0.00    +0.000 HD
ENDBRANCH  24  25
ENDBRANCH  19  24
ENDBRANCH  17  21
ENDBRANCH   1  17
TORSDOF 5
ENDMDL
MODEL 3
REMARK VINA RESULT:      -8.1      1.641      5.150
REMARK  Name = 
REMARK  5 active torsions:
REMARK  status: ('A' for Active; 'I' for Inactive)
REMARK    1  A    between atoms: C_2  and  O_3
REMARK    2  A    between atoms: C_2  and  C_4
REMARK    3  A    between atoms: C_6  and  N_7
REMARK    4  A    between atoms: N_7  and  C_8
REMARK    5  A    between atoms: C_10  and  C_11
REMARK                            x       y       z     vdW  Elec       q    Type
REMARK                         _______ _______ _______ _____ _____    ______ ____
ROOT
ATOM      1  C   UNL     1       3.341   4.735  17.489  0.00  0.00    +0.000 A 
ATOM      2  N   UNL     1       2.577   5.697  18.038  0.00  0.00    +0.000 NA
ATOM      3  C   UNL     1       3.068   6.950  18.047  0.00  0.00    +0.000 A 
ATOM      4  N   UNL     1       4.270   7.301  17.560  0.00  0.00    +0.000 NA
ATOM      5  C   UNL     1       5.030   6.331  17.038  0.00  0.00    +0.000 A 
ATOM      6  C   UNL     1       6.295   6.614  16.545  0.00  0.00    +0.000 A 
ATOM      7  N   UNL     1       7.163   5.715  16.012  0.00  0.00    +0.000 NA
ATOM      8  C   UNL     1       6.746   4.438  15.972  0.00  0.00    +0.000 A 
ATOM      9  C   UNL     1       5.506   4.033  16.432  0.00  0.00    +0.000 A 
ATOM     10  C   UNL     1       4.622   4.999  16.970  0.00  0.00    +0.000 A 
ENDROOT
BRANCH   3  11
ATOM     11  C   UNL     1       2.240   8.027  18.625  0.00  0.00    +0.000 A 
ATOM     12  C   UNL     1       1.844   9.139  17.873  0.00  0.00    +0.000 A 
ATOM     13  C   UNL     1       1.074  10.126  18.468  0.00  0.00    +0.000 A 
ATOM     14  N   UNL     1       0.667  10.091  19.752  0.00  0.00    +0.000 NA
ATOM     15  C   UNL     1       1.047   9.018  20.472  0.00  0.00    +0.000 A 
ATOM     16  C   UNL     1       1.815   7.984  19.964  0.00  0.00    +0.000 A 
ENDBRANCH   3  11
BRANCH   1  17
ATOM     17  N   UNL     1       2.875   3.399  17.528  0.00  0.00    +0.000 N 
ATOM     18  H   UNL     1       1.875   3.339  17.322  0.00  0.00    +0.000 HD
BRANCH  17  21
ATOM     19  C   UNL     1       2.637   2.689  20.423  0.00  0.00    +0.000 C 
ATOM     20  C   UNL     1       2.234   1.772  19.239  0.00  0.00    +0.000 C 
ATOM     21  C   UNL     1       3.378   2.385  18.405  0.00  0.00    +0.000 C 
ATOM     22  C   UNL     1       3.999   2.900  19.716  0.00  0.00    +0.000 C 
BRANCH  19  24
ATOM     23  O   UNL     1       0.618   4.110  20.314  0.00  0.00    +0.000 OA
ATOM     24  C   UNL     1       1.790   3.971  20.653  0.00  0.00    +0.000 C 
BRANCH  24  25
ATOM     25  O   UNL     1       2.466   4.984  21.257  0.00  0.00    +0.000 OA
ATOM     26  H   UNL     1       1.893   5.628  21.709  0.00  0.00    +0.000 HD
ENDBRANCH  24  25
ENDBRANCH  19  24
ENDBRANCH  17  21
ENDBRANCH   1  17
TORSDOF 5
ENDMDL
MODEL 4
REMARK VINA RESULT:      -8.0      1.407      5.044
REMARK  Name = 
REMARK  5 active torsions:
REMARK  status: ('A' for Active; 'I' for Inactive)
REMARK    1  A    between atoms: C_2  and  O_3
REMARK    2  A    between atoms: C_2  and  C_4
REMARK    3  A    between atoms: C_6  and  N_7
REMARK    4  A    between atoms: N_7  and  C_8
REMARK    5  A    between atoms: C_10  and  C_11
REMARK                            x       y       z     vdW  Elec       q    Type
REMARK                         _______ _______ _______ _____ _____    ______ ____
ROOT
ATOM      1  C   UNL     1       3.119   5.787  19.597  0.00  0.00    +0.000 A 
ATOM      2  N   UNL     1       2.301   6.826  19.849  0.00  0.00    +0.000 NA
ATOM      3  C   UNL     1       2.283   7.832  18.956  0.00  0.00    +0.000 A 
ATOM      4  N   UNL     1       3.033   7.877  17.842  0.00  0.00    +0.000 NA
ATOM      5  C   UNL     1       3.859   6.848  17.616  0.00  0.00    +0.000 A 
ATOM      6  C   UNL     1       4.687   6.841  16.502  0.00  0.00    +0.000 A 
ATOM      7  N   UNL     1       5.578   5.868  16.177  0.00  0.00    +0.000 NA
ATOM      8  C   UNL     1       5.658   4.828  17.024  0.00  0.00    +0.000 A 
ATOM      9  C   UNL     1       4.885   4.722  18.167  0.00  0.00    +0.000 A 
ATOM     10  C   UNL     1       3.958   5.749  18.468  0.00  0.00    +0.000 A 
ENDROOT
BRANCH   3  11
ATOM     11  C   UNL     1       1.379   8.973  19.200  0.00  0.00    +0.000 A 
ATOM     12  C   UNL     1       0.956   9.815  18.164  0.00  0.00    +0.000 A 
ATOM     13  C   UNL     1       0.113  10.878  18.450  0.00  0.00    +0.000 A 
ATOM     14  N   UNL     1      -0.340  11.168  19.685  0.00  0.00    +0.000 NA
ATOM     15  C   UNL     1       0.066  10.354  20.679  0.00  0.00    +0.000 A 
ATOM     16  C   UNL     1       0.905   9.269  20.489  0.00  0.00    +0.000 A 
ENDBRANCH   3  11
BRANCH   1  17
ATOM     17  N   UNL     1       3.205   4.748  20.555  0.00  0.00    +0.000 N 
ATOM     18  H   UNL     1       4.015   4.145  20.391  0.00  0.00    +0.000 HD
BRANCH  17  21
ATOM     19  C   UNL     1       1.360   2.485  19.905  0.00  0.00    +0.000 C 
ATOM     20  C   UNL     1       2.264   2.572  21.161  0.00  0.00    +0.000 C 
ATOM     21  C   UNL     1       2.079   4.104  21.162  0.00  0.00    +0.000 C 
ATOM     22  C   UNL     1       0.858   3.912  20.243  0.00  0.00    +0.000 C 
BRANCH  19  24
ATOM     23  O   UNL     1       1.840   3.022  17.541  0.00  0.00    +0.000 OA
ATOM     24  C   UNL     1       2.063   2.327  18.529  0.00  0.00    +0.000 C 
BRANCH  24  25
ATOM     25  O   UNL     1       2.965   1.312  18.478  0.00  0.00    +0.000 OA
ATOM     26  H   UNL     1       3.379   1.106  19.334  0.00  0.00    +0.000 HD
ENDBRANCH  24  25
ENDBRANCH  19  24
ENDBRANCH  17  21
ENDBRANCH   1  17
TORSDOF 5
ENDMDL
MODEL 5
REMARK VINA RESULT:      -7.9      1.582      5.100
REMARK  Name = 
REMARK  5 active torsions:
REMARK  status: ('A' for Active; 'I' for Inactive)
REMARK    1  A    between atoms: C_2  and  O_3
REMARK    2  A    between atoms: C_2  and  C_4
REMARK    3  A    between atoms: C_6  and  N_7
REMARK    4  A    between atoms: N_7  and  C_8
REMARK    5  A    between atoms: C_10  and  C_11
REMARK                            x       y       z     vdW  Elec       q    Type
REMARK                         _______ _______ _______ _____ _____    ______ ____
ROOT
ATOM      1  C   UNL     1       3.711   4.720  17.949  0.00  0.00    +0.000 A 
ATOM      2  N   UNL     1       2.879   5.668  18.420  0.00  0.00    +0.000 NA
ATOM      3  C   UNL     1       3.183   6.950  18.149  0.00  0.00    +0.000 A 
ATOM      4  N   UNL     1       4.263   7.348  17.456  0.00  0.00    +0.000 NA
ATOM      5  C   UNL     1       5.094   6.397  17.014  0.00  0.00    +0.000 A 
ATOM      6  C   UNL     1       6.246   6.735  16.318  0.00  0.00    +0.000 A 
ATOM      7  N   UNL     1       7.172   5.865  15.838  0.00  0.00    +0.000 NA
ATOM      8  C   UNL     1       6.941   4.562  16.072  0.00  0.00    +0.000 A 
ATOM      9  C   UNL     1       5.828   4.102  16.754  0.00  0.00    +0.000 A 
ATOM     10  C   UNL     1       4.877   5.037  17.230  0.00  0.00    +0.000 A 
ENDROOT
BRANCH   3  11
ATOM     11  C   UNL     1       2.275   8.007  18.638  0.00  0.00    +0.000 A 
ATOM     12  C   UNL     1       1.822   9.035  17.803  0.00  0.00    +0.000 A 
ATOM     13  C   UNL     1       0.977  10.008  18.315  0.00  0.00    +0.000 A 
ATOM     14  N   UNL     1       0.549  10.035  19.592  0.00  0.00    +0.000 NA
ATOM     15  C   UNL     1       0.983   9.043  20.392  0.00  0.00    +0.000 A 
ATOM     16  C   UNL     1       1.827   8.029  19.970  0.00  0.00    +0.000 A 
ENDBRANCH   3  11
BRANCH   1  17
ATOM     17  N   UNL     1       3.448   3.368  18.277  0.00  0.00    +0.000 N 
ATOM     18  H   UNL     1       4.288   2.789  18.206  0.00  0.00    +0.000 HD
BRANCH  17  21
ATOM     19  C   UNL     1       0.955   2.681  19.780  0.00  0.00    +0.000 C 
ATOM     20  C   UNL     1       1.016   3.535  18.488  0.00  0.00    +0.000 C 
ATOM     21  C   UNL     1       2.215   2.689  18.011  0.00  0.00    +0.000 C 
ATOM     22  C   UNL     1       1.817   1.622  19.047  0.00  0.00    +0.000 C 
BRANCH  19  24
ATOM     23  O   UNL     1       1.743   2.679  22.122  0.00  0.00    +0.000 OA
ATOM     24  C   UNL     1       1.581   3.286  21.066  0.00  0.00    +0.000 C 
BRANCH  24  25
ATOM     25  O   UNL     1       1.933   4.594  20.953  0.00  0.00    +0.000 OA
ATOM     26  H   UNL     1       2.408   4.806  20.130  0.00  0.00    +0.000 HD
ENDBRANCH  24  25
ENDBRANCH  19  24
ENDBRANCH  17  21
ENDBRANCH   1  17
TORSDOF 5
ENDMDL
MODEL 6
REMARK VINA RESULT:      -7.9      1.607      5.183
REMARK  Name = 
REMARK  5 active torsions:
REMARK  status: ('A' for Active; 'I' for Inactive)
REMARK    1  A    between atoms: C_2  and  O_3
REMARK    2  A    between atoms: C_2  and  C_4
REMARK    3  A    between atoms: C_6  and  N_7
REMARK    4  A    between atoms: N_7  and  C_8
REMARK    5  A    between atoms: C_10  and  C_11
REMARK                            x       y       z     vdW  Elec       q    Type
REMARK                         _______ _______ _______ _____ _____    ______ ____
ROOT
ATOM      1  C   UNL     1       3.600   4.715  17.953  0.00  0.00    +0.000 A 
ATOM      2  N   UNL     1       2.871   5.701  18.509  0.00  0.00    +0.000 NA
ATOM      3  C   UNL     1       3.089   6.954  18.071  0.00  0.00    +0.000 A 
ATOM      4  N   UNL     1       3.990   7.289  17.133  0.00  0.00    +0.000 NA
ATOM      5  C   UNL     1       4.724   6.302  16.606  0.00  0.00    +0.000 A 
ATOM      6  C   UNL     1       5.696   6.576  15.654  0.00  0.00    +0.000 A 
ATOM      7  N   UNL     1       6.514   5.666  15.064  0.00  0.00    +0.000 NA
ATOM      8  C   UNL     1       6.360   4.389  15.452  0.00  0.00    +0.000 A 
ATOM      9  C   UNL     1       5.425   3.991  16.392  0.00  0.00    +0.000 A 
ATOM     10  C   UNL     1       4.581   4.966  16.978  0.00  0.00    +0.000 A 
ENDROOT
BRANCH   3  11
ATOM     11  C   UNL     1       2.288   8.051  18.650  0.00  0.00    +0.000 A 
ATOM     12  C   UNL     1       1.807   8.001  19.963  0.00  0.00    +0.000 A 
ATOM     13  C   UNL     1       1.052   9.055  20.455  0.00  0.00    +0.000 A 
ATOM     14  N   UNL     1       0.739  10.153  19.740  0.00  0.00    +0.000 NA
ATOM     15  C   UNL     1       1.205  10.200  18.477  0.00  0.00    +0.000 A 
ATOM     16  C   UNL     1       1.967   9.197  17.902  0.00  0.00    +0.000 A 
ENDBRANCH   3  11
BRANCH   1  17
ATOM     17  N   UNL     1       3.436   3.397  18.444  0.00  0.00    +0.000 N 
ATOM     18  H   UNL     1       4.333   2.921  18.565  0.00  0.00    +0.000 HD
BRANCH  17  21
ATOM     19  C   UNL     1       0.952   2.435  19.805  0.00  0.00    +0.000 C 
ATOM     20  C   UNL     1       0.995   3.232  18.476  0.00  0.00    +0.000 C 
ATOM     21  C   UNL     1       2.330   2.542  18.130  0.00  0.00    +0.000 C 
ATOM     22  C   UNL     1       2.003   1.476  19.192  0.00  0.00    +0.000 C 
BRANCH  19  24
ATOM     23  O   UNL     1       1.524   2.652  22.200  0.00  0.00    +0.000 OA
ATOM     24  C   UNL     1       1.391   3.178  21.097  0.00  0.00    +0.000 C 
BRANCH  24  25
ATOM     25  O   UNL     1       1.605   4.509  20.930  0.00  0.00    +0.000 OA
ATOM     26  H   UNL     1       2.128   4.920  21.640  0.00  0.00    +0.000 HD
ENDBRANCH  24  25
ENDBRANCH  19  24
ENDBRANCH  17  21
ENDBRANCH   1  17
TORSDOF 5
ENDMDL
MODEL 7
REMARK VINA RESULT:      -7.9      2.077      6.081
REMARK  Name = 
REMARK  5 active torsions:
REMARK  status: ('A' for Active; 'I' for Inactive)
REMARK    1  A    between atoms: C_2  and  O_3
REMARK    2  A    between atoms: C_2  and  C_4
REMARK    3  A    between atoms: C_6  and  N_7
REMARK    4  A    between atoms: N_7  and  C_8
REMARK    5  A    between atoms: C_10  and  C_11
REMARK                            x       y       z     vdW  Elec       q    Type
REMARK                         _______ _______ _______ _____ _____    ______ ____
ROOT
ATOM      1  C   UNL     1       4.050   5.074  18.722  0.00  0.00    +0.000 A 
ATOM      2  N   UNL     1       3.501   6.292  18.554  0.00  0.00    +0.000 NA
ATOM      3  C   UNL     1       2.533   6.659  19.412  0.00  0.00    +0.000 A 
ATOM      4  N   UNL     1       2.068   5.891  20.412  0.00  0.00    +0.000 NA
ATOM      5  C   UNL     1       2.606   4.674  20.553  0.00  0.00    +0.000 A 
ATOM      6  C   UNL     1       2.155   3.814  21.544  0.00  0.00    +0.000 A 
ATOM      7  N   UNL     1       2.606   2.553  21.773  0.00  0.00    +0.000 NA
ATOM      8  C   UNL     1       3.574   2.111  20.952  0.00  0.00    +0.000 A 
ATOM      9  C   UNL     1       4.106   2.875  19.928  0.00  0.00    +0.000 A 
ATOM     10  C   UNL     1       3.619   4.190  19.727  0.00  0.00    +0.000 A 
ENDROOT
BRANCH   3  11
ATOM     11  C   UNL     1       1.929   7.998  19.261  0.00  0.00    +0.000 A 
ATOM     12  C   UNL     1       1.941   8.680  18.039  0.00  0.00    +0.000 A 
ATOM     13  C   UNL     1       1.367   9.939  17.954  0.00  0.00    +0.000 A 
ATOM     14  N   UNL     1       0.784  10.571  18.991  0.00  0.00    +0.000 NA
ATOM     15  C   UNL     1       0.771   9.911  20.165  0.00  0.00    +0.000 A 
ATOM     16  C   UNL     1       1.317   8.651  20.345  0.00  0.00    +0.000 A 
ENDBRANCH   3  11
BRANCH   1  17
ATOM     17  N   UNL     1       5.024   4.639  17.791  0.00  0.00    +0.000 N 
ATOM     18  H   UNL     1       5.731   4.044  18.229  0.00  0.00    +0.000 HD
BRANCH  17  21
ATOM     19  C   UNL     1       7.326   6.445  17.168  0.00  0.00    +0.000 C 
ATOM     20  C   UNL     1       6.979   5.139  16.408  0.00  0.00    +0.000 C 
ATOM     21  C   UNL     1       5.483   5.407  16.673  0.00  0.00    +0.000 C 
ATOM     22  C   UNL     1       5.847   6.870  16.986  0.00  0.00    +0.000 C 
BRANCH  19  24
ATOM     23  O   UNL     1       7.523   5.380  19.390  0.00  0.00    +0.000 OA
ATOM     24  C   UNL     1       7.811   6.308  18.637  0.00  0.00    +0.000 C 
BRANCH  24  25
ATOM     25  O   UNL     1       8.590   7.336  19.065  0.00  0.00    +0.000 OA
ATOM     26  H   UNL     1       9.522   7.267  18.793  0.00  0.00    +0.000 HD
ENDBRANCH  24  25
ENDBRANCH  19  24
ENDBRANCH  17  21
ENDBRANCH   1  17
TORSDOF 5
ENDMDL
MODEL 8
REMARK VINA RESULT:      -7.8      1.467      5.109
REMARK  Name = 
REMARK  5 active torsions:
REMARK  status: ('A' for Active; 'I' for Inactive)
REMARK    1  A    between atoms: C_2  and  O_3
REMARK    2  A    between atoms: C_2  and  C_4
REMARK    3  A    between atoms: C_6  and  N_7
REMARK    4  A    between atoms: N_7  and  C_8
REMARK    5  A    between atoms: C_10  and  C_11
REMARK                            x       y       z     vdW  Elec       q    Type
REMARK                         _______ _______ _______ _____ _____    ______ ____
ROOT
ATOM      1  C   UNL     1       3.239   4.907  17.393  0.00  0.00    +0.000 A 
ATOM      2  N   UNL     1       2.481   5.869  17.952  0.00  0.00    +0.000 NA
ATOM      3  C   UNL     1       3.012   7.103  18.040  0.00  0.00    +0.000 A 
ATOM      4  N   UNL     1       4.245   7.435  17.624  0.00  0.00    +0.000 NA
ATOM      5  C   UNL     1       4.996   6.463  17.092  0.00  0.00    +0.000 A 
ATOM      6  C   UNL     1       6.292   6.725  16.669  0.00  0.00    +0.000 A 
ATOM      7  N   UNL     1       7.154   5.822  16.134  0.00  0.00    +0.000 NA
ATOM      8  C   UNL     1       6.699   4.564  16.016  0.00  0.00    +0.000 A 
ATOM      9  C   UNL     1       5.426   4.180  16.403  0.00  0.00    +0.000 A 
ATOM     10  C   UNL     1       4.550   5.151  16.945  0.00  0.00    +0.000 A 
ENDROOT
BRANCH   3  11
ATOM     11  C   UNL     1       2.192   8.180  18.630  0.00  0.00    +0.000 A 
ATOM     12  C   UNL     1       1.729   8.117  19.949  0.00  0.00    +0.000 A 
ATOM     13  C   UNL     1       0.955   9.153  20.452  0.00  0.00    +0.000 A 
ATOM     14  N   UNL     1       0.609  10.244  19.742  0.00  0.00    +0.000 NA
ATOM     15  C   UNL     1       1.059  10.304  18.474  0.00  0.00    +0.000 A 
ATOM     16  C   UNL     1       1.837   9.319  17.888  0.00  0.00    +0.000 A 
ENDBRANCH   3  11
BRANCH   1  17
ATOM     17  N   UNL     1       2.729   3.587  17.350  0.00  0.00    +0.000 N 
ATOM     18  H   UNL     1       2.572   3.271  16.391  0.00  0.00    +0.000 HD
BRANCH  17  21
ATOM     19  C   UNL     1       2.984   2.311  20.043  0.00  0.00    +0.000 C 
ATOM     20  C   UNL     1       2.163   3.588  19.730  0.00  0.00    +0.000 C 
ATOM     21  C   UNL     1       1.853   3.020  18.330  0.00  0.00    +0.000 C 
ATOM     22  C   UNL     1       2.263   1.630  18.852  0.00  0.00    +0.000 C 
BRANCH  19  24
ATOM     23  O   UNL     1       5.152   3.439  19.674  0.00  0.00    +0.000 OA
ATOM     24  C   UNL     1       4.530   2.410  19.927  0.00  0.00    +0.000 C 
BRANCH  24  25
ATOM     25  O   UNL     1       5.179   1.230  20.108  0.00  0.00    +0.000 OA
ATOM     26  H   UNL     1       5.112   0.621  19.352  0.00  0.00    +0.000 HD
ENDBRANCH  24  25
ENDBRANCH  19  24
ENDBRANCH  17  21
ENDBRANCH   1  17
TORSDOF 5
ENDMDL
MODEL 9
REMARK VINA RESULT:      -7.8      2.424      6.116
REMARK  Name = 
REMARK  5 active torsions:
REMARK  status: ('A' for Active; 'I' for Inactive)
REMARK    1  A    between atoms: C_2  and  O_3
REMARK    2  A    between atoms: C_2  and  C_4
REMARK    3  A    between atoms: C_6  and  N_7
REMARK    4  A    between atoms: N_7  and  C_8
REMARK    5  A    between atoms: C_10  and  C_11
REMARK                            x       y       z     vdW  Elec       q    Type
REMARK                         _______ _______ _______ _____ _____    ______ ____
ROOT
ATOM      1  C   UNL     1       4.004   5.147  18.884  0.00  0.00    +0.000 A 
ATOM      2  N   UNL     1       3.483   6.376  18.705  0.00  0.00    +0.000 NA
ATOM      3  C   UNL     1       2.462   6.738  19.502  0.00  0.00    +0.000 A 
ATOM      4  N   UNL     1       1.920   5.956  20.451  0.00  0.00    +0.000 NA
ATOM      5  C   UNL     1       2.432   4.728  20.602  0.00  0.00    +0.000 A 
ATOM      6  C   UNL     1       1.902   3.854  21.540  0.00  0.00    +0.000 A 
ATOM      7  N   UNL     1       2.321   2.582  21.771  0.00  0.00    +0.000 NA
ATOM      8  C   UNL     1       3.338   2.144  21.010  0.00  0.00    +0.000 A 
ATOM      9  C   UNL     1       3.949   2.923  20.042  0.00  0.00    +0.000 A 
ATOM     10  C   UNL     1       3.494   4.248  19.837  0.00  0.00    +0.000 A 
ENDROOT
BRANCH   3  11
ATOM     11  C   UNL     1       1.887   8.088  19.340  0.00  0.00    +0.000 A 
ATOM     12  C   UNL     1       2.017   8.807  18.146  0.00  0.00    +0.000 A 
ATOM     13  C   UNL     1       1.465  10.075  18.049  0.00  0.00    +0.000 A 
ATOM     14  N   UNL     1       0.794  10.681  19.048  0.00  0.00    +0.000 NA
ATOM     15  C   UNL     1       0.667   9.986  20.195  0.00  0.00    +0.000 A 
ATOM     16  C   UNL     1       1.183   8.714  20.383  0.00  0.00    +0.000 A 
ENDBRANCH   3  11
BRANCH   1  17
ATOM     17  N   UNL     1       5.035   4.719  18.013  0.00  0.00    +0.000 N 
ATOM     18  H   UNL     1       4.670   4.160  17.238  0.00  0.00    +0.000 HD
BRANCH  17  21
ATOM     19  C   UNL     1       7.704   6.067  18.068  0.00  0.00    +0.000 C 
ATOM     20  C   UNL     1       6.952   5.516  19.306  0.00  0.00    +0.000 C 
ATOM     21  C   UNL     1       6.367   4.393  18.425  0.00  0.00    +0.000 C 
ATOM     22  C   UNL     1       7.466   4.694  17.389  0.00  0.00    +0.000 C 
BRANCH  19  24
ATOM     23  O   UNL     1       6.106   7.249  16.597  0.00  0.00    +0.000 OA
ATOM     24  C   UNL     1       7.082   7.293  17.343  0.00  0.00    +0.000 C 
BRANCH  24  25
ATOM     25  O   UNL     1       7.728   8.465  17.576  0.00  0.00    +0.000 OA
ATOM     26  H   UNL     1       7.531   8.861  18.444  0.00  0.00    +0.000 HD
ENDBRANCH  24  25
ENDBRANCH  19  24
ENDBRANCH  17  21
ENDBRANCH   1  17
TORSDOF 5
ENDMDL
