MODEL 1
REMARK VINA RESULT:      -8.9      0.000      0.000
REMARK  Name = 
REMARK  6 active torsions:
REMARK  status: ('A' for Active; 'I' for Inactive)
REMARK    1  A    between atoms: C_1  and  O_2
REMARK    2  A    between atoms: O_2  and  C_3
REMARK    3  A    between atoms: C_6  and  N_7
REMARK    4  A    between atoms: C_12  and  C_13
REMARK    5  A    between atoms: C_26  and  O_27
REMARK    6  A    between atoms: O_27  and  C_28
REMARK                            x       y       z     vdW  Elec       q    Type
REMARK                         _______ _______ _______ _____ _____    ______ ____
ROOT
ATOM      1  N   UNL     1       2.045   6.907  20.899  0.00  0.00    +0.000 N 
ATOM      2  C   UNL     1       2.518   6.001  19.972  0.00  0.00    +0.000 A 
ATOM      3  N   UNL     1       3.515   6.321  19.195  0.00  0.00    +0.000 NA
ATOM      4  C   UNL     1       3.999   5.410  18.240  0.00  0.00    +0.000 A 
ATOM      5  C   UNL     1       5.089   5.775  17.451  0.00  0.00    +0.000 A 
ATOM      6  C   UNL     1       5.659   4.868  16.541  0.00  0.00    +0.000 A 
ATOM      7  C   UNL     1       5.137   3.563  16.463  0.00  0.00    +0.000 A 
ATOM      8  C   UNL     1       3.989   3.211  17.175  0.00  0.00    +0.000 A 
ATOM      9  C   UNL     1       3.416   4.157  18.023  0.00  0.00    +0.000 A 
ATOM     10  N   UNL     1       2.244   3.914  18.749  0.00  0.00    +0.000 N 
ATOM     11  C   UNL     1       1.234   3.015  18.515  0.00  0.00    +0.000 A 
ATOM     12  C   UNL     1       0.393   3.046  19.608  0.00  0.00    +0.000 A 
ATOM     13  C   UNL     1       0.869   4.060  20.478  0.00  0.00    +0.000 A 
ATOM     14  C   UNL     1       1.876   4.722  19.795  0.00  0.00    +0.000 A 
ATOM     15  H   UNL     1       1.408   6.510  21.577  0.00  0.00    +0.000 HD
ENDROOT
BRANCH   1  19
ATOM     16  C   UNL     1       0.344  10.634  19.815  0.00  0.00    +0.000 A 
ATOM     17  C   UNL     1       0.898   9.805  18.829  0.00  0.00    +0.000 A 
ATOM     18  C   UNL     1       1.479   8.583  19.169  0.00  0.00    +0.000 A 
ATOM     19  C   UNL     1       1.540   8.170  20.502  0.00  0.00    +0.000 A 
ATOM     20  C   UNL     1       1.061   9.036  21.485  0.00  0.00    +0.000 A 
ATOM     21  C   UNL     1       0.476  10.267  21.163  0.00  0.00    +0.000 A 
BRANCH  16  23
ATOM     22  C   UNL     1      -1.481  11.674  18.717  0.00  0.00    +0.000 C 
ATOM     23  O   UNL     1      -0.287  11.803  19.487  0.00  0.00    +0.000 OA
ENDBRANCH  16  23
BRANCH  21  24
ATOM     24  O   UNL     1       0.083  10.943  22.287  0.00  0.00    +0.000 OA
ATOM     25  C   UNL     1      -0.877  10.351  23.143  0.00  0.00    +0.000 C 
ENDBRANCH  21  24
ENDBRANCH   1  19
BRANCH   6  26
ATOM     26  C   UNL     1       6.813   5.284  15.669  0.00  0.00    +0.000 C 
ATOM     27  F   UNL     1       7.475   6.382  16.116  0.00  0.00    +0.000 F 
ATOM     28  F   UNL     1       7.750   4.303  15.537  0.00  0.00    +0.000 F 
ATOM     29  F   UNL     1       6.413   5.584  14.398  0.00  0.00    +0.000 F 
ENDBRANCH   6  26
TORSDOF 4
ENDMDL
MODEL 2
REMARK VINA RESULT:      -8.8      0.720      1.051
REMARK  Name = 
REMARK  6 active torsions:
REMARK  status: ('A' for Active; 'I' for Inactive)
REMARK    1  A    between atoms: C_1  and  O_2
REMARK    2  A    between atoms: O_2  and  C_3
REMARK    3  A    between atoms: C_6  and  N_7
REMARK    4  A    between atoms: C_12  and  C_13
REMARK    5  A    between atoms: C_26  and  O_27
REMARK    6  A    between atoms: O_27  and  C_28
REMARK                            x       y       z     vdW  Elec       q    Type
REMARK                         _______ _______ _______ _____ _____    ______ ____
ROOT
ATOM      1  N   UNL     1       2.197   7.190  20.545  0.00  0.00    +0.000 N 
ATOM      2  C   UNL     1       2.614   6.161  19.725  0.00  0.00    +0.000 A 
ATOM      3  N   UNL     1       3.472   6.393  18.770  0.00  0.00    +0.000 NA
ATOM      4  C   UNL     1       3.896   5.356  17.922  0.00  0.00    +0.000 A 
ATOM      5  C   UNL     1       4.840   5.635  16.935  0.00  0.00    +0.000 A 
ATOM      6  C   UNL     1       5.354   4.614  16.117  0.00  0.00    +0.000 A 
ATOM      7  C   UNL     1       4.932   3.289  16.334  0.00  0.00    +0.000 A 
ATOM      8  C   UNL     1       3.918   3.006  17.252  0.00  0.00    +0.000 A 
ATOM      9  C   UNL     1       3.389   4.054  18.004  0.00  0.00    +0.000 A 
ATOM     10  N   UNL     1       2.346   3.880  18.921  0.00  0.00    +0.000 N 
ATOM     11  C   UNL     1       1.388   2.900  18.988  0.00  0.00    +0.000 A 
ATOM     12  C   UNL     1       0.698   3.078  20.169  0.00  0.00    +0.000 A 
ATOM     13  C   UNL     1       1.203   4.253  20.779  0.00  0.00    +0.000 A 
ATOM     14  C   UNL     1       2.056   4.838  19.859  0.00  0.00    +0.000 A 
ATOM     15  H   UNL     1       1.688   6.885  21.364  0.00  0.00    +0.000 HD
ENDROOT
BRANCH   1  19
ATOM     16  C   UNL     1       0.057  10.521  19.035  0.00  0.00    +0.000 A 
ATOM     17  C   UNL     1       0.954   9.832  18.206  0.00  0.00    +0.000 A 
ATOM     18  C   UNL     1       1.682   8.745  18.691  0.00  0.00    +0.000 A 
ATOM     19  C   UNL     1       1.546   8.333  20.018  0.00  0.00    +0.000 A 
ATOM     20  C   UNL     1       0.714   9.073  20.859  0.00  0.00    +0.000 A 
ATOM     21  C   UNL     1      -0.022  10.168  20.391  0.00  0.00    +0.000 A 
BRANCH  16  23
ATOM     22  C   UNL     1      -1.918  11.168  17.894  0.00  0.00    +0.000 C 
ATOM     23  O   UNL     1      -0.711  11.547  18.553  0.00  0.00    +0.000 OA
ENDBRANCH  16  23
BRANCH  21  24
ATOM     24  O   UNL     1      -0.764  10.736  21.392  0.00  0.00    +0.000 OA
ATOM     25  C   UNL     1      -0.547  10.321  22.727  0.00  0.00    +0.000 C 
ENDBRANCH  21  24
ENDBRANCH   1  19
BRANCH   6  26
ATOM     26  C   UNL     1       6.348   4.931  15.032  0.00  0.00    +0.000 C 
ATOM     27  F   UNL     1       6.738   3.851  14.307  0.00  0.00    +0.000 F 
ATOM     28  F   UNL     1       5.870   5.839  14.134  0.00  0.00    +0.000 F 
ATOM     29  F   UNL     1       7.496   5.476  15.532  0.00  0.00    +0.000 F 
ENDBRANCH   6  26
TORSDOF 4
ENDMDL
MODEL 3
REMARK VINA RESULT:      -8.2      0.816      1.764
REMARK  Name = 
REMARK  6 active torsions:
REMARK  status: ('A' for Active; 'I' for Inactive)
REMARK    1  A    between atoms: C_1  and  O_2
REMARK    2  A    between atoms: O_2  and  C_3
REMARK    3  A    between atoms: C_6  and  N_7
REMARK    4  A    between atoms: C_12  and  C_13
REMARK    5  A    between atoms: C_26  and  O_27
REMARK    6  A    between atoms: O_27  and  C_28
REMARK                            x       y       z     vdW  Elec       q    Type
REMARK                         _______ _______ _______ _____ _____    ______ ____
ROOT
ATOM      1  N   UNL     1       1.902   6.685  21.056  0.00  0.00    +0.000 N 
ATOM      2  C   UNL     1       2.422   5.822  20.114  0.00  0.00    +0.000 A 
ATOM      3  N   UNL     1       3.371   6.222  19.314  0.00  0.00    +0.000 NA
ATOM      4  C   UNL     1       3.902   5.356  18.343  0.00  0.00    +0.000 A 
ATOM      5  C   UNL     1       4.940   5.808  17.530  0.00  0.00    +0.000 A 
ATOM      6  C   UNL     1       5.557   4.952  16.601  0.00  0.00    +0.000 A 
ATOM      7  C   UNL     1       5.138   3.611  16.529  0.00  0.00    +0.000 A 
ATOM      8  C   UNL     1       4.039   3.167  17.266  0.00  0.00    +0.000 A 
ATOM      9  C   UNL     1       3.414   4.061  18.134  0.00  0.00    +0.000 A 
ATOM     10  N   UNL     1       2.283   3.724  18.886  0.00  0.00    +0.000 N 
ATOM     11  C   UNL     1       1.342   2.749  18.672  0.00  0.00    +0.000 A 
ATOM     12  C   UNL     1       0.528   2.710  19.785  0.00  0.00    +0.000 A 
ATOM     13  C   UNL     1       0.943   3.755  20.648  0.00  0.00    +0.000 A 
ATOM     14  C   UNL     1       1.878   4.497  19.945  0.00  0.00    +0.000 A 
ATOM     15  H   UNL     1       1.314   6.236  21.748  0.00  0.00    +0.000 HD
ENDROOT
BRANCH   1  19
ATOM     16  C   UNL     1       0.270  10.426  19.916  0.00  0.00    +0.000 A 
ATOM     17  C   UNL     1      -0.201   9.779  21.068  0.00  0.00    +0.000 A 
ATOM     18  C   UNL     1       0.311   8.538  21.449  0.00  0.00    +0.000 A 
ATOM     19  C   UNL     1       1.289   7.905  20.678  0.00  0.00    +0.000 A 
ATOM     20  C   UNL     1       1.693   8.515  19.491  0.00  0.00    +0.000 A 
ATOM     21  C   UNL     1       1.189   9.759  19.091  0.00  0.00    +0.000 A 
BRANCH  16  23
ATOM     22  C   UNL     1      -1.361  11.712  18.773  0.00  0.00    +0.000 C 
ATOM     23  O   UNL     1      -0.177  11.672  19.568  0.00  0.00    +0.000 OA
ENDBRANCH  16  23
BRANCH  21  24
ATOM     24  O   UNL     1       1.729  10.157  17.897  0.00  0.00    +0.000 OA
ATOM     25  C   UNL     1       2.493  11.347  17.852  0.00  0.00    +0.000 C 
ENDBRANCH  21  24
ENDBRANCH   1  19
BRANCH   6  26
ATOM     26  C   UNL     1       6.654   5.461  15.704  0.00  0.00    +0.000 C 
ATOM     27  F   UNL     1       7.443   6.405  16.277  0.00  0.00    +0.000 F 
ATOM     28  F   UNL     1       7.489   4.470  15.285  0.00  0.00    +0.000 F 
ATOM     29  F   UNL     1       6.159   6.033  14.566  0.00  0.00    +0.000 F 
ENDBRANCH   6  26
TORSDOF 4
ENDMDL
MODEL 4
REMARK VINA RESULT:      -8.2      1.030      2.001
REMARK  Name = 
REMARK  6 active torsions:
REMARK  status: ('A' for Active; 'I' for Inactive)
REMARK    1  A    between atoms: C_1  and  O_2
REMARK    2  A    between atoms: O_2  and  C_3
REMARK    3  A    between atoms: C_6  and  N_7
REMARK    4  A    between atoms: C_12  and  C_13
REMARK    5  A    between atoms: C_26  and  O_27
REMARK    6  A    between atoms: O_27  and  C_28
REMARK                            x       y       z     vdW  Elec       q    Type
REMARK                         _______ _______ _______ _____ _____    ______ ____
ROOT
ATOM      1  N   UNL     1       2.129   6.913  21.086  0.00  0.00    +0.000 N 
ATOM      2  C   UNL     1       2.547   5.969  20.171  0.00  0.00    +0.000 A 
ATOM      3  N   UNL     1       3.265   6.329  19.143  0.00  0.00    +0.000 NA
ATOM      4  C   UNL     1       3.688   5.379  18.198  0.00  0.00    +0.000 A 
ATOM      5  C   UNL     1       4.483   5.796  17.131  0.00  0.00    +0.000 A 
ATOM      6  C   UNL     1       4.997   4.870  16.207  0.00  0.00    +0.000 A 
ATOM      7  C   UNL     1       4.732   3.501  16.396  0.00  0.00    +0.000 A 
ATOM      8  C   UNL     1       3.862   3.076  17.401  0.00  0.00    +0.000 A 
ATOM      9  C   UNL     1       3.323   4.030  18.263  0.00  0.00    +0.000 A 
ATOM     10  N   UNL     1       2.413   3.710  19.277  0.00  0.00    +0.000 N 
ATOM     11  C   UNL     1       1.568   2.634  19.393  0.00  0.00    +0.000 A 
ATOM     12  C   UNL     1       1.003   2.689  20.651  0.00  0.00    +0.000 A 
ATOM     13  C   UNL     1       1.458   3.882  21.266  0.00  0.00    +0.000 A 
ATOM     14  C   UNL     1       2.140   4.591  20.292  0.00  0.00    +0.000 A 
ATOM     15  H   UNL     1       1.748   6.522  21.939  0.00  0.00    +0.000 HD
ENDROOT
BRANCH   1  19
ATOM     16  C   UNL     1      -0.126  10.308  19.929  0.00  0.00    +0.000 A 
ATOM     17  C   UNL     1      -0.529   9.545  21.034  0.00  0.00    +0.000 A 
ATOM     18  C   UNL     1       0.190   8.413  21.419  0.00  0.00    +0.000 A 
ATOM     19  C   UNL     1       1.315   8.006  20.698  0.00  0.00    +0.000 A 
ATOM     20  C   UNL     1       1.662   8.721  19.552  0.00  0.00    +0.000 A 
ATOM     21  C   UNL     1       0.951   9.859  19.150  0.00  0.00    +0.000 A 
BRANCH  16  23
ATOM     22  C   UNL     1      -1.875  11.303  18.675  0.00  0.00    +0.000 C 
ATOM     23  O   UNL     1      -0.785  11.457  19.582  0.00  0.00    +0.000 OA
ENDBRANCH  16  23
BRANCH  21  24
ATOM     24  O   UNL     1       1.471  10.393  18.001  0.00  0.00    +0.000 OA
ATOM     25  C   UNL     1       2.279  11.552  18.088  0.00  0.00    +0.000 C 
ENDBRANCH  21  24
ENDBRANCH   1  19
BRANCH   6  26
ATOM     26  C   UNL     1       5.825   5.335  15.039  0.00  0.00    +0.000 C 
ATOM     27  F   UNL     1       5.784   4.503  13.967  0.00  0.00    +0.000 F 
ATOM     28  F   UNL     1       5.445   6.562  14.583  0.00  0.00    +0.000 F 
ATOM     29  F   UNL     1       7.146   5.455  15.364  0.00  0.00    +0.000 F 
ENDBRANCH   6  26
TORSDOF 4
ENDMDL
MODEL 5
REMARK VINA RESULT:      -7.9      4.309      7.360
REMARK  Name = 
REMARK  6 active torsions:
REMARK  status: ('A' for Active; 'I' for Inactive)
REMARK    1  A    between atoms: C_1  and  O_2
REMARK    2  A    between atoms: O_2  and  C_3
REMARK    3  A    between atoms: C_6  and  N_7
REMARK    4  A    between atoms: C_12  and  C_13
REMARK    5  A    between atoms: C_26  and  O_27
REMARK    6  A    between atoms: O_27  and  C_28
REMARK                            x       y       z     vdW  Elec       q    Type
REMARK                         _______ _______ _______ _____ _____    ______ ____
ROOT
ATOM      1  N   UNL     1       3.394   3.868  16.781  0.00  0.00    +0.000 N 
ATOM      2  C   UNL     1       2.924   4.635  17.827  0.00  0.00    +0.000 A 
ATOM      3  N   UNL     1       2.699   5.909  17.654  0.00  0.00    +0.000 NA
ATOM      4  C   UNL     1       2.230   6.703  18.714  0.00  0.00    +0.000 A 
ATOM      5  C   UNL     1       1.968   8.053  18.482  0.00  0.00    +0.000 A 
ATOM      6  C   UNL     1       1.422   8.867  19.488  0.00  0.00    +0.000 A 
ATOM      7  C   UNL     1       1.102   8.291  20.732  0.00  0.00    +0.000 A 
ATOM      8  C   UNL     1       1.445   6.968  21.013  0.00  0.00    +0.000 A 
ATOM      9  C   UNL     1       2.041   6.206  20.008  0.00  0.00    +0.000 A 
ATOM     10  N   UNL     1       2.456   4.884  20.203  0.00  0.00    +0.000 N 
ATOM     11  C   UNL     1       2.779   4.224  21.362  0.00  0.00    +0.000 A 
ATOM     12  C   UNL     1       2.959   2.894  21.043  0.00  0.00    +0.000 A 
ATOM     13  C   UNL     1       2.826   2.776  19.637  0.00  0.00    +0.000 A 
ATOM     14  C   UNL     1       2.746   4.066  19.141  0.00  0.00    +0.000 A 
ATOM     15  H   UNL     1       3.356   2.871  16.951  0.00  0.00    +0.000 HD
ENDROOT
BRANCH   1  19
ATOM     16  C   UNL     1       7.057   4.960  14.954  0.00  0.00    +0.000 A 
ATOM     17  C   UNL     1       6.061   4.323  14.199  0.00  0.00    +0.000 A 
ATOM     18  C   UNL     1       4.856   3.939  14.788  0.00  0.00    +0.000 A 
ATOM     19  C   UNL     1       4.626   4.163  16.147  0.00  0.00    +0.000 A 
ATOM     20  C   UNL     1       5.651   4.721  16.909  0.00  0.00    +0.000 A 
ATOM     21  C   UNL     1       6.868   5.111  16.336  0.00  0.00    +0.000 A 
BRANCH  16  23
ATOM     22  C   UNL     1       8.201   5.506  12.950  0.00  0.00    +0.000 C 
ATOM     23  O   UNL     1       8.216   5.399  14.373  0.00  0.00    +0.000 OA
ENDBRANCH  16  23
BRANCH  21  24
ATOM     24  O   UNL     1       7.719   5.631  17.275  0.00  0.00    +0.000 OA
ATOM     25  C   UNL     1       7.458   6.920  17.798  0.00  0.00    +0.000 C 
ENDBRANCH  21  24
ENDBRANCH   1  19
BRANCH   6  26
ATOM     26  C   UNL     1       1.176  10.331  19.237  0.00  0.00    +0.000 C 
ATOM     27  F   UNL     1       1.974  10.869  18.280  0.00  0.00    +0.000 F 
ATOM     28  F   UNL     1      -0.106  10.588  18.852  0.00  0.00    +0.000 F 
ATOM     29  F   UNL     1       1.382  11.084  20.358  0.00  0.00    +0.000 F 
ENDBRANCH   6  26
TORSDOF 4
ENDMDL
MODEL 6
REMARK VINA RESULT:      -7.9      0.825      1.876
REMARK  Name = 
REMARK  6 active torsions:
REMARK  status: ('A' for Active; 'I' for Inactive)
REMARK    1  A    between atoms: C_1  and  O_2
REMARK    2  A    between atoms: O_2  and  C_3
REMARK    3  A    between atoms: C_6  and  N_7
REMARK    4  A    between atoms: C_12  and  C_13
REMARK    5  A    between atoms: C_26  and  O_27
REMARK    6  A    between atoms: O_27  and  C_28
REMARK                            x       y       z     vdW  Elec       q    Type
REMARK                         _______ _______ _______ _____ _____    ______ ____
ROOT
ATOM      1  N   UNL     1       1.978   6.654  21.156  0.00  0.00    +0.000 N 
ATOM      2  C   UNL     1       2.448   5.836  20.149  0.00  0.00    +0.000 A 
ATOM      3  N   UNL     1       3.447   6.223  19.405  0.00  0.00    +0.000 NA
ATOM      4  C   UNL     1       3.928   5.403  18.370  0.00  0.00    +0.000 A 
ATOM      5  C   UNL     1       5.020   5.836  17.619  0.00  0.00    +0.000 A 
ATOM      6  C   UNL     1       5.587   5.016  16.628  0.00  0.00    +0.000 A 
ATOM      7  C   UNL     1       5.061   3.726  16.429  0.00  0.00    +0.000 A 
ATOM      8  C   UNL     1       3.911   3.313  17.104  0.00  0.00    +0.000 A 
ATOM      9  C   UNL     1       3.340   4.178  18.037  0.00  0.00    +0.000 A 
ATOM     10  N   UNL     1       2.167   3.873  18.737  0.00  0.00    +0.000 N 
ATOM     11  C   UNL     1       1.154   3.003  18.420  0.00  0.00    +0.000 A 
ATOM     12  C   UNL     1       0.312   2.936  19.511  0.00  0.00    +0.000 A 
ATOM     13  C   UNL     1       0.791   3.862  20.471  0.00  0.00    +0.000 A 
ATOM     14  C   UNL     1       1.801   4.581  19.854  0.00  0.00    +0.000 A 
ATOM     15  H   UNL     1       1.338   6.198  21.794  0.00  0.00    +0.000 HD
ENDROOT
BRANCH   1  19
ATOM     16  C   UNL     1       0.645  10.555  20.177  0.00  0.00    +0.000 A 
ATOM     17  C   UNL     1       0.888  10.215  21.515  0.00  0.00    +0.000 A 
ATOM     18  C   UNL     1       1.310   8.930  21.859  0.00  0.00    +0.000 A 
ATOM     19  C   UNL     1       1.477   7.950  20.878  0.00  0.00    +0.000 A 
ATOM     20  C   UNL     1       1.154   8.271  19.559  0.00  0.00    +0.000 A 
ATOM     21  C   UNL     1       0.728   9.555  19.196  0.00  0.00    +0.000 A 
BRANCH  16  23
ATOM     22  C   UNL     1      -0.994  12.267  20.250  0.00  0.00    +0.000 C 
ATOM     23  O   UNL     1       0.295  11.830  19.821  0.00  0.00    +0.000 OA
ENDBRANCH  16  23
BRANCH  21  24
ATOM     24  O   UNL     1       0.469   9.635  17.854  0.00  0.00    +0.000 OA
ATOM     25  C   UNL     1      -0.874   9.747  17.420  0.00  0.00    +0.000 C 
ENDBRANCH  21  24
ENDBRANCH   1  19
BRANCH   6  26
ATOM     26  C   UNL     1       6.744   5.506  15.799  0.00  0.00    +0.000 C 
ATOM     27  F   UNL     1       7.629   4.535  15.457  0.00  0.00    +0.000 F 
ATOM     28  F   UNL     1       6.343   6.084  14.632  0.00  0.00    +0.000 F 
ATOM     29  F   UNL     1       7.473   6.459  16.452  0.00  0.00    +0.000 F 
ENDBRANCH   6  26
TORSDOF 4
ENDMDL
MODEL 7
REMARK VINA RESULT:      -7.5      5.985      9.675
REMARK  Name = 
REMARK  6 active torsions:
REMARK  status: ('A' for Active; 'I' for Inactive)
REMARK    1  A    between atoms: C_1  and  O_2
REMARK    2  A    between atoms: O_2  and  C_3
REMARK    3  A    between atoms: C_6  and  N_7
REMARK    4  A    between atoms: C_12  and  C_13
REMARK    5  A    between atoms: C_26  and  O_27
REMARK    6  A    between atoms: O_27  and  C_28
REMARK                            x       y       z     vdW  Elec       q    Type
REMARK                         _______ _______ _______ _____ _____    ______ ____
ROOT
ATOM      1  N   UNL     1       0.174  10.958  17.995  0.00  0.00    +0.000 N 
ATOM      2  C   UNL     1      -1.024  11.384  18.531  0.00  0.00    +0.000 A 
ATOM      3  N   UNL     1      -1.107  11.669  19.801  0.00  0.00    +0.000 NA
ATOM      4  C   UNL     1      -2.325  12.094  20.360  0.00  0.00    +0.000 A 
ATOM      5  C   UNL     1      -2.366  12.424  21.715  0.00  0.00    +0.000 A 
ATOM      6  C   UNL     1      -3.539  12.931  22.300  0.00  0.00    +0.000 A 
ATOM      7  C   UNL     1      -4.669  13.141  21.488  0.00  0.00    +0.000 A 
ATOM      8  C   UNL     1      -4.675  12.729  20.154  0.00  0.00    +0.000 A 
ATOM      9  C   UNL     1      -3.511  12.174  19.624  0.00  0.00    +0.000 A 
ATOM     10  N   UNL     1      -3.428  11.696  18.311  0.00  0.00    +0.000 N 
ATOM     11  C   UNL     1      -4.421  11.268  17.466  0.00  0.00    +0.000 A 
ATOM     12  C   UNL     1      -3.848  11.059  16.229  0.00  0.00    +0.000 A 
ATOM     13  C   UNL     1      -2.455  11.284  16.366  0.00  0.00    +0.000 A 
ATOM     14  C   UNL     1      -2.215  11.448  17.720  0.00  0.00    +0.000 A 
ATOM     15  H   UNL     1       0.192  10.945  16.983  0.00  0.00    +0.000 HD
ENDROOT
BRANCH   1  19
ATOM     16  C   UNL     1       2.205   7.577  19.543  0.00  0.00    +0.000 A 
ATOM     17  C   UNL     1       2.201   7.818  18.161  0.00  0.00    +0.000 A 
ATOM     18  C   UNL     1       1.521   8.916  17.631  0.00  0.00    +0.000 A 
ATOM     19  C   UNL     1       0.815   9.785  18.465  0.00  0.00    +0.000 A 
ATOM     20  C   UNL     1       0.755   9.493  19.828  0.00  0.00    +0.000 A 
ATOM     21  C   UNL     1       1.429   8.395  20.377  0.00  0.00    +0.000 A 
BRANCH  16  23
ATOM     22  C   UNL     1       3.574   5.682  19.146  0.00  0.00    +0.000 C 
ATOM     23  O   UNL     1       2.922   6.542  20.080  0.00  0.00    +0.000 OA
ENDBRANCH  16  23
BRANCH  21  24
ATOM     24  O   UNL     1       1.226   8.309  21.729  0.00  0.00    +0.000 OA
ATOM     25  C   UNL     1       0.353   9.233  22.352  0.00  0.00    +0.000 C 
ENDBRANCH  21  24
ENDBRANCH   1  19
BRANCH   6  26
ATOM     26  C   UNL     1      -3.583  13.251  23.770  0.00  0.00    +0.000 C 
ATOM     27  F   UNL     1      -4.515  14.180  24.105  0.00  0.00    +0.000 F 
ATOM     28  F   UNL     1      -3.846  12.155  24.537  0.00  0.00    +0.000 F 
ATOM     29  F   UNL     1      -2.391  13.741  24.223  0.00  0.00    +0.000 F 
ENDBRANCH   6  26
TORSDOF 4
ENDMDL
MODEL 8
REMARK VINA RESULT:      -7.3      5.795      9.513
REMARK  Name = 
REMARK  6 active torsions:
REMARK  status: ('A' for Active; 'I' for Inactive)
REMARK    1  A    between atoms: C_1  and  O_2
REMARK    2  A    between atoms: O_2  and  C_3
REMARK    3  A    between atoms: C_6  and  N_7
REMARK    4  A    between atoms: C_12  and  C_13
REMARK    5  A    between atoms: C_26  and  O_27
REMARK    6  A    between atoms: O_27  and  C_28
REMARK                            x       y       z     vdW  Elec       q    Type
REMARK                         _______ _______ _______ _____ _____    ______ ____
ROOT
ATOM      1  N   UNL     1       0.684  10.189  18.000  0.00  0.00    +0.000 N 
ATOM      2  C   UNL     1      -0.423  10.815  18.536  0.00  0.00    +0.000 A 
ATOM      3  N   UNL     1      -0.356  11.360  19.720  0.00  0.00    +0.000 NA
ATOM      4  C   UNL     1      -1.480  11.990  20.281  0.00  0.00    +0.000 A 
ATOM      5  C   UNL     1      -1.360  12.591  21.533  0.00  0.00    +0.000 A 
ATOM      6  C   UNL     1      -2.432  13.304  22.099  0.00  0.00    +0.000 A 
ATOM      7  C   UNL     1      -3.624  13.439  21.363  0.00  0.00    +0.000 A 
ATOM      8  C   UNL     1      -3.793  12.765  20.152  0.00  0.00    +0.000 A 
ATOM      9  C   UNL     1      -2.728  12.018  19.651  0.00  0.00    +0.000 A 
ATOM     10  N   UNL     1      -2.812  11.277  18.466  0.00  0.00    +0.000 N 
ATOM     11  C   UNL     1      -3.911  10.770  17.820  0.00  0.00    +0.000 A 
ATOM     12  C   UNL     1      -3.483  10.266  16.610  0.00  0.00    +0.000 A 
ATOM     13  C   UNL     1      -2.071  10.397  16.575  0.00  0.00    +0.000 A 
ATOM     14  C   UNL     1      -1.684  10.812  17.837  0.00  0.00    +0.000 A 
ATOM     15  H   UNL     1       0.598   9.969  17.016  0.00  0.00    +0.000 HD
ENDROOT
BRANCH   1  19
ATOM     16  C   UNL     1       2.413   6.761  19.792  0.00  0.00    +0.000 A 
ATOM     17  C   UNL     1       1.667   7.656  20.571  0.00  0.00    +0.000 A 
ATOM     18  C   UNL     1       1.105   8.800  20.003  0.00  0.00    +0.000 A 
ATOM     19  C   UNL     1       1.294   9.087  18.650  0.00  0.00    +0.000 A 
ATOM     20  C   UNL     1       2.106   8.237  17.899  0.00  0.00    +0.000 A 
ATOM     21  C   UNL     1       2.678   7.086  18.452  0.00  0.00    +0.000 A 
BRANCH  16  23
ATOM     22  C   UNL     1       1.955   4.713  20.895  0.00  0.00    +0.000 C 
ATOM     23  O   UNL     1       2.913   5.602  20.323  0.00  0.00    +0.000 OA
ENDBRANCH  16  23
BRANCH  21  24
ATOM     24  O   UNL     1       3.432   6.409  17.531  0.00  0.00    +0.000 OA
ATOM     25  C   UNL     1       4.648   6.982  17.086  0.00  0.00    +0.000 C 
ENDBRANCH  21  24
ENDBRANCH   1  19
BRANCH   6  26
ATOM     26  C   UNL     1      -2.304  13.920  23.466  0.00  0.00    +0.000 C 
ATOM     27  F   UNL     1      -1.068  13.797  24.014  0.00  0.00    +0.000 F 
ATOM     28  F   UNL     1      -2.591  15.252  23.470  0.00  0.00    +0.000 F 
ATOM     29  F   UNL     1      -3.164  13.354  24.364  0.00  0.00    +0.000 F 
ENDBRANCH   6  26
TORSDOF 4
ENDMDL
