MODEL 1
REMARK VINA RESULT:      -7.7      0.000      0.000
REMARK  Name = 
REMARK  3 active torsions:
REMARK  status: ('A' for Active; 'I' for Inactive)
REMARK    1  A    between atoms: C_1  and  C_2
REMARK    2  A    between atoms: C_10  and  C_11
REMARK    3  A    between atoms: C_14  and  C_15
REMARK                            x       y       z     vdW  Elec       q    Type
REMARK                         _______ _______ _______ _____ _____    ______ ____
ROOT
ATOM      1  C   UNL     1       2.853   6.660  18.283  0.00  0.00    +0.000 A 
ATOM      2  N   UNL     1       2.995   7.770  17.544  0.00  0.00    +0.000 NA
ATOM      3  O   UNL     1       2.340   8.743  18.307  0.00  0.00    +0.000 OA
ATOM      4  C   UNL     1       1.871   8.113  19.425  0.00  0.00    +0.000 A 
ATOM      5  N   UNL     1       2.143   6.828  19.446  0.00  0.00    +0.000 NA
ENDROOT
BRANCH   1  15
ATOM      6  C   UNL     1       6.142   6.347  17.876  0.00  0.00    +0.000 C 
ATOM      7  C   UNL     1       5.715   5.317  18.893  0.00  0.00    +0.000 C 
ATOM      8  O   UNL     1       6.531   4.911  19.722  0.00  0.00    +0.000 OA
ATOM      9  N   UNL     1       4.397   4.867  18.858  0.00  0.00    +0.000 N 
ATOM     10  C   UNL     1       3.945   4.015  19.958  0.00  0.00    +0.000 C 
ATOM     11  C   UNL     1       3.949   2.539  19.576  0.00  0.00    +0.000 C 
ATOM     12  C   UNL     1       2.761   2.128  18.710  0.00  0.00    +0.000 C 
ATOM     13  C   UNL     1       2.638   2.897  17.396  0.00  0.00    +0.000 C 
ATOM     14  C   UNL     1       2.231   4.354  17.603  0.00  0.00    +0.000 C 
ATOM     15  C   UNL     1       3.401   5.322  17.863  0.00  0.00    +0.000 C 
ENDBRANCH   1  15
BRANCH   4  16
ATOM     16  C   UNL     1       1.178   8.916  20.422  0.00  0.00    +0.000 A 
ATOM     17  C   UNL     1       1.139   8.560  21.778  0.00  0.00    +0.000 A 
ATOM     18  C   UNL     1       0.436   9.343  22.696  0.00  0.00    +0.000 A 
ATOM     19  C   UNL     1      -0.232  10.490  22.272  0.00  0.00    +0.000 A 
ATOM     20  C   UNL     1      -0.195  10.862  20.930  0.00  0.00    +0.000 A 
ATOM     21  C   UNL     1       0.507  10.079  20.013  0.00  0.00    +0.000 A 
ENDBRANCH   4  16
TORSDOF 2
ENDMDL
MODEL 2
REMARK VINA RESULT:      -7.7      0.053      1.054
REMARK  Name = 
REMARK  3 active torsions:
REMARK  status: ('A' for Active; 'I' for Inactive)
REMARK    1  A    between atoms: C_1  and  C_2
REMARK    2  A    between atoms: C_10  and  C_11
REMARK    3  A    between atoms: C_14  and  C_15
REMARK                            x       y       z     vdW  Elec       q    Type
REMARK                         _______ _______ _______ _____ _____    ______ ____
ROOT
ATOM      1  C   UNL     1       2.852   6.672  18.294  0.00  0.00    +0.000 A 
ATOM      2  N   UNL     1       3.034   7.783  17.566  0.00  0.00    +0.000 NA
ATOM      3  O   UNL     1       2.361   8.760  18.308  0.00  0.00    +0.000 OA
ATOM      4  C   UNL     1       1.843   8.131  19.406  0.00  0.00    +0.000 A 
ATOM      5  N   UNL     1       2.100   6.844  19.431  0.00  0.00    +0.000 NA
ENDROOT
BRANCH   1  15
ATOM      6  C   UNL     1       6.139   6.362  17.873  0.00  0.00    +0.000 C 
ATOM      7  C   UNL     1       5.721   5.344  18.906  0.00  0.00    +0.000 C 
ATOM      8  O   UNL     1       6.543   4.952  19.736  0.00  0.00    +0.000 OA
ATOM      9  N   UNL     1       4.403   4.890  18.885  0.00  0.00    +0.000 N 
ATOM     10  C   UNL     1       3.960   4.053  20.000  0.00  0.00    +0.000 C 
ATOM     11  C   UNL     1       3.965   2.572  19.638  0.00  0.00    +0.000 C 
ATOM     12  C   UNL     1       2.773   2.146  18.785  0.00  0.00    +0.000 C 
ATOM     13  C   UNL     1       2.640   2.897  17.461  0.00  0.00    +0.000 C 
ATOM     14  C   UNL     1       2.231   4.356  17.650  0.00  0.00    +0.000 C 
ATOM     15  C   UNL     1       3.401   5.330  17.890  0.00  0.00    +0.000 C 
ENDBRANCH   1  15
BRANCH   4  16
ATOM     16  C   UNL     1       1.123   8.939  20.378  0.00  0.00    +0.000 A 
ATOM     17  C   UNL     1       0.438  10.109  20.022  0.00  0.00    +0.000 A 
ATOM     18  C   UNL     1      -0.214  10.872  20.994  0.00  0.00    +0.000 A 
ATOM     19  C   UNL     1      -0.192  10.474  22.329  0.00  0.00    +0.000 A 
ATOM     20  C   UNL     1       0.476   9.309  22.697  0.00  0.00    +0.000 A 
ATOM     21  C   UNL     1       1.128   8.548  21.727  0.00  0.00    +0.000 A 
ENDBRANCH   4  16
TORSDOF 2
ENDMDL
MODEL 3
REMARK VINA RESULT:      -7.7      1.905      3.039
REMARK  Name = 
REMARK  3 active torsions:
REMARK  status: ('A' for Active; 'I' for Inactive)
REMARK    1  A    between atoms: C_1  and  C_2
REMARK    2  A    between atoms: C_10  and  C_11
REMARK    3  A    between atoms: C_14  and  C_15
REMARK                            x       y       z     vdW  Elec       q    Type
REMARK                         _______ _______ _______ _____ _____    ______ ____
ROOT
ATOM      1  C   UNL     1       2.499   6.796  19.629  0.00  0.00    +0.000 A 
ATOM      2  N   UNL     1       2.381   7.595  18.558  0.00  0.00    +0.000 NA
ATOM      3  O   UNL     1       1.611   8.659  19.041  0.00  0.00    +0.000 OA
ATOM      4  C   UNL     1       1.345   8.385  20.354  0.00  0.00    +0.000 A 
ATOM      5  N   UNL     1       1.852   7.242  20.755  0.00  0.00    +0.000 NA
ENDROOT
BRANCH   1  15
ATOM      6  C   UNL     1       0.862   3.987  20.346  0.00  0.00    +0.000 C 
ATOM      7  C   UNL     1       1.465   3.819  18.972  0.00  0.00    +0.000 C 
ATOM      8  O   UNL     1       0.942   3.039  18.174  0.00  0.00    +0.000 OA
ATOM      9  N   UNL     1       2.597   4.567  18.655  0.00  0.00    +0.000 N 
ATOM     10  C   UNL     1       3.058   4.538  17.267  0.00  0.00    +0.000 C 
ATOM     11  C   UNL     1       4.231   3.582  17.076  0.00  0.00    +0.000 C 
ATOM     12  C   UNL     1       5.565   4.146  17.555  0.00  0.00    +0.000 C 
ATOM     13  C   UNL     1       5.592   4.546  19.028  0.00  0.00    +0.000 C 
ATOM     14  C   UNL     1       4.744   5.783  19.319  0.00  0.00    +0.000 C 
ATOM     15  C   UNL     1       3.256   5.496  19.599  0.00  0.00    +0.000 C 
ENDBRANCH   1  15
BRANCH   4  16
ATOM     16  C   UNL     1       0.586   9.365  21.115  0.00  0.00    +0.000 A 
ATOM     17  C   UNL     1       0.384  10.677  20.660  0.00  0.00    +0.000 A 
ATOM     18  C   UNL     1      -0.324  11.596  21.438  0.00  0.00    +0.000 A 
ATOM     19  C   UNL     1      -0.841  11.215  22.675  0.00  0.00    +0.000 A 
ATOM     20  C   UNL     1      -0.656   9.915  23.136  0.00  0.00    +0.000 A 
ATOM     21  C   UNL     1       0.052   8.997  22.360  0.00  0.00    +0.000 A 
ENDBRANCH   4  16
TORSDOF 2
ENDMDL
MODEL 4
REMARK VINA RESULT:      -7.6      1.906      2.874
REMARK  Name = 
REMARK  3 active torsions:
REMARK  status: ('A' for Active; 'I' for Inactive)
REMARK    1  A    between atoms: C_1  and  C_2
REMARK    2  A    between atoms: C_10  and  C_11
REMARK    3  A    between atoms: C_14  and  C_15
REMARK                            x       y       z     vdW  Elec       q    Type
REMARK                         _______ _______ _______ _____ _____    ______ ____
ROOT
ATOM      1  C   UNL     1       2.516   6.763  19.661  0.00  0.00    +0.000 A 
ATOM      2  N   UNL     1       2.383   7.570  18.598  0.00  0.00    +0.000 NA
ATOM      3  O   UNL     1       1.626   8.634  19.103  0.00  0.00    +0.000 OA
ATOM      4  C   UNL     1       1.382   8.351  20.417  0.00  0.00    +0.000 A 
ATOM      5  N   UNL     1       1.891   7.203  20.801  0.00  0.00    +0.000 NA
ENDROOT
BRANCH   1  15
ATOM      6  C   UNL     1       0.870   3.951  20.345  0.00  0.00    +0.000 C 
ATOM      7  C   UNL     1       1.465   3.800  18.966  0.00  0.00    +0.000 C 
ATOM      8  O   UNL     1       0.935   3.034  18.159  0.00  0.00    +0.000 OA
ATOM      9  N   UNL     1       2.600   4.548  18.654  0.00  0.00    +0.000 N 
ATOM     10  C   UNL     1       3.054   4.537  17.263  0.00  0.00    +0.000 C 
ATOM     11  C   UNL     1       4.221   3.579  17.052  0.00  0.00    +0.000 C 
ATOM     12  C   UNL     1       5.560   4.130  17.533  0.00  0.00    +0.000 C 
ATOM     13  C   UNL     1       5.596   4.508  19.012  0.00  0.00    +0.000 C 
ATOM     14  C   UNL     1       4.755   5.744  19.325  0.00  0.00    +0.000 C 
ATOM     15  C   UNL     1       3.267   5.460  19.608  0.00  0.00    +0.000 C 
ENDBRANCH   1  15
BRANCH   4  16
ATOM     16  C   UNL     1       0.640   9.329  21.199  0.00  0.00    +0.000 A 
ATOM     17  C   UNL     1       0.030   9.006  22.420  0.00  0.00    +0.000 A 
ATOM     18  C   UNL     1      -0.700   9.968  23.123  0.00  0.00    +0.000 A 
ATOM     19  C   UNL     1      -0.826  11.260  22.617  0.00  0.00    +0.000 A 
ATOM     20  C   UNL     1      -0.219  11.598  21.411  0.00  0.00    +0.000 A 
ATOM     21  C   UNL     1       0.509  10.637  20.708  0.00  0.00    +0.000 A 
ENDBRANCH   4  16
TORSDOF 2
ENDMDL
MODEL 5
REMARK VINA RESULT:      -7.6      3.245      7.218
REMARK  Name = 
REMARK  3 active torsions:
REMARK  status: ('A' for Active; 'I' for Inactive)
REMARK    1  A    between atoms: C_1  and  C_2
REMARK    2  A    between atoms: C_10  and  C_11
REMARK    3  A    between atoms: C_14  and  C_15
REMARK                            x       y       z     vdW  Elec       q    Type
REMARK                         _______ _______ _______ _____ _____    ______ ____
ROOT
ATOM      1  C   UNL     1       5.271   4.329  17.852  0.00  0.00    +0.000 A 
ATOM      2  N   UNL     1       6.582   4.418  18.122  0.00  0.00    +0.000 NA
ATOM      3  O   UNL     1       7.168   4.404  16.851  0.00  0.00    +0.000 OA
ATOM      4  C   UNL     1       6.145   4.306  15.950  0.00  0.00    +0.000 A 
ATOM      5  N   UNL     1       4.963   4.237  16.516  0.00  0.00    +0.000 NA
ENDROOT
BRANCH   1  15
ATOM      6  C   UNL     1       3.544   7.112  18.448  0.00  0.00    +0.000 C 
ATOM      7  C   UNL     1       2.549   6.029  18.110  0.00  0.00    +0.000 C 
ATOM      8  O   UNL     1       1.454   6.340  17.638  0.00  0.00    +0.000 OA
ATOM      9  N   UNL     1       2.916   4.704  18.341  0.00  0.00    +0.000 N 
ATOM     10  C   UNL     1       2.024   3.659  17.838  0.00  0.00    +0.000 C 
ATOM     11  C   UNL     1       1.130   3.095  18.937  0.00  0.00    +0.000 C 
ATOM     12  C   UNL     1       1.841   2.108  19.859  0.00  0.00    +0.000 C 
ATOM     13  C   UNL     1       3.067   2.676  20.571  0.00  0.00    +0.000 C 
ATOM     14  C   UNL     1       4.235   2.930  19.622  0.00  0.00    +0.000 C 
ATOM     15  C   UNL     1       4.215   4.304  18.924  0.00  0.00    +0.000 C 
ENDBRANCH   1  15
BRANCH   4  16
ATOM     16  C   UNL     1       6.480   4.316  14.534  0.00  0.00    +0.000 A 
ATOM     17  C   UNL     1       5.842   3.479  13.606  0.00  0.00    +0.000 A 
ATOM     18  C   UNL     1       6.217   3.498  12.260  0.00  0.00    +0.000 A 
ATOM     19  C   UNL     1       7.229   4.352  11.827  0.00  0.00    +0.000 A 
ATOM     20  C   UNL     1       7.866   5.194  12.734  0.00  0.00    +0.000 A 
ATOM     21  C   UNL     1       7.492   5.175  14.078  0.00  0.00    +0.000 A 
ENDBRANCH   4  16
TORSDOF 2
ENDMDL
MODEL 6
REMARK VINA RESULT:      -7.6      3.230      7.225
REMARK  Name = 
REMARK  3 active torsions:
REMARK  status: ('A' for Active; 'I' for Inactive)
REMARK    1  A    between atoms: C_1  and  C_2
REMARK    2  A    between atoms: C_10  and  C_11
REMARK    3  A    between atoms: C_14  and  C_15
REMARK                            x       y       z     vdW  Elec       q    Type
REMARK                         _______ _______ _______ _____ _____    ______ ____
ROOT
ATOM      1  C   UNL     1       5.296   4.331  17.882  0.00  0.00    +0.000 A 
ATOM      2  N   UNL     1       6.599   4.447  18.180  0.00  0.00    +0.000 NA
ATOM      3  O   UNL     1       7.212   4.442  16.921  0.00  0.00    +0.000 OA
ATOM      4  C   UNL     1       6.210   4.321  15.999  0.00  0.00    +0.000 A 
ATOM      5  N   UNL     1       5.018   4.229  16.541  0.00  0.00    +0.000 NA
ENDROOT
BRANCH   1  15
ATOM      6  C   UNL     1       3.480   7.070  18.413  0.00  0.00    +0.000 C 
ATOM      7  C   UNL     1       2.523   5.956  18.066  0.00  0.00    +0.000 C 
ATOM      8  O   UNL     1       1.430   6.232  17.568  0.00  0.00    +0.000 OA
ATOM      9  N   UNL     1       2.921   4.645  18.318  0.00  0.00    +0.000 N 
ATOM     10  C   UNL     1       2.070   3.570  17.808  0.00  0.00    +0.000 C 
ATOM     11  C   UNL     1       1.169   2.992  18.893  0.00  0.00    +0.000 C 
ATOM     12  C   UNL     1       1.888   2.034  19.840  0.00  0.00    +0.000 C 
ATOM     13  C   UNL     1       3.081   2.644  20.572  0.00  0.00    +0.000 C 
ATOM     14  C   UNL     1       4.262   2.921  19.645  0.00  0.00    +0.000 C 
ATOM     15  C   UNL     1       4.219   4.287  18.932  0.00  0.00    +0.000 C 
ENDBRANCH   1  15
BRANCH   4  16
ATOM     16  C   UNL     1       6.575   4.334  14.591  0.00  0.00    +0.000 A 
ATOM     17  C   UNL     1       7.561   5.190  14.079  0.00  0.00    +0.000 A 
ATOM     18  C   UNL     1       7.858   5.192  12.713  0.00  0.00    +0.000 A 
ATOM     19  C   UNL     1       7.177   4.340  11.847  0.00  0.00    +0.000 A 
ATOM     20  C   UNL     1       6.202   3.478  12.342  0.00  0.00    +0.000 A 
ATOM     21  C   UNL     1       5.904   3.476  13.705  0.00  0.00    +0.000 A 
ENDBRANCH   4  16
TORSDOF 2
ENDMDL
MODEL 7
REMARK VINA RESULT:      -7.3      1.505      2.088
REMARK  Name = 
REMARK  3 active torsions:
REMARK  status: ('A' for Active; 'I' for Inactive)
REMARK    1  A    between atoms: C_1  and  C_2
REMARK    2  A    between atoms: C_10  and  C_11
REMARK    3  A    between atoms: C_14  and  C_15
REMARK                            x       y       z     vdW  Elec       q    Type
REMARK                         _______ _______ _______ _____ _____    ______ ____
ROOT
ATOM      1  C   UNL     1       2.534   6.612  18.621  0.00  0.00    +0.000 A 
ATOM      2  N   UNL     1       2.292   6.670  19.939  0.00  0.00    +0.000 NA
ATOM      3  O   UNL     1       1.821   7.976  20.116  0.00  0.00    +0.000 OA
ATOM      4  C   UNL     1       1.832   8.567  18.883  0.00  0.00    +0.000 A 
ATOM      5  N   UNL     1       2.281   7.775  17.936  0.00  0.00    +0.000 NA
ENDROOT
BRANCH   1  15
ATOM      6  C   UNL     1       5.728   6.574  17.680  0.00  0.00    +0.000 C 
ATOM      7  C   UNL     1       5.515   5.395  18.598  0.00  0.00    +0.000 C 
ATOM      8  O   UNL     1       6.471   4.941  19.229  0.00  0.00    +0.000 OA
ATOM      9  N   UNL     1       4.230   4.866  18.702  0.00  0.00    +0.000 N 
ATOM     10  C   UNL     1       3.998   3.852  19.730  0.00  0.00    +0.000 C 
ATOM     11  C   UNL     1       4.008   2.441  19.151  0.00  0.00    +0.000 C 
ATOM     12  C   UNL     1       2.717   2.067  18.427  0.00  0.00    +0.000 C 
ATOM     13  C   UNL     1       2.352   2.990  17.266  0.00  0.00    +0.000 C 
ATOM     14  C   UNL     1       1.917   4.378  17.732  0.00  0.00    +0.000 C 
ATOM     15  C   UNL     1       3.069   5.380  17.942  0.00  0.00    +0.000 C 
ENDBRANCH   1  15
BRANCH   4  16
ATOM     16  C   UNL     1       1.343   9.933  18.776  0.00  0.00    +0.000 A 
ATOM     17  C   UNL     1       2.161  10.993  18.359  0.00  0.00    +0.000 A 
ATOM     18  C   UNL     1       1.659  12.295  18.302  0.00  0.00    +0.000 A 
ATOM     19  C   UNL     1       0.336  12.552  18.656  0.00  0.00    +0.000 A 
ATOM     20  C   UNL     1      -0.491  11.509  19.063  0.00  0.00    +0.000 A 
ATOM     21  C   UNL     1       0.010  10.208  19.122  0.00  0.00    +0.000 A 
ENDBRANCH   4  16
TORSDOF 2
ENDMDL
MODEL 8
REMARK VINA RESULT:      -7.2      1.487      2.045
REMARK  Name = 
REMARK  3 active torsions:
REMARK  status: ('A' for Active; 'I' for Inactive)
REMARK    1  A    between atoms: C_1  and  C_2
REMARK    2  A    between atoms: C_10  and  C_11
REMARK    3  A    between atoms: C_14  and  C_15
REMARK                            x       y       z     vdW  Elec       q    Type
REMARK                         _______ _______ _______ _____ _____    ______ ____
ROOT
ATOM      1  C   UNL     1       2.511   6.610  18.645  0.00  0.00    +0.000 A 
ATOM      2  N   UNL     1       2.286   6.654  19.966  0.00  0.00    +0.000 NA
ATOM      3  O   UNL     1       1.807   7.955  20.160  0.00  0.00    +0.000 OA
ATOM      4  C   UNL     1       1.797   8.556  18.933  0.00  0.00    +0.000 A 
ATOM      5  N   UNL     1       2.240   7.777  17.974  0.00  0.00    +0.000 NA
ENDROOT
BRANCH   1  15
ATOM      6  C   UNL     1       5.702   6.593  17.693  0.00  0.00    +0.000 C 
ATOM      7  C   UNL     1       5.495   5.401  18.596  0.00  0.00    +0.000 C 
ATOM      8  O   UNL     1       6.454   4.941  19.219  0.00  0.00    +0.000 OA
ATOM      9  N   UNL     1       4.212   4.868  18.697  0.00  0.00    +0.000 N 
ATOM     10  C   UNL     1       3.986   3.839  19.712  0.00  0.00    +0.000 C 
ATOM     11  C   UNL     1       3.998   2.436  19.115  0.00  0.00    +0.000 C 
ATOM     12  C   UNL     1       2.706   2.068  18.391  0.00  0.00    +0.000 C 
ATOM     13  C   UNL     1       2.334   3.005  17.243  0.00  0.00    +0.000 C 
ATOM     14  C   UNL     1       1.897   4.386  17.728  0.00  0.00    +0.000 C 
ATOM     15  C   UNL     1       3.047   5.388  17.948  0.00  0.00    +0.000 C 
ENDBRANCH   1  15
BRANCH   4  16
ATOM     16  C   UNL     1       1.295   9.919  18.845  0.00  0.00    +0.000 A 
ATOM     17  C   UNL     1      -0.024  10.256  19.181  0.00  0.00    +0.000 A 
ATOM     18  C   UNL     1      -0.475  11.572  19.051  0.00  0.00    +0.000 A 
ATOM     19  C   UNL     1       0.387  12.564  18.588  0.00  0.00    +0.000 A 
ATOM     20  C   UNL     1       1.701  12.247  18.259  0.00  0.00    +0.000 A 
ATOM     21  C   UNL     1       2.151  10.933  18.387  0.00  0.00    +0.000 A 
ENDBRANCH   4  16
TORSDOF 2
ENDMDL
MODEL 9
REMARK VINA RESULT:      -7.2      1.644      2.996
REMARK  Name = 
REMARK  3 active torsions:
REMARK  status: ('A' for Active; 'I' for Inactive)
REMARK    1  A    between atoms: C_1  and  C_2
REMARK    2  A    between atoms: C_10  and  C_11
REMARK    3  A    between atoms: C_14  and  C_15
REMARK                            x       y       z     vdW  Elec       q    Type
REMARK                         _______ _______ _______ _____ _____    ______ ____
ROOT
ATOM      1  C   UNL     1       3.090   6.635  19.059  0.00  0.00    +0.000 A 
ATOM      2  N   UNL     1       2.947   7.492  18.037  0.00  0.00    +0.000 NA
ATOM      3  O   UNL     1       2.084   8.463  18.558  0.00  0.00    +0.000 OA
ATOM      4  C   UNL     1       1.798   8.086  19.840  0.00  0.00    +0.000 A 
ATOM      5  N   UNL     1       2.376   6.959  20.187  0.00  0.00    +0.000 NA
ENDROOT
BRANCH   1  15
ATOM      6  C   UNL     1       1.581   3.669  18.983  0.00  0.00    +0.000 C 
ATOM      7  C   UNL     1       2.443   3.767  17.748  0.00  0.00    +0.000 C 
ATOM      8  O   UNL     1       2.144   3.110  16.749  0.00  0.00    +0.000 OA
ATOM      9  N   UNL     1       3.550   4.613  17.785  0.00  0.00    +0.000 N 
ATOM     10  C   UNL     1       4.265   4.844  16.529  0.00  0.00    +0.000 C 
ATOM     11  C   UNL     1       5.526   3.993  16.427  0.00  0.00    +0.000 C 
ATOM     12  C   UNL     1       6.696   4.532  17.245  0.00  0.00    +0.000 C 
ATOM     13  C   UNL     1       6.413   4.675  18.739  0.00  0.00    +0.000 C 
ATOM     14  C   UNL     1       5.428   5.801  19.046  0.00  0.00    +0.000 C 
ATOM     15  C   UNL     1       3.942   5.398  18.976  0.00  0.00    +0.000 C 
ENDBRANCH   1  15
BRANCH   4  16
ATOM     16  C   UNL     1       0.945   8.958  20.633  0.00  0.00    +0.000 A 
ATOM     17  C   UNL     1       0.214  10.011  20.065  0.00  0.00    +0.000 A 
ATOM     18  C   UNL     1      -0.569  10.844  20.869  0.00  0.00    +0.000 A 
ATOM     19  C   UNL     1      -0.632  10.633  22.244  0.00  0.00    +0.000 A 
ATOM     20  C   UNL     1       0.081   9.586  22.822  0.00  0.00    +0.000 A 
ATOM     21  C   UNL     1       0.863   8.754  22.020  0.00  0.00    +0.000 A 
ENDBRANCH   4  16
TORSDOF 2
ENDMDL
