MODEL 1
REMARK VINA RESULT:      -7.0      0.000      0.000
REMARK  Name = 
REMARK  7 active torsions:
REMARK  status: ('A' for Active; 'I' for Inactive)
REMARK    1  A    between atoms: C_1  and  C_2
REMARK    2  A    between atoms: C_2  and  C_3
REMARK    3  A    between atoms: C_2  and  C_4
REMARK    4  A    between atoms: C_4  and  C_5
REMARK    5  A    between atoms: C_5  and  O_6
REMARK    6  A    between atoms: O_6  and  C_7
REMARK    7  A    between atoms: C_12  and  C_13
REMARK                            x       y       z     vdW  Elec       q    Type
REMARK                         _______ _______ _______ _____ _____    ______ ____
ROOT
ATOM      1  C   UNL     1       3.328   4.465  17.426  0.00  0.00    +0.000 A 
ATOM      2  C   UNL     1       3.044   5.796  17.750  0.00  0.00    +0.000 A 
ATOM      3  C   UNL     1       4.061   6.747  17.733  0.00  0.00    +0.000 A 
ATOM      4  C   UNL     1       5.358   6.378  17.393  0.00  0.00    +0.000 A 
ATOM      5  F   UNL     1       6.291   7.342  17.412  0.00  0.00    +0.000 F 
ATOM      6  C   UNL     1       5.672   5.058  17.056  0.00  0.00    +0.000 A 
ATOM      7  C   UNL     1       4.640   4.111  17.077  0.00  0.00    +0.000 A 
ATOM      8  F   UNL     1       4.891   2.826  16.768  0.00  0.00    +0.000 F 
ENDROOT
BRANCH   6   9
ATOM      9  C   UNL     1       7.072   4.707  16.701  0.00  0.00    +0.000 C 
ATOM     10  N   UNL     1       7.913   4.315  17.702  0.00  0.00    +0.000 N 
ATOM     11  O   UNL     1       7.492   4.756  15.552  0.00  0.00    +0.000 OA
ATOM     12  H   UNL     1       7.638   4.256  18.675  0.00  0.00    +0.000 HD
ATOM     13  H   UNL     1       8.863   4.075  17.450  0.00  0.00    +0.000 HD
ENDBRANCH   6   9
BRANCH   1  14
ATOM     14  O   UNL     1       2.401   3.453  17.422  0.00  0.00    +0.000 OA
BRANCH  14  15
ATOM     15  C   UNL     1       2.316   2.700  18.634  0.00  0.00    +0.000 C 
BRANCH  15  16
ATOM     16  C   UNL     1       0.973   2.953  19.310  0.00  0.00    +0.000 C 
BRANCH  16  18
ATOM     17  C   UNL     1       2.167   2.730  21.515  0.00  0.00    +0.000 C 
ATOM     18  C   UNL     1       1.127   3.530  20.729  0.00  0.00    +0.000 C 
ATOM     19  C   UNL     1       1.527   5.009  20.718  0.00  0.00    +0.000 C 
ENDBRANCH  16  18
ENDBRANCH  15  16
ENDBRANCH  14  15
ENDBRANCH   1  14
TORSDOF 5
ENDMDL
MODEL 2
REMARK VINA RESULT:      -6.9      0.951      1.284
REMARK  Name = 
REMARK  7 active torsions:
REMARK  status: ('A' for Active; 'I' for Inactive)
REMARK    1  A    between atoms: C_1  and  C_2
REMARK    2  A    between atoms: C_2  and  C_3
REMARK    3  A    between atoms: C_2  and  C_4
REMARK    4  A    between atoms: C_4  and  C_5
REMARK    5  A    between atoms: C_5  and  O_6
REMARK    6  A    between atoms: O_6  and  C_7
REMARK    7  A    between atoms: C_12  and  C_13
REMARK                            x       y       z     vdW  Elec       q    Type
REMARK                         _______ _______ _______ _____ _____    ______ ____
ROOT
ATOM      1  C   UNL     1       3.457   4.462  17.215  0.00  0.00    +0.000 A 
ATOM      2  C   UNL     1       3.134   5.743  17.677  0.00  0.00    +0.000 A 
ATOM      3  C   UNL     1       4.105   6.740  17.694  0.00  0.00    +0.000 A 
ATOM      4  C   UNL     1       5.395   6.467  17.253  0.00  0.00    +0.000 A 
ATOM      5  F   UNL     1       6.284   7.470  17.311  0.00  0.00    +0.000 F 
ATOM      6  C   UNL     1       5.747   5.201  16.779  0.00  0.00    +0.000 A 
ATOM      7  C   UNL     1       4.761   4.206  16.766  0.00  0.00    +0.000 A 
ATOM      8  F   UNL     1       5.050   2.968  16.326  0.00  0.00    +0.000 F 
ENDROOT
BRANCH   6   9
ATOM      9  C   UNL     1       7.138   4.952  16.318  0.00  0.00    +0.000 C 
ATOM     10  N   UNL     1       7.489   5.370  15.067  0.00  0.00    +0.000 N 
ATOM     11  O   UNL     1       7.973   4.391  17.017  0.00  0.00    +0.000 OA
ATOM     12  H   UNL     1       6.851   5.835  14.432  0.00  0.00    +0.000 HD
ATOM     13  H   UNL     1       8.438   5.198  14.764  0.00  0.00    +0.000 HD
ENDBRANCH   6   9
BRANCH   1  14
ATOM     14  O   UNL     1       2.576   3.410  17.167  0.00  0.00    +0.000 OA
BRANCH  14  15
ATOM     15  C   UNL     1       1.583   3.400  18.195  0.00  0.00    +0.000 C 
BRANCH  15  16
ATOM     16  C   UNL     1       2.063   2.557  19.372  0.00  0.00    +0.000 C 
BRANCH  16  18
ATOM     17  C   UNL     1       1.246   4.621  20.560  0.00  0.00    +0.000 C 
ATOM     18  C   UNL     1       2.085   3.349  20.693  0.00  0.00    +0.000 C 
ATOM     19  C   UNL     1       1.574   2.525  21.877  0.00  0.00    +0.000 C 
ENDBRANCH  16  18
ENDBRANCH  15  16
ENDBRANCH  14  15
ENDBRANCH   1  14
TORSDOF 5
ENDMDL
MODEL 3
REMARK VINA RESULT:      -6.8      3.105      5.404
REMARK  Name = 
REMARK  7 active torsions:
REMARK  status: ('A' for Active; 'I' for Inactive)
REMARK    1  A    between atoms: C_1  and  C_2
REMARK    2  A    between atoms: C_2  and  C_3
REMARK    3  A    between atoms: C_2  and  C_4
REMARK    4  A    between atoms: C_4  and  C_5
REMARK    5  A    between atoms: C_5  and  O_6
REMARK    6  A    between atoms: O_6  and  C_7
REMARK    7  A    between atoms: C_12  and  C_13
REMARK                            x       y       z     vdW  Elec       q    Type
REMARK                         _______ _______ _______ _____ _____    ______ ____
ROOT
ATOM      1  C   UNL     1       4.062   4.557  18.121  0.00  0.00    +0.000 A 
ATOM      2  C   UNL     1       3.734   5.916  18.091  0.00  0.00    +0.000 A 
ATOM      3  C   UNL     1       2.847   6.437  19.029  0.00  0.00    +0.000 A 
ATOM      4  C   UNL     1       2.287   5.610  19.996  0.00  0.00    +0.000 A 
ATOM      5  F   UNL     1       1.429   6.176  20.859  0.00  0.00    +0.000 F 
ATOM      6  C   UNL     1       2.601   4.250  20.057  0.00  0.00    +0.000 A 
ATOM      7  C   UNL     1       3.494   3.738  19.109  0.00  0.00    +0.000 A 
ATOM      8  F   UNL     1       3.824   2.434  19.120  0.00  0.00    +0.000 F 
ENDROOT
BRANCH   6   9
ATOM      9  C   UNL     1       1.978   3.402  21.107  0.00  0.00    +0.000 C 
ATOM     10  N   UNL     1       0.721   2.916  20.884  0.00  0.00    +0.000 N 
ATOM     11  O   UNL     1       2.547   3.126  22.155  0.00  0.00    +0.000 OA
ATOM     12  H   UNL     1       0.188   3.107  20.044  0.00  0.00    +0.000 HD
ATOM     13  H   UNL     1       0.307   2.338  21.602  0.00  0.00    +0.000 HD
ENDBRANCH   6   9
BRANCH   1  14
ATOM     14  O   UNL     1       4.917   3.945  17.238  0.00  0.00    +0.000 OA
BRANCH  14  15
ATOM     15  C   UNL     1       5.854   4.814  16.597  0.00  0.00    +0.000 C 
BRANCH  15  16
ATOM     16  C   UNL     1       7.250   4.584  17.167  0.00  0.00    +0.000 C 
BRANCH  16  18
ATOM     17  C   UNL     1       7.246   7.080  17.492  0.00  0.00    +0.000 C 
ATOM     18  C   UNL     1       7.717   5.744  18.066  0.00  0.00    +0.000 C 
ATOM     19  C   UNL     1       7.216   5.605  19.507  0.00  0.00    +0.000 C 
ENDBRANCH  16  18
ENDBRANCH  15  16
ENDBRANCH  14  15
ENDBRANCH   1  14
TORSDOF 5
ENDMDL
MODEL 4
REMARK VINA RESULT:      -6.7      2.654      5.594
REMARK  Name = 
REMARK  7 active torsions:
REMARK  status: ('A' for Active; 'I' for Inactive)
REMARK    1  A    between atoms: C_1  and  C_2
REMARK    2  A    between atoms: C_2  and  C_3
REMARK    3  A    between atoms: C_2  and  C_4
REMARK    4  A    between atoms: C_4  and  C_5
REMARK    5  A    between atoms: C_5  and  O_6
REMARK    6  A    between atoms: O_6  and  C_7
REMARK    7  A    between atoms: C_12  and  C_13
REMARK                            x       y       z     vdW  Elec       q    Type
REMARK                         _______ _______ _______ _____ _____    ______ ____
ROOT
ATOM      1  C   UNL     1       2.789   5.916  18.388  0.00  0.00    +0.000 A 
ATOM      2  C   UNL     1       2.468   6.406  19.658  0.00  0.00    +0.000 A 
ATOM      3  C   UNL     1       1.810   5.588  20.572  0.00  0.00    +0.000 A 
ATOM      4  C   UNL     1       1.472   4.284  20.226  0.00  0.00    +0.000 A 
ATOM      5  F   UNL     1       0.826   3.557  21.150  0.00  0.00    +0.000 F 
ATOM      6  C   UNL     1       1.787   3.763  18.969  0.00  0.00    +0.000 A 
ATOM      7  C   UNL     1       2.449   4.595  18.058  0.00  0.00    +0.000 A 
ATOM      8  F   UNL     1       2.769   4.144  16.832  0.00  0.00    +0.000 F 
ENDROOT
BRANCH   6   9
ATOM      9  C   UNL     1       1.406   2.364  18.641  0.00  0.00    +0.000 C 
ATOM     10  N   UNL     1       2.395   1.426  18.563  0.00  0.00    +0.000 N 
ATOM     11  O   UNL     1       0.246   2.027  18.440  0.00  0.00    +0.000 OA
ATOM     12  H   UNL     1       3.375   1.632  18.711  0.00  0.00    +0.000 HD
ATOM     13  H   UNL     1       2.125   0.477  18.342  0.00  0.00    +0.000 HD
ENDBRANCH   6   9
BRANCH   1  14
ATOM     14  O   UNL     1       3.428   6.643  17.414  0.00  0.00    +0.000 OA
BRANCH  14  15
ATOM     15  C   UNL     1       4.837   6.800  17.597  0.00  0.00    +0.000 C 
BRANCH  15  16
ATOM     16  C   UNL     1       5.588   6.076  16.485  0.00  0.00    +0.000 C 
BRANCH  16  18
ATOM     17  C   UNL     1       7.576   7.195  17.550  0.00  0.00    +0.000 C 
ATOM     18  C   UNL     1       7.099   5.972  16.765  0.00  0.00    +0.000 C 
ATOM     19  C   UNL     1       7.465   4.700  17.535  0.00  0.00    +0.000 C 
ENDBRANCH  16  18
ENDBRANCH  15  16
ENDBRANCH  14  15
ENDBRANCH   1  14
TORSDOF 5
ENDMDL
MODEL 5
REMARK VINA RESULT:      -6.7      1.668      2.085
REMARK  Name = 
REMARK  7 active torsions:
REMARK  status: ('A' for Active; 'I' for Inactive)
REMARK    1  A    between atoms: C_1  and  C_2
REMARK    2  A    between atoms: C_2  and  C_3
REMARK    3  A    between atoms: C_2  and  C_4
REMARK    4  A    between atoms: C_4  and  C_5
REMARK    5  A    between atoms: C_5  and  O_6
REMARK    6  A    between atoms: O_6  and  C_7
REMARK    7  A    between atoms: C_12  and  C_13
REMARK                            x       y       z     vdW  Elec       q    Type
REMARK                         _______ _______ _______ _____ _____    ______ ____
ROOT
ATOM      1  C   UNL     1       4.113   5.737  18.186  0.00  0.00    +0.000 A 
ATOM      2  C   UNL     1       4.181   6.840  17.328  0.00  0.00    +0.000 A 
ATOM      3  C   UNL     1       5.420   7.313  16.904  0.00  0.00    +0.000 A 
ATOM      4  C   UNL     1       6.588   6.692  17.328  0.00  0.00    +0.000 A 
ATOM      5  F   UNL     1       7.747   7.209  16.892  0.00  0.00    +0.000 F 
ATOM      6  C   UNL     1       6.553   5.583  18.178  0.00  0.00    +0.000 A 
ATOM      7  C   UNL     1       5.301   5.116  18.598  0.00  0.00    +0.000 A 
ATOM      8  F   UNL     1       5.212   4.057  19.422  0.00  0.00    +0.000 F 
ENDROOT
BRANCH   6   9
ATOM      9  C   UNL     1       7.827   4.950  18.609  0.00  0.00    +0.000 C 
ATOM     10  N   UNL     1       8.342   5.297  19.825  0.00  0.00    +0.000 N 
ATOM     11  O   UNL     1       8.425   4.135  17.918  0.00  0.00    +0.000 OA
ATOM     12  H   UNL     1       7.906   5.967  20.448  0.00  0.00    +0.000 HD
ATOM     13  H   UNL     1       9.207   4.859  20.111  0.00  0.00    +0.000 HD
ENDBRANCH   6   9
BRANCH   1  14
ATOM     14  O   UNL     1       2.944   5.200  18.667  0.00  0.00    +0.000 OA
BRANCH  14  15
ATOM     15  C   UNL     1       2.369   5.892  19.778  0.00  0.00    +0.000 C 
BRANCH  15  16
ATOM     16  C   UNL     1       1.505   4.936  20.594  0.00  0.00    +0.000 C 
BRANCH  16  18
ATOM     17  C   UNL     1       2.053   2.707  21.629  0.00  0.00    +0.000 C 
ATOM     18  C   UNL     1       1.837   3.458  20.314  0.00  0.00    +0.000 C 
ATOM     19  C   UNL     1       0.744   2.757  19.502  0.00  0.00    +0.000 C 
ENDBRANCH  16  18
ENDBRANCH  15  16
ENDBRANCH  14  15
ENDBRANCH   1  14
TORSDOF 5
ENDMDL
MODEL 6
REMARK VINA RESULT:      -6.7      1.605      1.732
REMARK  Name = 
REMARK  7 active torsions:
REMARK  status: ('A' for Active; 'I' for Inactive)
REMARK    1  A    between atoms: C_1  and  C_2
REMARK    2  A    between atoms: C_2  and  C_3
REMARK    3  A    between atoms: C_2  and  C_4
REMARK    4  A    between atoms: C_4  and  C_5
REMARK    5  A    between atoms: C_5  and  O_6
REMARK    6  A    between atoms: O_6  and  C_7
REMARK    7  A    between atoms: C_12  and  C_13
REMARK                            x       y       z     vdW  Elec       q    Type
REMARK                         _______ _______ _______ _____ _____    ______ ____
ROOT
ATOM      1  C   UNL     1       4.252   3.469  18.055  0.00  0.00    +0.000 A 
ATOM      2  C   UNL     1       4.767   3.865  19.294  0.00  0.00    +0.000 A 
ATOM      3  C   UNL     1       5.700   4.896  19.359  0.00  0.00    +0.000 A 
ATOM      4  C   UNL     1       6.121   5.533  18.198  0.00  0.00    +0.000 A 
ATOM      5  F   UNL     1       7.033   6.508  18.334  0.00  0.00    +0.000 F 
ATOM      6  C   UNL     1       5.620   5.166  16.947  0.00  0.00    +0.000 A 
ATOM      7  C   UNL     1       4.682   4.127  16.893  0.00  0.00    +0.000 A 
ATOM      8  F   UNL     1       4.173   3.730  15.713  0.00  0.00    +0.000 F 
ENDROOT
BRANCH   6   9
ATOM      9  C   UNL     1       6.099   5.872  15.730  0.00  0.00    +0.000 C 
ATOM     10  N   UNL     1       7.282   5.475  15.175  0.00  0.00    +0.000 N 
ATOM     11  O   UNL     1       5.475   6.790  15.212  0.00  0.00    +0.000 OA
ATOM     12  H   UNL     1       7.853   4.728  15.551  0.00  0.00    +0.000 HD
ATOM     13  H   UNL     1       7.598   5.960  14.346  0.00  0.00    +0.000 HD
ENDBRANCH   6   9
BRANCH   1  14
ATOM     14  O   UNL     1       3.337   2.460  17.882  0.00  0.00    +0.000 OA
BRANCH  14  15
ATOM     15  C   UNL     1       1.972   2.836  18.079  0.00  0.00    +0.000 C 
BRANCH  15  16
ATOM     16  C   UNL     1       1.396   2.089  19.278  0.00  0.00    +0.000 C 
BRANCH  16  18
ATOM     17  C   UNL     1       1.825   2.675  21.688  0.00  0.00    +0.000 C 
ATOM     18  C   UNL     1       1.024   3.034  20.437  0.00  0.00    +0.000 C 
ATOM     19  C   UNL     1       1.259   4.506  20.088  0.00  0.00    +0.000 C 
ENDBRANCH  16  18
ENDBRANCH  15  16
ENDBRANCH  14  15
ENDBRANCH   1  14
TORSDOF 5
ENDMDL
MODEL 7
REMARK VINA RESULT:      -6.7      1.065      1.107
REMARK  Name = 
REMARK  7 active torsions:
REMARK  status: ('A' for Active; 'I' for Inactive)
REMARK    1  A    between atoms: C_1  and  C_2
REMARK    2  A    between atoms: C_2  and  C_3
REMARK    3  A    between atoms: C_2  and  C_4
REMARK    4  A    between atoms: C_4  and  C_5
REMARK    5  A    between atoms: C_5  and  O_6
REMARK    6  A    between atoms: O_6  and  C_7
REMARK    7  A    between atoms: C_12  and  C_13
REMARK                            x       y       z     vdW  Elec       q    Type
REMARK                         _______ _______ _______ _____ _____    ______ ____
ROOT
ATOM      1  C   UNL     1       3.537   4.128  17.051  0.00  0.00    +0.000 A 
ATOM      2  C   UNL     1       3.089   5.329  17.611  0.00  0.00    +0.000 A 
ATOM      3  C   UNL     1       3.980   6.382  17.798  0.00  0.00    +0.000 A 
ATOM      4  C   UNL     1       5.313   6.244  17.429  0.00  0.00    +0.000 A 
ATOM      5  F   UNL     1       6.119   7.294  17.652  0.00  0.00    +0.000 F 
ATOM      6  C   UNL     1       5.789   5.060  16.860  0.00  0.00    +0.000 A 
ATOM      7  C   UNL     1       4.884   4.008  16.676  0.00  0.00    +0.000 A 
ATOM      8  F   UNL     1       5.293   2.845  16.139  0.00  0.00    +0.000 F 
ENDROOT
BRANCH   6   9
ATOM      9  C   UNL     1       7.223   4.955  16.481  0.00  0.00    +0.000 C 
ATOM     10  N   UNL     1       7.624   5.518  15.304  0.00  0.00    +0.000 N 
ATOM     11  O   UNL     1       8.050   4.387  17.184  0.00  0.00    +0.000 OA
ATOM     12  H   UNL     1       6.996   5.998  14.670  0.00  0.00    +0.000 HD
ATOM     13  H   UNL     1       8.601   5.443  15.056  0.00  0.00    +0.000 HD
ENDBRANCH   6   9
BRANCH   1  14
ATOM     14  O   UNL     1       2.742   3.030  16.833  0.00  0.00    +0.000 OA
BRANCH  14  15
ATOM     15  C   UNL     1       2.733   2.066  17.889  0.00  0.00    +0.000 C 
BRANCH  15  16
ATOM     16  C   UNL     1       1.486   2.249  18.747  0.00  0.00    +0.000 C 
BRANCH  16  18
ATOM     17  C   UNL     1       3.338   2.527  20.430  0.00  0.00    +0.000 C 
ATOM     18  C   UNL     1       1.823   2.513  20.227  0.00  0.00    +0.000 C 
ATOM     19  C   UNL     1       1.230   3.830  20.736  0.00  0.00    +0.000 C 
ENDBRANCH  16  18
ENDBRANCH  15  16
ENDBRANCH  14  15
ENDBRANCH   1  14
TORSDOF 5
ENDMDL
MODEL 8
REMARK VINA RESULT:      -6.7      2.128      2.837
REMARK  Name = 
REMARK  7 active torsions:
REMARK  status: ('A' for Active; 'I' for Inactive)
REMARK    1  A    between atoms: C_1  and  C_2
REMARK    2  A    between atoms: C_2  and  C_3
REMARK    3  A    between atoms: C_2  and  C_4
REMARK    4  A    between atoms: C_4  and  C_5
REMARK    5  A    between atoms: C_5  and  O_6
REMARK    6  A    between atoms: O_6  and  C_7
REMARK    7  A    between atoms: C_12  and  C_13
REMARK                            x       y       z     vdW  Elec       q    Type
REMARK                         _______ _______ _______ _____ _____    ______ ____
ROOT
ATOM      1  C   UNL     1       4.665   5.976  17.921  0.00  0.00    +0.000 A 
ATOM      2  C   UNL     1       5.400   5.597  19.049  0.00  0.00    +0.000 A 
ATOM      3  C   UNL     1       6.631   4.964  18.895  0.00  0.00    +0.000 A 
ATOM      4  C   UNL     1       7.132   4.711  17.624  0.00  0.00    +0.000 A 
ATOM      5  F   UNL     1       8.317   4.085  17.549  0.00  0.00    +0.000 F 
ATOM      6  C   UNL     1       6.426   5.085  16.477  0.00  0.00    +0.000 A 
ATOM      7  C   UNL     1       5.189   5.720  16.645  0.00  0.00    +0.000 A 
ATOM      8  F   UNL     1       4.466   6.094  15.575  0.00  0.00    +0.000 F 
ENDROOT
BRANCH   6   9
ATOM      9  C   UNL     1       6.998   4.792  15.137  0.00  0.00    +0.000 C 
ATOM     10  N   UNL     1       6.502   3.727  14.441  0.00  0.00    +0.000 N 
ATOM     11  O   UNL     1       7.890   5.467  14.640  0.00  0.00    +0.000 OA
ATOM     12  H   UNL     1       5.769   3.122  14.791  0.00  0.00    +0.000 HD
ATOM     13  H   UNL     1       6.895   3.538  13.529  0.00  0.00    +0.000 HD
ENDBRANCH   6   9
BRANCH   1  14
ATOM     14  O   UNL     1       3.441   6.595  17.966  0.00  0.00    +0.000 OA
BRANCH  14  15
ATOM     15  C   UNL     1       2.439   5.909  18.720  0.00  0.00    +0.000 C 
BRANCH  15  16
ATOM     16  C   UNL     1       1.894   4.736  17.913  0.00  0.00    +0.000 C 
BRANCH  16  18
ATOM     17  C   UNL     1       0.905   2.573  18.742  0.00  0.00    +0.000 C 
ATOM     18  C   UNL     1       2.195   3.377  18.573  0.00  0.00    +0.000 C 
ATOM     19  C   UNL     1       3.207   2.550  17.773  0.00  0.00    +0.000 C 
ENDBRANCH  16  18
ENDBRANCH  15  16
ENDBRANCH  14  15
ENDBRANCH   1  14
TORSDOF 5
ENDMDL
MODEL 9
REMARK VINA RESULT:      -6.6      3.315      5.542
REMARK  Name = 
REMARK  7 active torsions:
REMARK  status: ('A' for Active; 'I' for Inactive)
REMARK    1  A    between atoms: C_1  and  C_2
REMARK    2  A    between atoms: C_2  and  C_3
REMARK    3  A    between atoms: C_2  and  C_4
REMARK    4  A    between atoms: C_4  and  C_5
REMARK    5  A    between atoms: C_5  and  O_6
REMARK    6  A    between atoms: O_6  and  C_7
REMARK    7  A    between atoms: C_12  and  C_13
REMARK                            x       y       z     vdW  Elec       q    Type
REMARK                         _______ _______ _______ _____ _____    ______ ____
ROOT
ATOM      1  C   UNL     1       5.632   3.939  16.206  0.00  0.00    +0.000 A 
ATOM      2  C   UNL     1       4.357   3.905  16.780  0.00  0.00    +0.000 A 
ATOM      3  C   UNL     1       4.134   4.513  18.012  0.00  0.00    +0.000 A 
ATOM      4  C   UNL     1       5.174   5.156  18.673  0.00  0.00    +0.000 A 
ATOM      5  F   UNL     1       4.891   5.708  19.863  0.00  0.00    +0.000 F 
ATOM      6  C   UNL     1       6.457   5.215  18.122  0.00  0.00    +0.000 A 
ATOM      7  C   UNL     1       6.669   4.599  16.883  0.00  0.00    +0.000 A 
ATOM      8  F   UNL     1       7.887   4.621  16.312  0.00  0.00    +0.000 F 
ENDROOT
BRANCH   6   9
ATOM      9  C   UNL     1       7.541   5.911  18.864  0.00  0.00    +0.000 C 
ATOM     10  N   UNL     1       8.047   5.311  19.982  0.00  0.00    +0.000 N 
ATOM     11  O   UNL     1       7.992   6.993  18.511  0.00  0.00    +0.000 OA
ATOM     12  H   UNL     1       7.720   4.420  20.337  0.00  0.00    +0.000 HD
ATOM     13  H   UNL     1       8.786   5.791  20.478  0.00  0.00    +0.000 HD
ENDBRANCH   6   9
BRANCH   1  14
ATOM     14  O   UNL     1       5.957   3.364  15.003  0.00  0.00    +0.000 OA
BRANCH  14  15
ATOM     15  C   UNL     1       5.717   4.179  13.853  0.00  0.00    +0.000 C 
BRANCH  15  16
ATOM     16  C   UNL     1       6.583   3.705  12.691  0.00  0.00    +0.000 C 
BRANCH  16  18
ATOM     17  C   UNL     1       6.021   1.574  11.473  0.00  0.00    +0.000 C 
ATOM     18  C   UNL     1       5.752   3.077  11.555  0.00  0.00    +0.000 C 
ATOM     19  C   UNL     1       4.249   3.315  11.730  0.00  0.00    +0.000 C 
ENDBRANCH  16  18
ENDBRANCH  15  16
ENDBRANCH  14  15
ENDBRANCH   1  14
TORSDOF 5
ENDMDL
