MODEL 1
REMARK VINA RESULT:      -8.2      0.000      0.000
REMARK  Name = 
REMARK  8 active torsions:
REMARK  status: ('A' for Active; 'I' for Inactive)
REMARK    1  A    between atoms: C_2  and  C_11
REMARK    2  A    between atoms: N_3  and  C_4
REMARK    3  A    between atoms: C_4  and  C_5
REMARK    4  A    between atoms: C_14  and  O_15
REMARK    5  A    between atoms: O_15  and  C_16
REMARK    6  A    between atoms: N_19  and  C_20
REMARK    7  A    between atoms: C_20  and  C_21
REMARK    8  A    between atoms: C_21  and  C_22
REMARK                            x       y       z     vdW  Elec       q    Type
REMARK                         _______ _______ _______ _____ _____    ______ ____
ROOT
ATOM      1  C   UNL     1       0.691   9.769  19.132  0.00  0.00    +0.000 A 
ATOM      2  C   UNL     1       0.658   9.186  20.402  0.00  0.00    +0.000 A 
ATOM      3  C   UNL     1       1.413   8.027  20.660  0.00  0.00    +0.000 A 
ATOM      4  C   UNL     1       2.212   7.448  19.663  0.00  0.00    +0.000 A 
ATOM      5  C   UNL     1       2.277   8.079  18.416  0.00  0.00    +0.000 A 
ATOM      6  C   UNL     1       1.523   9.226  18.152  0.00  0.00    +0.000 A 
ENDROOT
BRANCH   1   8
ATOM      7  O   UNL     1       0.373  12.045  18.550  0.00  0.00    +0.000 OA
ATOM      8  C   UNL     1      -0.142  10.963  18.809  0.00  0.00    +0.000 C 
ATOM      9  N   UNL     1      -1.498  10.730  18.831  0.00  0.00    +0.000 N 
ATOM     10  H   UNL     1      -1.826   9.930  19.363  0.00  0.00    +0.000 HD
BRANCH   9  11
ATOM     11  C   UNL     1      -2.494  11.755  18.553  0.00  0.00    +0.000 C 
BRANCH  11  12
ATOM     12  C   UNL     1      -3.754  11.111  17.939  0.00  0.00    +0.000 C 
ATOM     13  C   UNL     1      -3.633   9.593  17.758  0.00  0.00    +0.000 C 
ATOM     14  O   UNL     1      -2.683   9.267  16.734  0.00  0.00    +0.000 OA
ATOM     15  C   UNL     1      -3.076   9.865  15.491  0.00  0.00    +0.000 C 
ATOM     16  C   UNL     1      -3.175  11.382  15.636  0.00  0.00    +0.000 C 
ATOM     17  O   UNL     1      -4.092  11.744  16.681  0.00  0.00    +0.000 OA
ENDBRANCH  11  12
ENDBRANCH   9  11
ENDBRANCH   1   8
BRANCH   4  18
ATOM     18  O   UNL     1       2.880   6.291  20.005  0.00  0.00    +0.000 OA
BRANCH  18  19
ATOM     19  C   UNL     1       2.133   5.059  19.972  0.00  0.00    +0.000 C 
ATOM     20  C   UNL     1       2.985   3.879  20.431  0.00  0.00    +0.000 C 
ATOM     21  C   UNL     1       4.062   3.505  19.411  0.00  0.00    +0.000 C 
ATOM     22  N   UNL     1       3.554   3.245  18.055  0.00  0.00    +0.000 NA
ATOM     23  C   UNL     1       2.650   4.307  17.577  0.00  0.00    +0.000 C 
ATOM     24  C   UNL     1       1.589   4.765  18.574  0.00  0.00    +0.000 C 
BRANCH  22  25
ATOM     25  C   UNL     1       4.682   3.127  17.085  0.00  0.00    +0.000 C 
BRANCH  25  26
ATOM     26  C   UNL     1       5.000   4.396  16.273  0.00  0.00    +0.000 C 
BRANCH  26  27
ATOM     27  C   UNL     1       5.999   5.293  16.981  0.00  0.00    +0.000 A 
ATOM     28  C   UNL     1       6.941   4.744  17.862  0.00  0.00    +0.000 A 
ATOM     29  C   UNL     1       7.860   5.570  18.521  0.00  0.00    +0.000 A 
ATOM     30  C   UNL     1       7.841   6.944  18.303  0.00  0.00    +0.000 A 
ATOM     31  C   UNL     1       6.906   7.501  17.438  0.00  0.00    +0.000 A 
ATOM     32  C   UNL     1       5.987   6.680  16.779  0.00  0.00    +0.000 A 
ENDBRANCH  26  27
ENDBRANCH  25  26
ENDBRANCH  22  25
ENDBRANCH  18  19
ENDBRANCH   4  18
TORSDOF 8
ENDMDL
MODEL 2
REMARK VINA RESULT:      -7.7      1.996      3.169
REMARK  Name = 
REMARK  8 active torsions:
REMARK  status: ('A' for Active; 'I' for Inactive)
REMARK    1  A    between atoms: C_2  and  C_11
REMARK    2  A    between atoms: N_3  and  C_4
REMARK    3  A    between atoms: C_4  and  C_5
REMARK    4  A    between atoms: C_14  and  O_15
REMARK    5  A    between atoms: O_15  and  C_16
REMARK    6  A    between atoms: N_19  and  C_20
REMARK    7  A    between atoms: C_20  and  C_21
REMARK    8  A    between atoms: C_21  and  C_22
REMARK                            x       y       z     vdW  Elec       q    Type
REMARK                         _______ _______ _______ _____ _____    ______ ____
ROOT
ATOM      1  C   UNL     1       0.592   9.899  19.418  0.00  0.00    +0.000 A 
ATOM      2  C   UNL     1       0.630   9.175  20.614  0.00  0.00    +0.000 A 
ATOM      3  C   UNL     1       1.392   7.995  20.693  0.00  0.00    +0.000 A 
ATOM      4  C   UNL     1       2.129   7.534  19.592  0.00  0.00    +0.000 A 
ATOM      5  C   UNL     1       2.125   8.304  18.423  0.00  0.00    +0.000 A 
ATOM      6  C   UNL     1       1.363   9.472  18.336  0.00  0.00    +0.000 A 
ENDROOT
BRANCH   1   8
ATOM      7  O   UNL     1      -1.363  11.186  19.794  0.00  0.00    +0.000 OA
ATOM      8  C   UNL     1      -0.251  11.121  19.282  0.00  0.00    +0.000 C 
ATOM      9  N   UNL     1       0.330  12.130  18.548  0.00  0.00    +0.000 N 
ATOM     10  H   UNL     1       1.074  11.872  17.907  0.00  0.00    +0.000 HD
BRANCH   9  11
ATOM     11  C   UNL     1      -0.318  13.407  18.284  0.00  0.00    +0.000 C 
BRANCH  11  12
ATOM     12  C   UNL     1       0.552  14.560  18.826  0.00  0.00    +0.000 C 
ATOM     13  C   UNL     1       1.782  14.078  19.605  0.00  0.00    +0.000 C 
ATOM     14  O   UNL     1       1.405  13.467  20.846  0.00  0.00    +0.000 OA
ATOM     15  C   UNL     1       0.670  14.401  21.649  0.00  0.00    +0.000 C 
ATOM     16  C   UNL     1      -0.579  14.875  20.909  0.00  0.00    +0.000 C 
ATOM     17  O   UNL     1      -0.240  15.459  19.641  0.00  0.00    +0.000 OA
ENDBRANCH  11  12
ENDBRANCH   9  11
ENDBRANCH   1   8
BRANCH   4  18
ATOM     18  O   UNL     1       2.810   6.347  19.761  0.00  0.00    +0.000 OA
BRANCH  18  19
ATOM     19  C   UNL     1       2.033   5.133  19.771  0.00  0.00    +0.000 C 
ATOM     20  C   UNL     1       2.823   3.972  20.368  0.00  0.00    +0.000 C 
ATOM     21  C   UNL     1       3.950   3.499  19.450  0.00  0.00    +0.000 C 
ATOM     22  N   UNL     1       3.522   3.148  18.088  0.00  0.00    +0.000 NA
ATOM     23  C   UNL     1       2.678   4.191  17.475  0.00  0.00    +0.000 C 
ATOM     24  C   UNL     1       1.570   4.746  18.366  0.00  0.00    +0.000 C 
BRANCH  22  25
ATOM     25  C   UNL     1       4.704   2.933  17.203  0.00  0.00    +0.000 C 
BRANCH  25  26
ATOM     26  C   UNL     1       5.072   4.109  16.281  0.00  0.00    +0.000 C 
BRANCH  26  27
ATOM     27  C   UNL     1       6.012   5.092  16.953  0.00  0.00    +0.000 A 
ATOM     28  C   UNL     1       6.984   4.636  17.854  0.00  0.00    +0.000 A 
ATOM     29  C   UNL     1       7.850   5.540  18.481  0.00  0.00    +0.000 A 
ATOM     30  C   UNL     1       7.748   6.901  18.210  0.00  0.00    +0.000 A 
ATOM     31  C   UNL     1       6.782   7.367  17.324  0.00  0.00    +0.000 A 
ATOM     32  C   UNL     1       5.916   6.467  16.697  0.00  0.00    +0.000 A 
ENDBRANCH  26  27
ENDBRANCH  25  26
ENDBRANCH  22  25
ENDBRANCH  18  19
ENDBRANCH   4  18
TORSDOF 8
ENDMDL
MODEL 3
REMARK VINA RESULT:      -7.6      2.698      9.991
REMARK  Name = 
REMARK  8 active torsions:
REMARK  status: ('A' for Active; 'I' for Inactive)
REMARK    1  A    between atoms: C_2  and  C_11
REMARK    2  A    between atoms: N_3  and  C_4
REMARK    3  A    between atoms: C_4  and  C_5
REMARK    4  A    between atoms: C_14  and  O_15
REMARK    5  A    between atoms: O_15  and  C_16
REMARK    6  A    between atoms: N_19  and  C_20
REMARK    7  A    between atoms: C_20  and  C_21
REMARK    8  A    between atoms: C_21  and  C_22
REMARK                            x       y       z     vdW  Elec       q    Type
REMARK                         _______ _______ _______ _____ _____    ______ ____
ROOT
ATOM      1  C   UNL     1       2.533   7.425  18.548  0.00  0.00    +0.000 A 
ATOM      2  C   UNL     1       2.103   8.453  17.704  0.00  0.00    +0.000 A 
ATOM      3  C   UNL     1       1.228   9.440  18.194  0.00  0.00    +0.000 A 
ATOM      4  C   UNL     1       0.785   9.419  19.525  0.00  0.00    +0.000 A 
ATOM      5  C   UNL     1       1.273   8.415  20.369  0.00  0.00    +0.000 A 
ATOM      6  C   UNL     1       2.135   7.427  19.886  0.00  0.00    +0.000 A 
ENDROOT
BRANCH   1   8
ATOM      7  O   UNL     1       4.614   6.509  17.878  0.00  0.00    +0.000 OA
ATOM      8  C   UNL     1       3.413   6.331  18.046  0.00  0.00    +0.000 C 
ATOM      9  N   UNL     1       2.759   5.145  17.801  0.00  0.00    +0.000 N 
ATOM     10  H   UNL     1       1.755   5.188  17.651  0.00  0.00    +0.000 HD
BRANCH   9  11
ATOM     11  C   UNL     1       3.422   3.950  17.301  0.00  0.00    +0.000 C 
BRANCH  11  12
ATOM     12  C   UNL     1       2.733   2.691  17.866  0.00  0.00    +0.000 C 
ATOM     13  C   UNL     1       1.546   3.008  18.783  0.00  0.00    +0.000 C 
ATOM     14  O   UNL     1       1.983   3.605  20.011  0.00  0.00    +0.000 OA
ATOM     15  C   UNL     1       2.887   2.723  20.691  0.00  0.00    +0.000 C 
ATOM     16  C   UNL     1       4.096   2.414  19.811  0.00  0.00    +0.000 C 
ATOM     17  O   UNL     1       3.690   1.848  18.554  0.00  0.00    +0.000 OA
ENDBRANCH  11  12
ENDBRANCH   9  11
ENDBRANCH   1   8
BRANCH   4  18
ATOM     18  O   UNL     1      -0.102  10.408  19.894  0.00  0.00    +0.000 OA
BRANCH  18  19
ATOM     19  C   UNL     1       0.382  11.435  20.782  0.00  0.00    +0.000 C 
ATOM     20  C   UNL     1      -0.051  11.175  22.222  0.00  0.00    +0.000 C 
ATOM     21  C   UNL     1      -1.549  11.398  22.431  0.00  0.00    +0.000 C 
ATOM     22  N   UNL     1      -2.035  12.720  22.005  0.00  0.00    +0.000 NA
ATOM     23  C   UNL     1      -1.581  13.079  20.648  0.00  0.00    +0.000 C 
ATOM     24  C   UNL     1      -0.104  12.822  20.361  0.00  0.00    +0.000 C 
BRANCH  22  25
ATOM     25  C   UNL     1      -3.526  12.762  22.019  0.00  0.00    +0.000 C 
BRANCH  25  26
ATOM     26  C   UNL     1      -4.188  13.399  20.784  0.00  0.00    +0.000 C 
BRANCH  26  27
ATOM     27  C   UNL     1      -5.099  12.427  20.058  0.00  0.00    +0.000 A 
ATOM     28  C   UNL     1      -4.712  11.880  18.827  0.00  0.00    +0.000 A 
ATOM     29  C   UNL     1      -5.553  10.987  18.152  0.00  0.00    +0.000 A 
ATOM     30  C   UNL     1      -6.782  10.637  18.703  0.00  0.00    +0.000 A 
ATOM     31  C   UNL     1      -7.181  11.179  19.920  0.00  0.00    +0.000 A 
ATOM     32  C   UNL     1      -6.344  12.071  20.596  0.00  0.00    +0.000 A 
ENDBRANCH  26  27
ENDBRANCH  25  26
ENDBRANCH  22  25
ENDBRANCH  18  19
ENDBRANCH   4  18
TORSDOF 8
ENDMDL
MODEL 4
REMARK VINA RESULT:      -7.6      2.686     10.288
REMARK  Name = 
REMARK  8 active torsions:
REMARK  status: ('A' for Active; 'I' for Inactive)
REMARK    1  A    between atoms: C_2  and  C_11
REMARK    2  A    between atoms: N_3  and  C_4
REMARK    3  A    between atoms: C_4  and  C_5
REMARK    4  A    between atoms: C_14  and  O_15
REMARK    5  A    between atoms: O_15  and  C_16
REMARK    6  A    between atoms: N_19  and  C_20
REMARK    7  A    between atoms: C_20  and  C_21
REMARK    8  A    between atoms: C_21  and  C_22
REMARK                            x       y       z     vdW  Elec       q    Type
REMARK                         _______ _______ _______ _____ _____    ______ ____
ROOT
ATOM      1  C   UNL     1       2.644   7.167  18.502  0.00  0.00    +0.000 A 
ATOM      2  C   UNL     1       2.509   8.264  17.647  0.00  0.00    +0.000 A 
ATOM      3  C   UNL     1       1.829   9.415  18.088  0.00  0.00    +0.000 A 
ATOM      4  C   UNL     1       1.291   9.486  19.381  0.00  0.00    +0.000 A 
ATOM      5  C   UNL     1       1.487   8.400  20.241  0.00  0.00    +0.000 A 
ATOM      6  C   UNL     1       2.154   7.252  19.806  0.00  0.00    +0.000 A 
ENDROOT
BRANCH   1   8
ATOM      7  O   UNL     1       4.527   5.830  17.967  0.00  0.00    +0.000 OA
ATOM      8  C   UNL     1       3.307   5.911  18.047  0.00  0.00    +0.000 C 
ATOM      9  N   UNL     1       2.436   4.891  17.738  0.00  0.00    +0.000 N 
ATOM     10  H   UNL     1       1.478   5.145  17.517  0.00  0.00    +0.000 HD
BRANCH   9  11
ATOM     11  C   UNL     1       2.867   3.582  17.268  0.00  0.00    +0.000 C 
BRANCH  11  12
ATOM     12  C   UNL     1       2.163   2.475  18.079  0.00  0.00    +0.000 C 
ATOM     13  C   UNL     1       1.213   3.019  19.153  0.00  0.00    +0.000 C 
ATOM     14  O   UNL     1       1.938   3.659  20.212  0.00  0.00    +0.000 OA
ATOM     15  C   UNL     1       2.852   2.731  20.812  0.00  0.00    +0.000 C 
ATOM     16  C   UNL     1       3.831   2.195  19.770  0.00  0.00    +0.000 C 
ATOM     17  O   UNL     1       3.135   1.579  18.674  0.00  0.00    +0.000 OA
ENDBRANCH  11  12
ENDBRANCH   9  11
ENDBRANCH   1   8
BRANCH   4  18
ATOM     18  O   UNL     1       0.609  10.641  19.701  0.00  0.00    +0.000 OA
BRANCH  18  19
ATOM     19  C   UNL     1       0.091  11.429  18.610  0.00  0.00    +0.000 C 
ATOM     20  C   UNL     1       0.051  12.912  18.967  0.00  0.00    +0.000 C 
ATOM     21  C   UNL     1      -1.031  13.236  19.998  0.00  0.00    +0.000 C 
ATOM     22  N   UNL     1      -2.381  12.785  19.629  0.00  0.00    +0.000 NA
ATOM     23  C   UNL     1      -2.406  11.377  19.188  0.00  0.00    +0.000 C 
ATOM     24  C   UNL     1      -1.311  10.979  18.202  0.00  0.00    +0.000 C 
BRANCH  22  25
ATOM     25  C   UNL     1      -3.316  12.924  20.783  0.00  0.00    +0.000 C 
BRANCH  25  26
ATOM     26  C   UNL     1      -4.686  13.549  20.462  0.00  0.00    +0.000 C 
BRANCH  26  27
ATOM     27  C   UNL     1      -5.821  12.556  20.626  0.00  0.00    +0.000 A 
ATOM     28  C   UNL     1      -6.644  12.604  21.760  0.00  0.00    +0.000 A 
ATOM     29  C   UNL     1      -7.688  11.685  21.917  0.00  0.00    +0.000 A 
ATOM     30  C   UNL     1      -7.915  10.717  20.944  0.00  0.00    +0.000 A 
ATOM     31  C   UNL     1      -7.100  10.653  19.818  0.00  0.00    +0.000 A 
ATOM     32  C   UNL     1      -6.056  11.568  19.659  0.00  0.00    +0.000 A 
ENDBRANCH  26  27
ENDBRANCH  25  26
ENDBRANCH  22  25
ENDBRANCH  18  19
ENDBRANCH   4  18
TORSDOF 8
ENDMDL
MODEL 5
REMARK VINA RESULT:      -7.6      2.419      3.854
REMARK  Name = 
REMARK  8 active torsions:
REMARK  status: ('A' for Active; 'I' for Inactive)
REMARK    1  A    between atoms: C_2  and  C_11
REMARK    2  A    between atoms: N_3  and  C_4
REMARK    3  A    between atoms: C_4  and  C_5
REMARK    4  A    between atoms: C_14  and  O_15
REMARK    5  A    between atoms: O_15  and  C_16
REMARK    6  A    between atoms: N_19  and  C_20
REMARK    7  A    between atoms: C_20  and  C_21
REMARK    8  A    between atoms: C_21  and  C_22
REMARK                            x       y       z     vdW  Elec       q    Type
REMARK                         _______ _______ _______ _____ _____    ______ ____
ROOT
ATOM      1  C   UNL     1       0.657   9.656  19.462  0.00  0.00    +0.000 A 
ATOM      2  C   UNL     1       0.728   8.912  20.643  0.00  0.00    +0.000 A 
ATOM      3  C   UNL     1       1.559   7.778  20.706  0.00  0.00    +0.000 A 
ATOM      4  C   UNL     1       2.332   7.385  19.604  0.00  0.00    +0.000 A 
ATOM      5  C   UNL     1       2.291   8.176  18.450  0.00  0.00    +0.000 A 
ATOM      6  C   UNL     1       1.461   9.298  18.379  0.00  0.00    +0.000 A 
ENDROOT
BRANCH   1   8
ATOM      7  O   UNL     1      -1.342  10.849  19.911  0.00  0.00    +0.000 OA
ATOM      8  C   UNL     1      -0.257  10.828  19.342  0.00  0.00    +0.000 C 
ATOM      9  N   UNL     1       0.229  11.846  18.553  0.00  0.00    +0.000 N 
ATOM     10  H   UNL     1       0.950  11.610  17.878  0.00  0.00    +0.000 HD
BRANCH   9  11
ATOM     11  C   UNL     1      -0.500  13.079  18.293  0.00  0.00    +0.000 C 
BRANCH  11  12
ATOM     12  C   UNL     1       0.327  14.290  18.773  0.00  0.00    +0.000 C 
ATOM     13  C   UNL     1       1.636  13.894  19.467  0.00  0.00    +0.000 C 
ATOM     14  O   UNL     1       1.385  13.267  20.732  0.00  0.00    +0.000 OA
ATOM     15  C   UNL     1       0.645  14.155  21.582  0.00  0.00    +0.000 C 
ATOM     16  C   UNL     1      -0.679  14.542  20.928  0.00  0.00    +0.000 C 
ATOM     17  O   UNL     1      -0.465  15.140  19.639  0.00  0.00    +0.000 OA
ENDBRANCH  11  12
ENDBRANCH   9  11
ENDBRANCH   1   8
BRANCH   4  18
ATOM     18  O   UNL     1       3.081   6.237  19.755  0.00  0.00    +0.000 OA
BRANCH  18  19
ATOM     19  C   UNL     1       2.410   4.976  19.559  0.00  0.00    +0.000 C 
ATOM     20  C   UNL     1       3.308   3.803  19.941  0.00  0.00    +0.000 C 
ATOM     21  C   UNL     1       4.451   3.595  18.947  0.00  0.00    +0.000 C 
ATOM     22  N   UNL     1       4.024   3.449  17.547  0.00  0.00    +0.000 NA
ATOM     23  C   UNL     1       3.081   4.505  17.131  0.00  0.00    +0.000 C 
ATOM     24  C   UNL     1       1.950   4.799  18.113  0.00  0.00    +0.000 C 
BRANCH  22  25
ATOM     25  C   UNL     1       5.200   3.493  16.630  0.00  0.00    +0.000 C 
BRANCH  25  26
ATOM     26  C   UNL     1       5.353   4.781  15.800  0.00  0.00    +0.000 C 
BRANCH  26  27
ATOM     27  C   UNL     1       5.963   4.515  14.438  0.00  0.00    +0.000 A 
ATOM     28  C   UNL     1       5.312   3.675  13.523  0.00  0.00    +0.000 A 
ATOM     29  C   UNL     1       5.875   3.423  12.267  0.00  0.00    +0.000 A 
ATOM     30  C   UNL     1       7.089   4.007  11.919  0.00  0.00    +0.000 A 
ATOM     31  C   UNL     1       7.750   4.835  12.820  0.00  0.00    +0.000 A 
ATOM     32  C   UNL     1       7.190   5.088  14.076  0.00  0.00    +0.000 A 
ENDBRANCH  26  27
ENDBRANCH  25  26
ENDBRANCH  22  25
ENDBRANCH  18  19
ENDBRANCH   4  18
TORSDOF 8
ENDMDL
MODEL 6
REMARK VINA RESULT:      -7.6      2.448      3.165
REMARK  Name = 
REMARK  8 active torsions:
REMARK  status: ('A' for Active; 'I' for Inactive)
REMARK    1  A    between atoms: C_2  and  C_11
REMARK    2  A    between atoms: N_3  and  C_4
REMARK    3  A    between atoms: C_4  and  C_5
REMARK    4  A    between atoms: C_14  and  O_15
REMARK    5  A    between atoms: O_15  and  C_16
REMARK    6  A    between atoms: N_19  and  C_20
REMARK    7  A    between atoms: C_20  and  C_21
REMARK    8  A    between atoms: C_21  and  C_22
REMARK                            x       y       z     vdW  Elec       q    Type
REMARK                         _______ _______ _______ _____ _____    ______ ____
ROOT
ATOM      1  C   UNL     1       1.637   8.737  19.171  0.00  0.00    +0.000 A 
ATOM      2  C   UNL     1       2.487   7.781  18.607  0.00  0.00    +0.000 A 
ATOM      3  C   UNL     1       2.766   6.593  19.308  0.00  0.00    +0.000 A 
ATOM      4  C   UNL     1       2.195   6.343  20.565  0.00  0.00    +0.000 A 
ATOM      5  C   UNL     1       1.302   7.286  21.086  0.00  0.00    +0.000 A 
ATOM      6  C   UNL     1       1.028   8.471  20.398  0.00  0.00    +0.000 A 
ENDROOT
BRANCH   1   8
ATOM      7  O   UNL     1       1.822  10.266  17.369  0.00  0.00    +0.000 OA
ATOM      8  C   UNL     1       1.367  10.032  18.482  0.00  0.00    +0.000 C 
ATOM      9  N   UNL     1       0.581  10.903  19.203  0.00  0.00    +0.000 N 
ATOM     10  H   UNL     1       0.535  10.768  20.208  0.00  0.00    +0.000 HD
BRANCH   9  11
ATOM     11  C   UNL     1       0.199  12.223  18.724  0.00  0.00    +0.000 C 
BRANCH  11  12
ATOM     12  C   UNL     1       0.056  13.193  19.915  0.00  0.00    +0.000 C 
ATOM     13  C   UNL     1       0.334  12.534  21.271  0.00  0.00    +0.000 C 
ATOM     14  O   UNL     1      -0.693  11.593  21.612  0.00  0.00    +0.000 OA
ATOM     15  C   UNL     1      -1.967  12.251  21.655  0.00  0.00    +0.000 C 
ATOM     16  C   UNL     1      -2.284  12.892  20.306  0.00  0.00    +0.000 C 
ATOM     17  O   UNL     1      -1.253  13.814  19.916  0.00  0.00    +0.000 OA
ENDBRANCH  11  12
ENDBRANCH   9  11
ENDBRANCH   1   8
BRANCH   4  18
ATOM     18  O   UNL     1       2.564   5.169  21.186  0.00  0.00    +0.000 OA
BRANCH  18  19
ATOM     19  C   UNL     1       1.597   4.100  21.211  0.00  0.00    +0.000 C 
ATOM     20  C   UNL     1       2.269   2.749  21.440  0.00  0.00    +0.000 C 
ATOM     21  C   UNL     1       3.073   2.283  20.225  0.00  0.00    +0.000 C 
ATOM     22  N   UNL     1       2.312   2.244  18.967  0.00  0.00    +0.000 NA
ATOM     23  C   UNL     1       1.564   3.492  18.721  0.00  0.00    +0.000 C 
ATOM     24  C   UNL     1       0.788   4.038  19.916  0.00  0.00    +0.000 C 
BRANCH  22  25
ATOM     25  C   UNL     1       3.223   2.016  17.808  0.00  0.00    +0.000 C 
BRANCH  25  26
ATOM     26  C   UNL     1       3.403   3.211  16.854  0.00  0.00    +0.000 C 
BRANCH  26  27
ATOM     27  C   UNL     1       4.790   3.817  16.952  0.00  0.00    +0.000 A 
ATOM     28  C   UNL     1       5.594   3.932  15.808  0.00  0.00    +0.000 A 
ATOM     29  C   UNL     1       6.876   4.485  15.896  0.00  0.00    +0.000 A 
ATOM     30  C   UNL     1       7.360   4.927  17.124  0.00  0.00    +0.000 A 
ATOM     31  C   UNL     1       6.576   4.812  18.267  0.00  0.00    +0.000 A 
ATOM     32  C   UNL     1       5.296   4.259  18.182  0.00  0.00    +0.000 A 
ENDBRANCH  26  27
ENDBRANCH  25  26
ENDBRANCH  22  25
ENDBRANCH  18  19
ENDBRANCH   4  18
TORSDOF 8
ENDMDL
MODEL 7
REMARK VINA RESULT:      -7.6      2.148      3.651
REMARK  Name = 
REMARK  8 active torsions:
REMARK  status: ('A' for Active; 'I' for Inactive)
REMARK    1  A    between atoms: C_2  and  C_11
REMARK    2  A    between atoms: N_3  and  C_4
REMARK    3  A    between atoms: C_4  and  C_5
REMARK    4  A    between atoms: C_14  and  O_15
REMARK    5  A    between atoms: O_15  and  C_16
REMARK    6  A    between atoms: N_19  and  C_20
REMARK    7  A    between atoms: C_20  and  C_21
REMARK    8  A    between atoms: C_21  and  C_22
REMARK                            x       y       z     vdW  Elec       q    Type
REMARK                         _______ _______ _______ _____ _____    ______ ____
ROOT
ATOM      1  C   UNL     1       0.879   9.528  19.221  0.00  0.00    +0.000 A 
ATOM      2  C   UNL     1       0.723   9.074  20.534  0.00  0.00    +0.000 A 
ATOM      3  C   UNL     1       1.367   7.893  20.947  0.00  0.00    +0.000 A 
ATOM      4  C   UNL     1       2.176   7.163  20.063  0.00  0.00    +0.000 A 
ATOM      5  C   UNL     1       2.365   7.665  18.770  0.00  0.00    +0.000 A 
ATOM      6  C   UNL     1       1.722   8.834  18.353  0.00  0.00    +0.000 A 
ENDROOT
BRANCH   1   8
ATOM      7  O   UNL     1      -0.895  10.657  18.127  0.00  0.00    +0.000 OA
ATOM      8  C   UNL     1       0.165  10.744  18.735  0.00  0.00    +0.000 C 
ATOM      9  N   UNL     1       0.800  11.929  19.031  0.00  0.00    +0.000 N 
ATOM     10  H   UNL     1       1.795  11.889  19.229  0.00  0.00    +0.000 HD
BRANCH   9  11
ATOM     11  C   UNL     1       0.283  13.235  18.646  0.00  0.00    +0.000 C 
BRANCH  11  12
ATOM     12  C   UNL     1       1.287  14.336  19.047  0.00  0.00    +0.000 C 
ATOM     13  C   UNL     1       2.382  13.841  20.000  0.00  0.00    +0.000 C 
ATOM     14  O   UNL     1       1.846  13.533  21.293  0.00  0.00    +0.000 OA
ATOM     15  C   UNL     1       1.217  14.695  21.852  0.00  0.00    +0.000 C 
ATOM     16  C   UNL     1       0.100  15.192  20.937  0.00  0.00    +0.000 C 
ATOM     17  O   UNL     1       0.598  15.474  19.619  0.00  0.00    +0.000 OA
ENDBRANCH  11  12
ENDBRANCH   9  11
ENDBRANCH   1   8
BRANCH   4  18
ATOM     18  O   UNL     1       2.728   5.999  20.553  0.00  0.00    +0.000 OA
BRANCH  18  19
ATOM     19  C   UNL     1       1.828   4.915  20.857  0.00  0.00    +0.000 C 
ATOM     20  C   UNL     1       2.588   3.672  21.311  0.00  0.00    +0.000 C 
ATOM     21  C   UNL     1       3.351   3.003  20.166  0.00  0.00    +0.000 C 
ATOM     22  N   UNL     1       2.526   2.672  18.994  0.00  0.00    +0.000 NA
ATOM     23  C   UNL     1       1.694   3.807  18.549  0.00  0.00    +0.000 C 
ATOM     24  C   UNL     1       0.954   4.551  19.657  0.00  0.00    +0.000 C 
BRANCH  22  25
ATOM     25  C   UNL     1       3.385   2.252  17.848  0.00  0.00    +0.000 C 
BRANCH  25  26
ATOM     26  C   UNL     1       3.429   3.224  16.655  0.00  0.00    +0.000 C 
BRANCH  26  27
ATOM     27  C   UNL     1       4.684   4.076  16.657  0.00  0.00    +0.000 A 
ATOM     28  C   UNL     1       4.773   5.199  17.492  0.00  0.00    +0.000 A 
ATOM     29  C   UNL     1       5.928   5.992  17.492  0.00  0.00    +0.000 A 
ATOM     30  C   UNL     1       6.995   5.666  16.661  0.00  0.00    +0.000 A 
ATOM     31  C   UNL     1       6.915   4.559  15.822  0.00  0.00    +0.000 A 
ATOM     32  C   UNL     1       5.764   3.767  15.819  0.00  0.00    +0.000 A 
ENDBRANCH  26  27
ENDBRANCH  25  26
ENDBRANCH  22  25
ENDBRANCH  18  19
ENDBRANCH   4  18
TORSDOF 8
ENDMDL
MODEL 8
REMARK VINA RESULT:      -7.5      2.451      3.846
REMARK  Name = 
REMARK  8 active torsions:
REMARK  status: ('A' for Active; 'I' for Inactive)
REMARK    1  A    between atoms: C_2  and  C_11
REMARK    2  A    between atoms: N_3  and  C_4
REMARK    3  A    between atoms: C_4  and  C_5
REMARK    4  A    between atoms: C_14  and  O_15
REMARK    5  A    between atoms: O_15  and  C_16
REMARK    6  A    between atoms: N_19  and  C_20
REMARK    7  A    between atoms: C_20  and  C_21
REMARK    8  A    between atoms: C_21  and  C_22
REMARK                            x       y       z     vdW  Elec       q    Type
REMARK                         _______ _______ _______ _____ _____    ______ ____
ROOT
ATOM      1  C   UNL     1       0.937   9.560  19.617  0.00  0.00    +0.000 A 
ATOM      2  C   UNL     1       1.702   8.813  18.716  0.00  0.00    +0.000 A 
ATOM      3  C   UNL     1       2.210   7.559  19.102  0.00  0.00    +0.000 A 
ATOM      4  C   UNL     1       1.952   7.035  20.377  0.00  0.00    +0.000 A 
ATOM      5  C   UNL     1       1.135   7.771  21.243  0.00  0.00    +0.000 A 
ATOM      6  C   UNL     1       0.635   9.020  20.868  0.00  0.00    +0.000 A 
ENDROOT
BRANCH   1   8
ATOM      7  O   UNL     1      -0.762  11.185  19.317  0.00  0.00    +0.000 OA
ATOM      8  C   UNL     1       0.432  10.917  19.261  0.00  0.00    +0.000 C 
ATOM      9  N   UNL     1       1.413  11.803  18.877  0.00  0.00    +0.000 N 
ATOM     10  H   UNL     1       2.291  11.413  18.547  0.00  0.00    +0.000 HD
BRANCH   9  11
ATOM     11  C   UNL     1       1.144  13.178  18.481  0.00  0.00    +0.000 C 
BRANCH  11  12
ATOM     12  C   UNL     1       2.066  14.139  19.260  0.00  0.00    +0.000 C 
ATOM     13  C   UNL     1       2.632  13.527  20.547  0.00  0.00    +0.000 C 
ATOM     14  O   UNL     1       1.604  13.343  21.530  0.00  0.00    +0.000 OA
ATOM     15  C   UNL     1       0.984  14.600  21.833  0.00  0.00    +0.000 C 
ATOM     16  C   UNL     1       0.384  15.218  20.572  0.00  0.00    +0.000 C 
ATOM     17  O   UNL     1       1.381  15.382  19.551  0.00  0.00    +0.000 OA
ENDBRANCH  11  12
ENDBRANCH   9  11
ENDBRANCH   1   8
BRANCH   4  18
ATOM     18  O   UNL     1       2.529   5.817  20.670  0.00  0.00    +0.000 OA
BRANCH  18  19
ATOM     19  C   UNL     1       1.645   4.722  20.980  0.00  0.00    +0.000 C 
ATOM     20  C   UNL     1       2.420   3.504  21.473  0.00  0.00    +0.000 C 
ATOM     21  C   UNL     1       3.217   2.828  20.356  0.00  0.00    +0.000 C 
ATOM     22  N   UNL     1       2.421   2.456  19.177  0.00  0.00    +0.000 NA
ATOM     23  C   UNL     1       1.576   3.564  18.694  0.00  0.00    +0.000 C 
ATOM     24  C   UNL     1       0.800   4.316  19.772  0.00  0.00    +0.000 C 
BRANCH  22  25
ATOM     25  C   UNL     1       3.309   2.030  18.056  0.00  0.00    +0.000 C 
BRANCH  25  26
ATOM     26  C   UNL     1       3.478   3.048  16.914  0.00  0.00    +0.000 C 
BRANCH  26  27
ATOM     27  C   UNL     1       4.829   3.737  16.957  0.00  0.00    +0.000 A 
ATOM     28  C   UNL     1       5.361   4.175  18.179  0.00  0.00    +0.000 A 
ATOM     29  C   UNL     1       6.604   4.816  18.222  0.00  0.00    +0.000 A 
ATOM     30  C   UNL     1       7.322   5.021  17.047  0.00  0.00    +0.000 A 
ATOM     31  C   UNL     1       6.802   4.599  15.828  0.00  0.00    +0.000 A 
ATOM     32  C   UNL     1       5.560   3.960  15.782  0.00  0.00    +0.000 A 
ENDBRANCH  26  27
ENDBRANCH  25  26
ENDBRANCH  22  25
ENDBRANCH  18  19
ENDBRANCH   4  18
TORSDOF 8
ENDMDL
MODEL 9
REMARK VINA RESULT:      -7.5      3.131     10.492
REMARK  Name = 
REMARK  8 active torsions:
REMARK  status: ('A' for Active; 'I' for Inactive)
REMARK    1  A    between atoms: C_2  and  C_11
REMARK    2  A    between atoms: N_3  and  C_4
REMARK    3  A    between atoms: C_4  and  C_5
REMARK    4  A    between atoms: C_14  and  O_15
REMARK    5  A    between atoms: O_15  and  C_16
REMARK    6  A    between atoms: N_19  and  C_20
REMARK    7  A    between atoms: C_20  and  C_21
REMARK    8  A    between atoms: C_21  and  C_22
REMARK                            x       y       z     vdW  Elec       q    Type
REMARK                         _______ _______ _______ _____ _____    ______ ____
ROOT
ATOM      1  C   UNL     1       2.571   7.253  18.602  0.00  0.00    +0.000 A 
ATOM      2  C   UNL     1       2.047   7.349  19.894  0.00  0.00    +0.000 A 
ATOM      3  C   UNL     1       1.369   8.517  20.289  0.00  0.00    +0.000 A 
ATOM      4  C   UNL     1       1.198   9.590  19.401  0.00  0.00    +0.000 A 
ATOM      5  C   UNL     1       1.680   9.451  18.094  0.00  0.00    +0.000 A 
ATOM      6  C   UNL     1       2.361   8.297  17.700  0.00  0.00    +0.000 A 
ENDROOT
BRANCH   1   8
ATOM      7  O   UNL     1       4.570   6.057  18.163  0.00  0.00    +0.000 OA
ATOM      8  C   UNL     1       3.345   6.054  18.170  0.00  0.00    +0.000 C 
ATOM      9  N   UNL     1       2.566   4.983  17.794  0.00  0.00    +0.000 N 
ATOM     10  H   UNL     1       1.608   5.177  17.520  0.00  0.00    +0.000 HD
BRANCH   9  11
ATOM     11  C   UNL     1       3.112   3.715  17.332  0.00  0.00    +0.000 C 
BRANCH  11  12
ATOM     12  C   UNL     1       2.408   2.546  18.051  0.00  0.00    +0.000 C 
ATOM     13  C   UNL     1       1.353   3.005  19.065  0.00  0.00    +0.000 C 
ATOM     14  O   UNL     1       1.962   3.641  20.196  0.00  0.00    +0.000 OA
ATOM     15  C   UNL     1       2.875   2.737  20.835  0.00  0.00    +0.000 C 
ATOM     16  C   UNL     1       3.956   2.287  19.854  0.00  0.00    +0.000 C 
ATOM     17  O   UNL     1       3.377   1.679  18.689  0.00  0.00    +0.000 OA
ENDBRANCH  11  12
ENDBRANCH   9  11
ENDBRANCH   1   8
BRANCH   4  18
ATOM     18  O   UNL     1       0.556  10.704  19.898  0.00  0.00    +0.000 OA
BRANCH  18  19
ATOM     19  C   UNL     1       0.168  11.723  18.954  0.00  0.00    +0.000 C 
ATOM     20  C   UNL     1       0.166  13.106  19.598  0.00  0.00    +0.000 C 
ATOM     21  C   UNL     1      -0.982  13.286  20.593  0.00  0.00    +0.000 C 
ATOM     22  N   UNL     1      -2.316  13.000  20.043  0.00  0.00    +0.000 NA
ATOM     23  C   UNL     1      -2.368  11.711  19.327  0.00  0.00    +0.000 C 
ATOM     24  C   UNL     1      -1.214  11.449  18.363  0.00  0.00    +0.000 C 
BRANCH  22  25
ATOM     25  C   UNL     1      -3.337  12.966  21.130  0.00  0.00    +0.000 C 
BRANCH  25  26
ATOM     26  C   UNL     1      -4.701  13.591  20.786  0.00  0.00    +0.000 C 
BRANCH  26  27
ATOM     27  C   UNL     1      -5.831  12.979  21.593  0.00  0.00    +0.000 A 
ATOM     28  C   UNL     1      -5.914  13.202  22.974  0.00  0.00    +0.000 A 
ATOM     29  C   UNL     1      -6.952  12.633  23.723  0.00  0.00    +0.000 A 
ATOM     30  C   UNL     1      -7.909  11.842  23.095  0.00  0.00    +0.000 A 
ATOM     31  C   UNL     1      -7.833  11.606  21.727  0.00  0.00    +0.000 A 
ATOM     32  C   UNL     1      -6.798  12.171  20.977  0.00  0.00    +0.000 A 
ENDBRANCH  26  27
ENDBRANCH  25  26
ENDBRANCH  22  25
ENDBRANCH  18  19
ENDBRANCH   4  18
TORSDOF 8
ENDMDL
