MODEL 1
REMARK VINA RESULT:      -7.0      0.000      0.000
REMARK  Name = 
REMARK  5 active torsions:
REMARK  status: ('A' for Active; 'I' for Inactive)
REMARK    1  A    between atoms: C_1  and  C_2
REMARK    2  A    between atoms: C_2  and  O_3
REMARK    3  A    between atoms: O_3  and  C_4
REMARK    4  A    between atoms: C_7  and  C_8
REMARK    5  A    between atoms: N_10  and  C_11
REMARK                            x       y       z     vdW  Elec       q    Type
REMARK                         _______ _______ _______ _____ _____    ______ ____
ROOT
ATOM      1  C   UNL     1       7.268  15.519  19.874  0.00  0.00    +0.000 A 
ATOM      2  N   UNL     1       8.051  16.454  20.372  0.00  0.00    +0.000 NA
ATOM      3  N   UNL     1       9.375  16.054  20.643  0.00  0.00    +0.000 N 
ATOM      4  C   UNL     1       9.406  14.813  21.331  0.00  0.00    +0.000 A 
ATOM      5  O   UNL     1       9.351  14.528  22.519  0.00  0.00    +0.000 OA
ATOM      6  N   UNL     1       8.964  13.865  20.407  0.00  0.00    +0.000 N 
ATOM      7  C   UNL     1       7.896  14.191  19.562  0.00  0.00    +0.000 A 
ATOM      8  N   UNL     1       8.096  13.590  18.386  0.00  0.00    +0.000 NA
ATOM      9  C   UNL     1       9.375  12.964  18.464  0.00  0.00    +0.000 A 
ATOM     10  C   UNL     1      10.257  12.438  17.483  0.00  0.00    +0.000 A 
ATOM     11  C   UNL     1      11.603  12.172  17.832  0.00  0.00    +0.000 A 
ATOM     12  C   UNL     1      12.053  12.311  19.143  0.00  0.00    +0.000 A 
ATOM     13  C   UNL     1      11.168  12.676  20.150  0.00  0.00    +0.000 A 
ATOM     14  C   UNL     1       9.863  13.043  19.759  0.00  0.00    +0.000 A 
ENDROOT
BRANCH   1  18
ATOM     15  C   UNL     1       4.837  14.541  21.788  0.00  0.00    +0.000 C 
ATOM     16  O   UNL     1       3.821  14.177  22.354  0.00  0.00    +0.000 OA
ATOM     17  N   UNL     1       4.797  15.282  20.604  0.00  0.00    +0.000 N 
ATOM     18  C   UNL     1       5.848  15.878  19.886  0.00  0.00    +0.000 A 
ATOM     19  N   UNL     1       5.347  16.494  18.813  0.00  0.00    +0.000 NA
ATOM     20  C   UNL     1       3.986  16.299  18.818  0.00  0.00    +0.000 A 
ATOM     21  C   UNL     1       2.997  16.717  17.904  0.00  0.00    +0.000 A 
ATOM     22  C   UNL     1       1.644  16.466  18.183  0.00  0.00    +0.000 A 
ATOM     23  C   UNL     1       1.277  15.751  19.318  0.00  0.00    +0.000 A 
ATOM     24  C   UNL     1       2.251  15.258  20.189  0.00  0.00    +0.000 A 
ATOM     25  C   UNL     1       3.604  15.571  19.931  0.00  0.00    +0.000 A 
BRANCH  15  26
ATOM     26  O   UNL     1       6.108  14.359  22.201  0.00  0.00    +0.000 OA
BRANCH  26  28
ATOM     27  C   UNL     1       6.804  12.198  23.160  0.00  0.00    +0.000 C 
ATOM     28  C   UNL     1       6.214  13.581  23.398  0.00  0.00    +0.000 C 
ENDBRANCH  26  28
ENDBRANCH  15  26
ENDBRANCH   1  18
BRANCH   3  29
ATOM     29  C   UNL     1      10.242  16.245  19.461  0.00  0.00    +0.000 A 
ATOM     30  C   UNL     1       9.687  16.648  18.238  0.00  0.00    +0.000 A 
ATOM     31  C   UNL     1      10.403  16.644  17.039  0.00  0.00    +0.000 A 
ATOM     32  C   UNL     1      11.743  16.317  17.055  0.00  0.00    +0.000 A 
ATOM     33  C   UNL     1      12.333  15.949  18.265  0.00  0.00    +0.000 A 
ATOM     34  C   UNL     1      11.588  15.881  19.456  0.00  0.00    +0.000 A 
ENDBRANCH   3  29
TORSDOF 4
ENDMDL
MODEL 2
REMARK VINA RESULT:      -6.9      6.272      8.731
REMARK  Name = 
REMARK  5 active torsions:
REMARK  status: ('A' for Active; 'I' for Inactive)
REMARK    1  A    between atoms: C_1  and  C_2
REMARK    2  A    between atoms: C_2  and  O_3
REMARK    3  A    between atoms: O_3  and  C_4
REMARK    4  A    between atoms: C_7  and  C_8
REMARK    5  A    between atoms: N_10  and  C_11
REMARK                            x       y       z     vdW  Elec       q    Type
REMARK                         _______ _______ _______ _____ _____    ______ ____
ROOT
ATOM      1  C   UNL     1       0.974  12.139  19.513  0.00  0.00    +0.000 A 
ATOM      2  N   UNL     1       0.334  12.799  18.569  0.00  0.00    +0.000 NA
ATOM      3  N   UNL     1      -0.009  14.128  18.885  0.00  0.00    +0.000 N 
ATOM      4  C   UNL     1      -0.588  14.216  20.179  0.00  0.00    +0.000 A 
ATOM      5  O   UNL     1      -1.738  14.096  20.576  0.00  0.00    +0.000 OA
ATOM      6  N   UNL     1       0.447  13.928  21.069  0.00  0.00    +0.000 N 
ATOM      7  C   UNL     1       1.346  12.901  20.753  0.00  0.00    +0.000 A 
ATOM      8  N   UNL     1       2.549  13.240  21.223  0.00  0.00    +0.000 NA
ATOM      9  C   UNL     1       2.420  14.560  21.750  0.00  0.00    +0.000 A 
ATOM     10  C   UNL     1       3.367  15.555  22.112  0.00  0.00    +0.000 A 
ATOM     11  C   UNL     1       2.932  16.889  22.301  0.00  0.00    +0.000 A 
ATOM     12  C   UNL     1       1.581  17.225  22.248  0.00  0.00    +0.000 A 
ATOM     13  C   UNL     1       0.624  16.239  22.050  0.00  0.00    +0.000 A 
ATOM     14  C   UNL     1       1.088  14.941  21.753  0.00  0.00    +0.000 A 
ENDROOT
BRANCH   1  18
ATOM     15  C   UNL     1       0.050   9.620  21.337  0.00  0.00    +0.000 C 
ATOM     16  O   UNL     1      -0.145   8.591  21.960  0.00  0.00    +0.000 OA
ATOM     17  N   UNL     1       0.817   9.641  20.170  0.00  0.00    +0.000 N 
ATOM     18  C   UNL     1       1.048  10.697  19.271  0.00  0.00    +0.000 A 
ATOM     19  N   UNL     1       1.842  10.265  18.289  0.00  0.00    +0.000 NA
ATOM     20  C   UNL     1       2.140   8.947  18.542  0.00  0.00    +0.000 A 
ATOM     21  C   UNL     1       2.952   8.038  17.833  0.00  0.00    +0.000 A 
ATOM     22  C   UNL     1       3.024   6.699  18.251  0.00  0.00    +0.000 A 
ATOM     23  C   UNL     1       2.355   6.280  19.397  0.00  0.00    +0.000 A 
ATOM     24  C   UNL     1       1.615   7.188  20.157  0.00  0.00    +0.000 A 
ATOM     25  C   UNL     1       1.499   8.516  19.691  0.00  0.00    +0.000 A 
BRANCH  15  26
ATOM     26  O   UNL     1      -0.455  10.841  21.605  0.00  0.00    +0.000 OA
BRANCH  26  28
ATOM     27  C   UNL     1      -2.169  11.798  23.097  0.00  0.00    +0.000 C 
ATOM     28  C   UNL     1      -0.880  10.998  22.963  0.00  0.00    +0.000 C 
ENDBRANCH  26  28
ENDBRANCH  15  26
ENDBRANCH   1  18
BRANCH   3  29
ATOM     29  C   UNL     1       1.076  15.062  18.517  0.00  0.00    +0.000 A 
ATOM     30  C   UNL     1       0.835  16.443  18.481  0.00  0.00    +0.000 A 
ATOM     31  C   UNL     1       1.740  17.360  17.943  0.00  0.00    +0.000 A 
ATOM     32  C   UNL     1       2.970  16.915  17.504  0.00  0.00    +0.000 A 
ATOM     33  C   UNL     1       3.255  15.550  17.564  0.00  0.00    +0.000 A 
ATOM     34  C   UNL     1       2.309  14.622  18.036  0.00  0.00    +0.000 A 
ENDBRANCH   3  29
TORSDOF 4
ENDMDL
MODEL 3
REMARK VINA RESULT:      -6.8      9.303     11.687
REMARK  Name = 
REMARK  5 active torsions:
REMARK  status: ('A' for Active; 'I' for Inactive)
REMARK    1  A    between atoms: C_1  and  C_2
REMARK    2  A    between atoms: C_2  and  O_3
REMARK    3  A    between atoms: O_3  and  C_4
REMARK    4  A    between atoms: C_7  and  C_8
REMARK    5  A    between atoms: N_10  and  C_11
REMARK                            x       y       z     vdW  Elec       q    Type
REMARK                         _______ _______ _______ _____ _____    ______ ____
ROOT
ATOM      1  C   UNL     1      -2.702  13.050  20.839  0.00  0.00    +0.000 A 
ATOM      2  N   UNL     1      -3.203  12.680  22.001  0.00  0.00    +0.000 NA
ATOM      3  N   UNL     1      -2.805  13.457  23.107  0.00  0.00    +0.000 N 
ATOM      4  C   UNL     1      -1.402  13.682  23.099  0.00  0.00    +0.000 A 
ATOM      5  O   UNL     1      -0.463  13.037  23.541  0.00  0.00    +0.000 OA
ATOM      6  N   UNL     1      -1.167  14.523  22.011  0.00  0.00    +0.000 N 
ATOM      7  C   UNL     1      -1.865  14.297  20.818  0.00  0.00    +0.000 A 
ATOM      8  N   UNL     1      -2.099  15.479  20.241  0.00  0.00    +0.000 NA
ATOM      9  C   UNL     1      -1.632  16.473  21.152  0.00  0.00    +0.000 A 
ATOM     10  C   UNL     1      -1.852  17.873  21.253  0.00  0.00    +0.000 A 
ATOM     11  C   UNL     1      -1.516  18.542  22.455  0.00  0.00    +0.000 A 
ATOM     12  C   UNL     1      -0.873  17.878  23.498  0.00  0.00    +0.000 A 
ATOM     13  C   UNL     1      -0.509  16.545  23.359  0.00  0.00    +0.000 A 
ATOM     14  C   UNL     1      -0.953  15.873  22.201  0.00  0.00    +0.000 A 
ENDROOT
BRANCH   1  18
ATOM     15  C   UNL     1      -0.716  10.764  19.674  0.00  0.00    +0.000 C 
ATOM     16  O   UNL     1      -0.040   9.948  19.072  0.00  0.00    +0.000 OA
ATOM     17  N   UNL     1      -1.938  11.222  19.175  0.00  0.00    +0.000 N 
ATOM     18  C   UNL     1      -2.893  12.060  19.778  0.00  0.00    +0.000 A 
ATOM     19  N   UNL     1      -3.914  12.230  18.936  0.00  0.00    +0.000 NA
ATOM     20  C   UNL     1      -3.633  11.524  17.790  0.00  0.00    +0.000 A 
ATOM     21  C   UNL     1      -4.365  11.390  16.593  0.00  0.00    +0.000 A 
ATOM     22  C   UNL     1      -3.901  10.525  15.588  0.00  0.00    +0.000 A 
ATOM     23  C   UNL     1      -2.693   9.852  15.738  0.00  0.00    +0.000 A 
ATOM     24  C   UNL     1      -1.915  10.040  16.882  0.00  0.00    +0.000 A 
ATOM     25  C   UNL     1      -2.423  10.862  17.912  0.00  0.00    +0.000 A 
BRANCH  15  26
ATOM     26  O   UNL     1      -0.458  11.298  20.885  0.00  0.00    +0.000 OA
BRANCH  26  28
ATOM     27  C   UNL     1      -0.553   9.619  22.687  0.00  0.00    +0.000 C 
ATOM     28  C   UNL     1       0.308  10.441  21.737  0.00  0.00    +0.000 C 
ENDBRANCH  26  28
ENDBRANCH  15  26
ENDBRANCH   1  18
BRANCH   3  29
ATOM     29  C   UNL     1      -3.717  14.602  23.311  0.00  0.00    +0.000 A 
ATOM     30  C   UNL     1      -3.570  15.428  24.435  0.00  0.00    +0.000 A 
ATOM     31  C   UNL     1      -4.514  16.389  24.802  0.00  0.00    +0.000 A 
ATOM     32  C   UNL     1      -5.603  16.610  23.985  0.00  0.00    +0.000 A 
ATOM     33  C   UNL     1      -5.756  15.830  22.838  0.00  0.00    +0.000 A 
ATOM     34  C   UNL     1      -4.842  14.811  22.514  0.00  0.00    +0.000 A 
ENDBRANCH   3  29
TORSDOF 4
ENDMDL
MODEL 4
REMARK VINA RESULT:      -6.7      8.697     13.415
REMARK  Name = 
REMARK  5 active torsions:
REMARK  status: ('A' for Active; 'I' for Inactive)
REMARK    1  A    between atoms: C_1  and  C_2
REMARK    2  A    between atoms: C_2  and  O_3
REMARK    3  A    between atoms: O_3  and  C_4
REMARK    4  A    between atoms: C_7  and  C_8
REMARK    5  A    between atoms: N_10  and  C_11
REMARK                            x       y       z     vdW  Elec       q    Type
REMARK                         _______ _______ _______ _____ _____    ______ ____
ROOT
ATOM      1  C   UNL     1      -2.749  13.178  21.089  0.00  0.00    +0.000 A 
ATOM      2  N   UNL     1      -3.026  12.377  22.099  0.00  0.00    +0.000 NA
ATOM      3  N   UNL     1      -3.617  12.997  23.218  0.00  0.00    +0.000 N 
ATOM      4  C   UNL     1      -2.932  14.191  23.566  0.00  0.00    +0.000 A 
ATOM      5  O   UNL     1      -1.964  14.407  24.281  0.00  0.00    +0.000 OA
ATOM      6  N   UNL     1      -3.192  15.085  22.526  0.00  0.00    +0.000 N 
ATOM      7  C   UNL     1      -3.184  14.610  21.209  0.00  0.00    +0.000 A 
ATOM      8  N   UNL     1      -4.101  15.290  20.515  0.00  0.00    +0.000 NA
ATOM      9  C   UNL     1      -4.772  16.133  21.450  0.00  0.00    +0.000 A 
ATOM     10  C   UNL     1      -5.995  16.855  21.399  0.00  0.00    +0.000 A 
ATOM     11  C   UNL     1      -6.562  17.343  22.601  0.00  0.00    +0.000 A 
ATOM     12  C   UNL     1      -5.893  17.227  23.818  0.00  0.00    +0.000 A 
ATOM     13  C   UNL     1      -4.625  16.663  23.866  0.00  0.00    +0.000 A 
ATOM     14  C   UNL     1      -4.131  16.084  22.678  0.00  0.00    +0.000 A 
ENDROOT
BRANCH   1  18
ATOM     15  C   UNL     1      -3.446  11.427  18.448  0.00  0.00    +0.000 C 
ATOM     16  O   UNL     1      -3.560  10.670  17.500  0.00  0.00    +0.000 OA
ATOM     17  N   UNL     1      -2.215  11.654  19.067  0.00  0.00    +0.000 N 
ATOM     18  C   UNL     1      -1.879  12.568  20.082  0.00  0.00    +0.000 A 
ATOM     19  N   UNL     1      -0.581  12.444  20.366  0.00  0.00    +0.000 NA
ATOM     20  C   UNL     1      -0.069  11.456  19.557  0.00  0.00    +0.000 A 
ATOM     21  C   UNL     1       1.233  10.923  19.474  0.00  0.00    +0.000 A 
ATOM     22  C   UNL     1       1.530   9.968  18.488  0.00  0.00    +0.000 A 
ATOM     23  C   UNL     1       0.535   9.496  17.638  0.00  0.00    +0.000 A 
ATOM     24  C   UNL     1      -0.778   9.953  17.765  0.00  0.00    +0.000 A 
ATOM     25  C   UNL     1      -1.051  10.959  18.718  0.00  0.00    +0.000 A 
BRANCH  15  26
ATOM     26  O   UNL     1      -4.414  12.185  19.004  0.00  0.00    +0.000 OA
BRANCH  26  28
ATOM     27  C   UNL     1      -6.662  11.317  18.487  0.00  0.00    +0.000 C 
ATOM     28  C   UNL     1      -5.571  12.333  18.175  0.00  0.00    +0.000 C 
ENDBRANCH  26  28
ENDBRANCH  15  26
ENDBRANCH   1  18
BRANCH   3  29
ATOM     29  C   UNL     1      -5.090  13.020  23.100  0.00  0.00    +0.000 A 
ATOM     30  C   UNL     1      -5.880  13.384  24.201  0.00  0.00    +0.000 A 
ATOM     31  C   UNL     1      -7.266  13.226  24.228  0.00  0.00    +0.000 A 
ATOM     32  C   UNL     1      -7.916  12.777  23.097  0.00  0.00    +0.000 A 
ATOM     33  C   UNL     1      -7.161  12.444  21.971  0.00  0.00    +0.000 A 
ATOM     34  C   UNL     1      -5.757  12.532  21.977  0.00  0.00    +0.000 A 
ENDBRANCH   3  29
TORSDOF 4
ENDMDL
MODEL 5
REMARK VINA RESULT:      -6.5      9.149     13.444
REMARK  Name = 
REMARK  5 active torsions:
REMARK  status: ('A' for Active; 'I' for Inactive)
REMARK    1  A    between atoms: C_1  and  C_2
REMARK    2  A    between atoms: C_2  and  O_3
REMARK    3  A    between atoms: O_3  and  C_4
REMARK    4  A    between atoms: C_7  and  C_8
REMARK    5  A    between atoms: N_10  and  C_11
REMARK                            x       y       z     vdW  Elec       q    Type
REMARK                         _______ _______ _______ _____ _____    ______ ____
ROOT
ATOM      1  C   UNL     1      -3.192  13.541  20.478  0.00  0.00    +0.000 A 
ATOM      2  N   UNL     1      -2.956  14.836  20.537  0.00  0.00    +0.000 NA
ATOM      3  N   UNL     1      -4.007  15.620  21.052  0.00  0.00    +0.000 N 
ATOM      4  C   UNL     1      -5.251  15.260  20.468  0.00  0.00    +0.000 A 
ATOM      5  O   UNL     1      -5.820  15.627  19.451  0.00  0.00    +0.000 OA
ATOM      6  N   UNL     1      -5.533  13.982  20.953  0.00  0.00    +0.000 N 
ATOM      7  C   UNL     1      -4.491  13.052  21.054  0.00  0.00    +0.000 A 
ATOM      8  N   UNL     1      -4.721  12.281  22.119  0.00  0.00    +0.000 NA
ATOM      9  C   UNL     1      -5.877  12.814  22.762  0.00  0.00    +0.000 A 
ATOM     10  C   UNL     1      -6.437  12.633  24.056  0.00  0.00    +0.000 A 
ATOM     11  C   UNL     1      -7.413  13.546  24.522  0.00  0.00    +0.000 A 
ATOM     12  C   UNL     1      -7.916  14.552  23.700  0.00  0.00    +0.000 A 
ATOM     13  C   UNL     1      -7.496  14.651  22.380  0.00  0.00    +0.000 A 
ATOM     14  C   UNL     1      -6.444  13.803  21.974  0.00  0.00    +0.000 A 
ENDROOT
BRANCH   1  18
ATOM     15  C   UNL     1      -3.587  11.422  18.052  0.00  0.00    +0.000 C 
ATOM     16  O   UNL     1      -3.594  10.537  17.215  0.00  0.00    +0.000 OA
ATOM     17  N   UNL     1      -2.435  11.751  18.769  0.00  0.00    +0.000 N 
ATOM     18  C   UNL     1      -2.214  12.804  19.674  0.00  0.00    +0.000 A 
ATOM     19  N   UNL     1      -0.957  12.739  20.120  0.00  0.00    +0.000 NA
ATOM     20  C   UNL     1      -0.360  11.653  19.525  0.00  0.00    +0.000 A 
ATOM     21  C   UNL     1       0.941  11.129  19.668  0.00  0.00    +0.000 A 
ATOM     22  C   UNL     1       1.346  10.047  18.869  0.00  0.00    +0.000 A 
ATOM     23  C   UNL     1       0.454   9.446  17.988  0.00  0.00    +0.000 A 
ATOM     24  C   UNL     1      -0.864   9.900  17.896  0.00  0.00    +0.000 A 
ATOM     25  C   UNL     1      -1.241  11.028  18.658  0.00  0.00    +0.000 A 
BRANCH  15  26
ATOM     26  O   UNL     1      -4.609  12.239  18.379  0.00  0.00    +0.000 OA
BRANCH  26  28
ATOM     27  C   UNL     1      -6.483  13.167  17.073  0.00  0.00    +0.000 C 
ATOM     28  C   UNL     1      -5.826  11.938  17.688  0.00  0.00    +0.000 C 
ENDBRANCH  26  28
ENDBRANCH  15  26
ENDBRANCH   1  18
BRANCH   3  29
ATOM     29  C   UNL     1      -3.910  15.744  22.522  0.00  0.00    +0.000 A 
ATOM     30  C   UNL     1      -4.763  16.616  23.213  0.00  0.00    +0.000 A 
ATOM     31  C   UNL     1      -4.590  16.942  24.559  0.00  0.00    +0.000 A 
ATOM     32  C   UNL     1      -3.594  16.317  25.281  0.00  0.00    +0.000 A 
ATOM     33  C   UNL     1      -2.754  15.413  24.630  0.00  0.00    +0.000 A 
ATOM     34  C   UNL     1      -2.884  15.148  23.255  0.00  0.00    +0.000 A 
ENDBRANCH   3  29
TORSDOF 4
ENDMDL
MODEL 6
REMARK VINA RESULT:      -6.5     10.252     13.390
REMARK  Name = 
REMARK  5 active torsions:
REMARK  status: ('A' for Active; 'I' for Inactive)
REMARK    1  A    between atoms: C_1  and  C_2
REMARK    2  A    between atoms: C_2  and  O_3
REMARK    3  A    between atoms: O_3  and  C_4
REMARK    4  A    between atoms: C_7  and  C_8
REMARK    5  A    between atoms: N_10  and  C_11
REMARK                            x       y       z     vdW  Elec       q    Type
REMARK                         _______ _______ _______ _____ _____    ______ ____
ROOT
ATOM      1  C   UNL     1      -4.435  12.829  20.965  0.00  0.00    +0.000 A 
ATOM      2  N   UNL     1      -5.494  12.379  21.608  0.00  0.00    +0.000 NA
ATOM      3  N   UNL     1      -5.739  12.974  22.861  0.00  0.00    +0.000 N 
ATOM      4  C   UNL     1      -4.551  13.049  23.636  0.00  0.00    +0.000 A 
ATOM      5  O   UNL     1      -4.016  12.262  24.403  0.00  0.00    +0.000 OA
ATOM      6  N   UNL     1      -3.743  13.984  22.986  0.00  0.00    +0.000 N 
ATOM      7  C   UNL     1      -3.688  13.974  21.587  0.00  0.00    +0.000 A 
ATOM      8  N   UNL     1      -3.543  15.234  21.166  0.00  0.00    +0.000 NA
ATOM      9  C   UNL     1      -3.620  16.059  22.328  0.00  0.00    +0.000 A 
ATOM     10  C   UNL     1      -3.824  17.453  22.514  0.00  0.00    +0.000 A 
ATOM     11  C   UNL     1      -4.176  17.936  23.797  0.00  0.00    +0.000 A 
ATOM     12  C   UNL     1      -4.217  17.090  24.904  0.00  0.00    +0.000 A 
ATOM     13  C   UNL     1      -3.869  15.753  24.774  0.00  0.00    +0.000 A 
ATOM     14  C   UNL     1      -3.632  15.272  23.468  0.00  0.00    +0.000 A 
ENDROOT
BRANCH   1  18
ATOM     15  C   UNL     1      -1.550  11.631  20.087  0.00  0.00    +0.000 C 
ATOM     16  O   UNL     1      -0.519  11.218  19.585  0.00  0.00    +0.000 OA
ATOM     17  N   UNL     1      -2.753  11.666  19.379  0.00  0.00    +0.000 N 
ATOM     18  C   UNL     1      -4.045  11.995  19.826  0.00  0.00    +0.000 A 
ATOM     19  N   UNL     1      -4.899  11.888  18.805  0.00  0.00    +0.000 NA
ATOM     20  C   UNL     1      -4.179  11.503  17.699  0.00  0.00    +0.000 A 
ATOM     21  C   UNL     1      -4.593  11.274  16.371  0.00  0.00    +0.000 A 
ATOM     22  C   UNL     1      -3.670  10.792  15.429  0.00  0.00    +0.000 A 
ATOM     23  C   UNL     1      -2.337  10.603  15.779  0.00  0.00    +0.000 A 
ATOM     24  C   UNL     1      -1.894  10.907  17.068  0.00  0.00    +0.000 A 
ATOM     25  C   UNL     1      -2.845  11.330  18.023  0.00  0.00    +0.000 A 
BRANCH  15  26
ATOM     26  O   UNL     1      -1.724  12.050  21.357  0.00  0.00    +0.000 OA
BRANCH  26  28
ATOM     27  C   UNL     1      -0.980  10.511  23.133  0.00  0.00    +0.000 C 
ATOM     28  C   UNL     1      -0.648  11.692  22.230  0.00  0.00    +0.000 C 
ENDBRANCH  26  28
ENDBRANCH  15  26
ENDBRANCH   1  18
BRANCH   3  29
ATOM     29  C   UNL     1      -6.587  14.176  22.725  0.00  0.00    +0.000 A 
ATOM     30  C   UNL     1      -6.907  14.672  21.452  0.00  0.00    +0.000 A 
ATOM     31  C   UNL     1      -7.520  15.909  21.249  0.00  0.00    +0.000 A 
ATOM     32  C   UNL     1      -7.916  16.653  22.341  0.00  0.00    +0.000 A 
ATOM     33  C   UNL     1      -7.647  16.167  23.622  0.00  0.00    +0.000 A 
ATOM     34  C   UNL     1      -6.960  14.956  23.819  0.00  0.00    +0.000 A 
ENDBRANCH   3  29
TORSDOF 4
ENDMDL
MODEL 7
REMARK VINA RESULT:      -6.4      8.504     11.018
REMARK  Name = 
REMARK  5 active torsions:
REMARK  status: ('A' for Active; 'I' for Inactive)
REMARK    1  A    between atoms: C_1  and  C_2
REMARK    2  A    between atoms: C_2  and  O_3
REMARK    3  A    between atoms: O_3  and  C_4
REMARK    4  A    between atoms: C_7  and  C_8
REMARK    5  A    between atoms: N_10  and  C_11
REMARK                            x       y       z     vdW  Elec       q    Type
REMARK                         _______ _______ _______ _____ _____    ______ ____
ROOT
ATOM      1  C   UNL     1      -1.888  13.067  20.822  0.00  0.00    +0.000 A 
ATOM      2  N   UNL     1      -1.595  12.541  21.995  0.00  0.00    +0.000 NA
ATOM      3  N   UNL     1      -0.927  13.398  22.892  0.00  0.00    +0.000 N 
ATOM      4  C   UNL     1       0.143  14.079  22.254  0.00  0.00    +0.000 A 
ATOM      5  O   UNL     1       1.314  13.783  22.068  0.00  0.00    +0.000 OA
ATOM      6  N   UNL     1      -0.462  14.959  21.355  0.00  0.00    +0.000 N 
ATOM      7  C   UNL     1      -1.574  14.522  20.624  0.00  0.00    +0.000 A 
ATOM      8  N   UNL     1      -2.394  15.561  20.450  0.00  0.00    +0.000 NA
ATOM      9  C   UNL     1      -1.833  16.647  21.185  0.00  0.00    +0.000 A 
ATOM     10  C   UNL     1      -2.357  17.892  21.626  0.00  0.00    +0.000 A 
ATOM     11  C   UNL     1      -1.660  18.625  22.616  0.00  0.00    +0.000 A 
ATOM     12  C   UNL     1      -0.416  18.207  23.087  0.00  0.00    +0.000 A 
ATOM     13  C   UNL     1       0.186  17.075  22.556  0.00  0.00    +0.000 A 
ATOM     14  C   UNL     1      -0.575  16.302  21.655  0.00  0.00    +0.000 A 
ENDROOT
BRANCH   1  18
ATOM     15  C   UNL     1      -0.235  10.685  19.364  0.00  0.00    +0.000 C 
ATOM     16  O   UNL     1       0.289   9.836  18.665  0.00  0.00    +0.000 OA
ATOM     17  N   UNL     1      -1.505  11.194  19.078  0.00  0.00    +0.000 N 
ATOM     18  C   UNL     1      -2.303  12.077  19.826  0.00  0.00    +0.000 A 
ATOM     19  N   UNL     1      -3.448  12.287  19.173  0.00  0.00    +0.000 NA
ATOM     20  C   UNL     1      -3.402  11.560  18.007  0.00  0.00    +0.000 A 
ATOM     21  C   UNL     1      -4.338  11.450  16.957  0.00  0.00    +0.000 A 
ATOM     22  C   UNL     1      -4.094  10.558  15.901  0.00  0.00    +0.000 A 
ATOM     23  C   UNL     1      -2.908   9.832  15.847  0.00  0.00    +0.000 A 
ATOM     24  C   UNL     1      -1.935   9.994  16.835  0.00  0.00    +0.000 A 
ATOM     25  C   UNL     1      -2.219  10.846  17.925  0.00  0.00    +0.000 A 
BRANCH  15  26
ATOM     26  O   UNL     1       0.253  11.217  20.503  0.00  0.00    +0.000 OA
BRANCH  26  28
ATOM     27  C   UNL     1       0.108   9.501  22.266  0.00  0.00    +0.000 C 
ATOM     28  C   UNL     1       0.988  10.283  21.300  0.00  0.00    +0.000 C 
ENDBRANCH  26  28
ENDBRANCH  15  26
ENDBRANCH   1  18
BRANCH   3  29
ATOM     29  C   UNL     1      -1.888  14.169  23.708  0.00  0.00    +0.000 A 
ATOM     30  C   UNL     1      -3.256  14.142  23.399  0.00  0.00    +0.000 A 
ATOM     31  C   UNL     1      -4.186  15.002  23.986  0.00  0.00    +0.000 A 
ATOM     32  C   UNL     1      -3.774  15.863  24.981  0.00  0.00    +0.000 A 
ATOM     33  C   UNL     1      -2.425  15.886  25.338  0.00  0.00    +0.000 A 
ATOM     34  C   UNL     1      -1.479  15.072  24.690  0.00  0.00    +0.000 A 
ENDBRANCH   3  29
TORSDOF 4
ENDMDL
MODEL 8
REMARK VINA RESULT:      -6.4      6.372      9.018
REMARK  Name = 
REMARK  5 active torsions:
REMARK  status: ('A' for Active; 'I' for Inactive)
REMARK    1  A    between atoms: C_1  and  C_2
REMARK    2  A    between atoms: C_2  and  O_3
REMARK    3  A    between atoms: O_3  and  C_4
REMARK    4  A    between atoms: C_7  and  C_8
REMARK    5  A    between atoms: N_10  and  C_11
REMARK                            x       y       z     vdW  Elec       q    Type
REMARK                         _______ _______ _______ _____ _____    ______ ____
ROOT
ATOM      1  C   UNL     1       0.486  13.137  20.371  0.00  0.00    +0.000 A 
ATOM      2  N   UNL     1      -0.744  13.607  20.437  0.00  0.00    +0.000 NA
ATOM      3  N   UNL     1      -0.885  14.839  21.105  0.00  0.00    +0.000 N 
ATOM      4  C   UNL     1      -0.173  14.842  22.334  0.00  0.00    +0.000 A 
ATOM      5  O   UNL     1      -0.478  14.487  23.464  0.00  0.00    +0.000 OA
ATOM      6  N   UNL     1       1.177  14.819  21.981  0.00  0.00    +0.000 N 
ATOM      7  C   UNL     1       1.584  14.004  20.917  0.00  0.00    +0.000 A 
ATOM      8  N   UNL     1       2.589  14.615  20.285  0.00  0.00    +0.000 NA
ATOM      9  C   UNL     1       2.740  15.891  20.903  0.00  0.00    +0.000 A 
ATOM     10  C   UNL     1       3.412  17.082  20.516  0.00  0.00    +0.000 A 
ATOM     11  C   UNL     1       3.114  18.294  21.185  0.00  0.00    +0.000 A 
ATOM     12  C   UNL     1       2.260  18.324  22.285  0.00  0.00    +0.000 A 
ATOM     13  C   UNL     1       1.714  17.146  22.777  0.00  0.00    +0.000 A 
ATOM     14  C   UNL     1       1.935  15.971  22.029  0.00  0.00    +0.000 A 
ENDROOT
BRANCH   1  18
ATOM     15  C   UNL     1       0.116  10.375  22.035  0.00  0.00    +0.000 C 
ATOM     16  O   UNL     1       0.113   9.273  22.555  0.00  0.00    +0.000 OA
ATOM     17  N   UNL     1       0.583  10.576  20.734  0.00  0.00    +0.000 N 
ATOM     18  C   UNL     1       0.554  11.738  19.942  0.00  0.00    +0.000 A 
ATOM     19  N   UNL     1       1.108  11.471  18.758  0.00  0.00    +0.000 NA
ATOM     20  C   UNL     1       1.506  10.155  18.771  0.00  0.00    +0.000 A 
ATOM     21  C   UNL     1       2.160   9.385  17.787  0.00  0.00    +0.000 A 
ATOM     22  C   UNL     1       2.380   8.016  18.009  0.00  0.00    +0.000 A 
ATOM     23  C   UNL     1       2.018   7.429  19.217  0.00  0.00    +0.000 A 
ATOM     24  C   UNL     1       1.446   8.197  20.234  0.00  0.00    +0.000 A 
ATOM     25  C   UNL     1       1.173   9.559  19.975  0.00  0.00    +0.000 A 
BRANCH  15  26
ATOM     26  O   UNL     1      -0.357  11.524  22.561  0.00  0.00    +0.000 OA
BRANCH  26  28
ATOM     27  C   UNL     1      -2.728  12.145  22.816  0.00  0.00    +0.000 C 
ATOM     28  C   UNL     1      -1.542  11.349  23.343  0.00  0.00    +0.000 C 
ENDBRANCH  26  28
ENDBRANCH  15  26
ENDBRANCH   1  18
BRANCH   3  29
ATOM     29  C   UNL     1      -0.720  15.974  20.174  0.00  0.00    +0.000 A 
ATOM     30  C   UNL     1      -1.047  17.275  20.584  0.00  0.00    +0.000 A 
ATOM     31  C   UNL     1      -1.118  18.356  19.702  0.00  0.00    +0.000 A 
ATOM     32  C   UNL     1      -0.766  18.172  18.381  0.00  0.00    +0.000 A 
ATOM     33  C   UNL     1      -0.398  16.896  17.952  0.00  0.00    +0.000 A 
ATOM     34  C   UNL     1      -0.403  15.796  18.828  0.00  0.00    +0.000 A 
ENDBRANCH   3  29
TORSDOF 4
ENDMDL
MODEL 9
REMARK VINA RESULT:      -6.4      7.467     11.191
REMARK  Name = 
REMARK  5 active torsions:
REMARK  status: ('A' for Active; 'I' for Inactive)
REMARK    1  A    between atoms: C_1  and  C_2
REMARK    2  A    between atoms: C_2  and  O_3
REMARK    3  A    between atoms: O_3  and  C_4
REMARK    4  A    between atoms: C_7  and  C_8
REMARK    5  A    between atoms: N_10  and  C_11
REMARK                            x       y       z     vdW  Elec       q    Type
REMARK                         _______ _______ _______ _____ _____    ______ ____
ROOT
ATOM      1  C   UNL     1      -0.853  12.752  21.550  0.00  0.00    +0.000 A 
ATOM      2  N   UNL     1      -2.056  12.610  21.031  0.00  0.00    +0.000 NA
ATOM      3  N   UNL     1      -3.109  13.169  21.781  0.00  0.00    +0.000 N 
ATOM      4  C   UNL     1      -3.002  12.825  23.155  0.00  0.00    +0.000 A 
ATOM      5  O   UNL     1      -3.398  11.863  23.796  0.00  0.00    +0.000 OA
ATOM      6  N   UNL     1      -1.875  13.506  23.620  0.00  0.00    +0.000 N 
ATOM      7  C   UNL     1      -0.739  13.570  22.804  0.00  0.00    +0.000 A 
ATOM      8  N   UNL     1      -0.144  14.748  23.010  0.00  0.00    +0.000 NA
ATOM      9  C   UNL     1      -0.991  15.480  23.894  0.00  0.00    +0.000 A 
ATOM     10  C   UNL     1      -1.066  16.854  24.249  0.00  0.00    +0.000 A 
ATOM     11  C   UNL     1      -2.221  17.338  24.907  0.00  0.00    +0.000 A 
ATOM     12  C   UNL     1      -3.239  16.477  25.313  0.00  0.00    +0.000 A 
ATOM     13  C   UNL     1      -3.115  15.108  25.115  0.00  0.00    +0.000 A 
ATOM     14  C   UNL     1      -2.010  14.663  24.359  0.00  0.00    +0.000 A 
ENDROOT
BRANCH   1  18
ATOM     15  C   UNL     1       0.983  13.262  18.924  0.00  0.00    +0.000 C 
ATOM     16  O   UNL     1       1.646  13.275  17.902  0.00  0.00    +0.000 OA
ATOM     17  N   UNL     1       0.789  12.092  19.663  0.00  0.00    +0.000 N 
ATOM     18  C   UNL     1       0.163  11.915  20.909  0.00  0.00    +0.000 A 
ATOM     19  N   UNL     1       0.212  10.623  21.240  0.00  0.00    +0.000 NA
ATOM     20  C   UNL     1       0.853   9.956  20.223  0.00  0.00    +0.000 A 
ATOM     21  C   UNL     1       1.142   8.585  20.066  0.00  0.00    +0.000 A 
ATOM     22  C   UNL     1       1.900   8.157  18.963  0.00  0.00    +0.000 A 
ATOM     23  C   UNL     1       2.309   9.065  17.992  0.00  0.00    +0.000 A 
ATOM     24  C   UNL     1       1.957  10.413  18.091  0.00  0.00    +0.000 A 
ATOM     25  C   UNL     1       1.250  10.841  19.236  0.00  0.00    +0.000 A 
BRANCH  15  26
ATOM     26  O   UNL     1       0.399  14.317  19.527  0.00  0.00    +0.000 OA
BRANCH  26  28
ATOM     27  C   UNL     1       1.035  16.620  18.921  0.00  0.00    +0.000 C 
ATOM     28  C   UNL     1       1.301  15.397  19.789  0.00  0.00    +0.000 C 
ENDBRANCH  26  28
ENDBRANCH  15  26
ENDBRANCH   1  18
BRANCH   3  29
ATOM     29  C   UNL     1      -3.340  14.581  21.408  0.00  0.00    +0.000 A 
ATOM     30  C   UNL     1      -2.413  15.256  20.600  0.00  0.00    +0.000 A 
ATOM     31  C   UNL     1      -2.455  16.634  20.383  0.00  0.00    +0.000 A 
ATOM     32  C   UNL     1      -3.499  17.368  20.907  0.00  0.00    +0.000 A 
ATOM     33  C   UNL     1      -4.459  16.717  21.683  0.00  0.00    +0.000 A 
ATOM     34  C   UNL     1      -4.369  15.341  21.961  0.00  0.00    +0.000 A 
ENDBRANCH   3  29
TORSDOF 4
ENDMDL
