MODEL 1
REMARK VINA RESULT:      -7.8      0.000      0.000
REMARK  Name = 
REMARK  10 active torsions:
REMARK  status: ('A' for Active; 'I' for Inactive)
REMARK    1  A    between atoms: C_1  and  C_2
REMARK    2  A    between atoms: C_8  and  N_9
REMARK    3  A    between atoms: C_10  and  C_12
REMARK    4  A    between atoms: C_12  and  O_13
REMARK    5  A    between atoms: O_13  and  C_14
REMARK    6  A    between atoms: C_14  and  C_16
REMARK    7  A    between atoms: C_19  and  N_20
REMARK    8  A    between atoms: C_21  and  C_23
REMARK    9  A    between atoms: C_23  and  C_24
REMARK   10  A    between atoms: C_28  and  C_29
REMARK                            x       y       z     vdW  Elec       q    Type
REMARK                         _______ _______ _______ _____ _____    ______ ____
ROOT
ATOM      1  C   UNL     1       8.442   8.492  18.251  0.00  0.00    +0.000 C 
ENDROOT
BRANCH   1   3
ATOM      2  N   UNL     1       9.382  10.182  19.744  0.00  0.00    +0.000 N 
ATOM      3  C   UNL     1       8.628   9.969  18.602  0.00  0.00    +0.000 C 
ATOM      4  O   UNL     1       8.199  10.860  17.872  0.00  0.00    +0.000 OA
ATOM      5  H   UNL     1      10.037   9.451  19.994  0.00  0.00    +0.000 HD
BRANCH   2  13
ATOM      6  C   UNL     1       8.727  16.528  21.339  0.00  0.00    +0.000 C 
ATOM      7  C   UNL     1       9.743  15.856  22.269  0.00  0.00    +0.000 C 
ATOM      8  C   UNL     1      11.144  15.785  21.621  0.00  0.00    +0.000 C 
ATOM      9  C   UNL     1      11.175  14.899  20.369  0.00  0.00    +0.000 C 
ATOM     10  C   UNL     1      10.433  13.612  20.577  0.00  0.00    +0.000 A 
ATOM     11  C   UNL     1       9.535  13.439  21.616  0.00  0.00    +0.000 A 
ATOM     12  S   UNL     1       8.720  11.945  21.526  0.00  0.00    +0.000 S 
ATOM     13  C   UNL     1       9.646  11.465  20.177  0.00  0.00    +0.000 A 
ATOM     14  C   UNL     1      10.487  12.457  19.728  0.00  0.00    +0.000 A 
ATOM     15  C   UNL     1       9.268  14.446  22.700  0.00  0.00    +0.000 C 
BRANCH  14  16
ATOM     16  C   UNL     1      11.235  12.410  18.509  0.00  0.00    +0.000 C 
ATOM     17  N   UNL     1      11.934  12.396  17.580  0.00  0.00    +0.000 NA
ENDBRANCH  14  16
ENDBRANCH   2  13
ENDBRANCH   1   3
BRANCH   1  18
ATOM     18  O   UNL     1       7.334   8.282  17.360  0.00  0.00    +0.000 OA
BRANCH  18  19
ATOM     19  C   UNL     1       7.179   7.013  16.906  0.00  0.00    +0.000 C 
ATOM     20  O   UNL     1       7.889   6.457  16.083  0.00  0.00    +0.000 OA
BRANCH  19  21
ATOM     21  C   UNL     1       5.994   6.354  17.531  0.00  0.00    +0.000 A 
ATOM     22  C   UNL     1       6.219   5.183  18.265  0.00  0.00    +0.000 A 
ATOM     23  C   UNL     1       5.152   4.506  18.876  0.00  0.00    +0.000 A 
ATOM     24  C   UNL     1       3.841   4.971  18.770  0.00  0.00    +0.000 A 
ATOM     25  C   UNL     1       3.616   6.137  18.018  0.00  0.00    +0.000 A 
ATOM     26  C   UNL     1       4.685   6.833  17.416  0.00  0.00    +0.000 A 
BRANCH  24  27
ATOM     27  N   UNL     1       2.730   4.323  19.381  0.00  0.00    +0.000 N 
ATOM     28  C   UNL     1       1.787   3.522  18.732  0.00  0.00    +0.000 C 
ATOM     29  O   UNL     1       1.787   3.267  17.529  0.00  0.00    +0.000 OA
ATOM     30  H   UNL     1       2.715   4.356  20.395  0.00  0.00    +0.000 HD
BRANCH  28  31
ATOM     31  C   UNL     1       0.673   2.944  19.609  0.00  0.00    +0.000 C 
BRANCH  31  32
ATOM     32  C   UNL     1       1.224   2.746  21.011  0.00  0.00    +0.000 C 
ATOM     33  N   UNL     1       1.681   2.582  22.175  0.00  0.00    +0.000 NA
ENDBRANCH  31  32
ENDBRANCH  28  31
ENDBRANCH  24  27
ENDBRANCH  19  21
ENDBRANCH  18  19
ENDBRANCH   1  18
TORSDOF 9
ENDMDL
MODEL 2
REMARK VINA RESULT:      -7.3      2.926     10.928
REMARK  Name = 
REMARK  10 active torsions:
REMARK  status: ('A' for Active; 'I' for Inactive)
REMARK    1  A    between atoms: C_1  and  C_2
REMARK    2  A    between atoms: C_8  and  N_9
REMARK    3  A    between atoms: C_10  and  C_12
REMARK    4  A    between atoms: C_12  and  O_13
REMARK    5  A    between atoms: O_13  and  C_14
REMARK    6  A    between atoms: C_14  and  C_16
REMARK    7  A    between atoms: C_19  and  N_20
REMARK    8  A    between atoms: C_21  and  C_23
REMARK    9  A    between atoms: C_23  and  C_24
REMARK   10  A    between atoms: C_28  and  C_29
REMARK                            x       y       z     vdW  Elec       q    Type
REMARK                         _______ _______ _______ _____ _____    ______ ____
ROOT
ATOM      1  C   UNL     1       7.452   7.081  16.558  0.00  0.00    +0.000 C 
ENDROOT
BRANCH   1   3
ATOM      2  N   UNL     1       5.935   6.173  18.243  0.00  0.00    +0.000 N 
ATOM      3  C   UNL     1       6.153   6.344  16.887  0.00  0.00    +0.000 C 
ATOM      4  O   UNL     1       5.362   6.017  16.005  0.00  0.00    +0.000 OA
ATOM      5  H   UNL     1       6.381   6.843  18.859  0.00  0.00    +0.000 HD
BRANCH   2  13
ATOM      6  C   UNL     1       0.840   2.048  18.766  0.00  0.00    +0.000 C 
ATOM      7  C   UNL     1       1.333   2.451  20.161  0.00  0.00    +0.000 C 
ATOM      8  C   UNL     1       0.746   3.813  20.596  0.00  0.00    +0.000 C 
ATOM      9  C   UNL     1       1.217   4.973  19.710  0.00  0.00    +0.000 C 
ATOM     10  C   UNL     1       2.688   4.902  19.428  0.00  0.00    +0.000 A 
ATOM     11  C   UNL     1       3.420   3.744  19.626  0.00  0.00    +0.000 A 
ATOM     12  S   UNL     1       5.028   3.893  19.081  0.00  0.00    +0.000 S 
ATOM     13  C   UNL     1       4.796   5.538  18.693  0.00  0.00    +0.000 A 
ATOM     14  C   UNL     1       3.495   5.948  18.870  0.00  0.00    +0.000 A 
ATOM     15  C   UNL     1       2.880   2.476  20.227  0.00  0.00    +0.000 C 
BRANCH  14  16
ATOM     16  C   UNL     1       2.967   7.209  18.446  0.00  0.00    +0.000 C 
ATOM     17  N   UNL     1       2.636   8.278  18.134  0.00  0.00    +0.000 NA
ENDBRANCH  14  16
ENDBRANCH   2  13
ENDBRANCH   1   3
BRANCH   1  18
ATOM     18  O   UNL     1       7.504   8.384  17.160  0.00  0.00    +0.000 OA
BRANCH  18  19
ATOM     19  C   UNL     1       8.304   8.496  18.250  0.00  0.00    +0.000 C 
ATOM     20  O   UNL     1       8.631   7.585  18.993  0.00  0.00    +0.000 OA
BRANCH  19  21
ATOM     21  C   UNL     1       8.741   9.908  18.458  0.00  0.00    +0.000 A 
ATOM     22  C   UNL     1       9.498  10.188  19.601  0.00  0.00    +0.000 A 
ATOM     23  C   UNL     1       9.940  11.494  19.866  0.00  0.00    +0.000 A 
ATOM     24  C   UNL     1       9.637  12.551  19.006  0.00  0.00    +0.000 A 
ATOM     25  C   UNL     1       8.862  12.271  17.868  0.00  0.00    +0.000 A 
ATOM     26  C   UNL     1       8.430  10.957  17.587  0.00  0.00    +0.000 A 
BRANCH  24  27
ATOM     27  N   UNL     1      10.071  13.888  19.228  0.00  0.00    +0.000 N 
ATOM     28  C   UNL     1      11.121  14.533  18.569  0.00  0.00    +0.000 C 
ATOM     29  O   UNL     1      11.824  14.024  17.697  0.00  0.00    +0.000 OA
ATOM     30  H   UNL     1       9.470  14.443  19.829  0.00  0.00    +0.000 HD
BRANCH  28  31
ATOM     31  C   UNL     1      11.403  15.976  18.995  0.00  0.00    +0.000 C 
BRANCH  31  32
ATOM     32  C   UNL     1      10.213  16.477  19.796  0.00  0.00    +0.000 C 
ATOM     33  N   UNL     1       9.225  16.894  20.461  0.00  0.00    +0.000 NA
ENDBRANCH  31  32
ENDBRANCH  28  31
ENDBRANCH  24  27
ENDBRANCH  19  21
ENDBRANCH  18  19
ENDBRANCH   1  18
TORSDOF 9
ENDMDL
MODEL 3
REMARK VINA RESULT:      -7.3      3.195     11.267
REMARK  Name = 
REMARK  10 active torsions:
REMARK  status: ('A' for Active; 'I' for Inactive)
REMARK    1  A    between atoms: C_1  and  C_2
REMARK    2  A    between atoms: C_8  and  N_9
REMARK    3  A    between atoms: C_10  and  C_12
REMARK    4  A    between atoms: C_12  and  O_13
REMARK    5  A    between atoms: O_13  and  C_14
REMARK    6  A    between atoms: C_14  and  C_16
REMARK    7  A    between atoms: C_19  and  N_20
REMARK    8  A    between atoms: C_21  and  C_23
REMARK    9  A    between atoms: C_23  and  C_24
REMARK   10  A    between atoms: C_28  and  C_29
REMARK                            x       y       z     vdW  Elec       q    Type
REMARK                         _______ _______ _______ _____ _____    ______ ____
ROOT
ATOM      1  C   UNL     1       7.606   7.829  16.993  0.00  0.00    +0.000 C 
ENDROOT
BRANCH   1   3
ATOM      2  N   UNL     1       5.378   6.855  17.224  0.00  0.00    +0.000 N 
ATOM      3  C   UNL     1       6.700   6.771  17.625  0.00  0.00    +0.000 C 
ATOM      4  O   UNL     1       7.154   5.894  18.357  0.00  0.00    +0.000 OA
ATOM      5  H   UNL     1       5.207   7.286  16.322  0.00  0.00    +0.000 HD
BRANCH   2  13
ATOM      6  C   UNL     1       2.003   2.799  21.148  0.00  0.00    +0.000 C 
ATOM      7  C   UNL     1       1.057   3.459  20.139  0.00  0.00    +0.000 C 
ATOM      8  C   UNL     1       1.075   2.722  18.782  0.00  0.00    +0.000 C 
ATOM      9  C   UNL     1       2.439   2.796  18.083  0.00  0.00    +0.000 C 
ATOM     10  C   UNL     1       3.021   4.178  18.139  0.00  0.00    +0.000 A 
ATOM     11  C   UNL     1       2.563   5.135  19.027  0.00  0.00    +0.000 A 
ATOM     12  S   UNL     1       3.500   6.558  18.987  0.00  0.00    +0.000 S 
ATOM     13  C   UNL     1       4.445   5.958  17.700  0.00  0.00    +0.000 A 
ATOM     14  C   UNL     1       4.133   4.659  17.370  0.00  0.00    +0.000 A 
ATOM     15  C   UNL     1       1.390   4.960  19.951  0.00  0.00    +0.000 C 
BRANCH  14  16
ATOM     16  C   UNL     1       4.883   3.837  16.470  0.00  0.00    +0.000 C 
ATOM     17  N   UNL     1       5.578   3.238  15.756  0.00  0.00    +0.000 NA
ENDBRANCH  14  16
ENDBRANCH   2  13
ENDBRANCH   1   3
BRANCH   1  18
ATOM     18  O   UNL     1       7.562   9.076  17.706  0.00  0.00    +0.000 OA
BRANCH  18  19
ATOM     19  C   UNL     1       8.585   9.295  18.570  0.00  0.00    +0.000 C 
ATOM     20  O   UNL     1       9.130   8.450  19.260  0.00  0.00    +0.000 OA
BRANCH  19  21
ATOM     21  C   UNL     1       8.972  10.737  18.597  0.00  0.00    +0.000 A 
ATOM     22  C   UNL     1       8.267  11.611  17.761  0.00  0.00    +0.000 A 
ATOM     23  C   UNL     1       8.580  12.979  17.729  0.00  0.00    +0.000 A 
ATOM     24  C   UNL     1       9.599  13.509  18.521  0.00  0.00    +0.000 A 
ATOM     25  C   UNL     1      10.317  12.627  19.346  0.00  0.00    +0.000 A 
ATOM     26  C   UNL     1       9.996  11.254  19.397  0.00  0.00    +0.000 A 
BRANCH  24  27
ATOM     27  N   UNL     1       9.944  14.891  18.528  0.00  0.00    +0.000 N 
ATOM     28  C   UNL     1      10.724  15.549  17.574  0.00  0.00    +0.000 C 
ATOM     29  O   UNL     1      11.228  15.016  16.586  0.00  0.00    +0.000 OA
ATOM     30  H   UNL     1       9.465  15.451  19.226  0.00  0.00    +0.000 HD
BRANCH  28  31
ATOM     31  C   UNL     1      10.966  17.041  17.811  0.00  0.00    +0.000 C 
BRANCH  31  32
ATOM     32  C   UNL     1       9.622  17.710  18.046  0.00  0.00    +0.000 C 
ATOM     33  N   UNL     1       8.506  18.265  18.242  0.00  0.00    +0.000 NA
ENDBRANCH  31  32
ENDBRANCH  28  31
ENDBRANCH  24  27
ENDBRANCH  19  21
ENDBRANCH  18  19
ENDBRANCH   1  18
TORSDOF 9
ENDMDL
MODEL 4
REMARK VINA RESULT:      -7.2      7.881     10.842
REMARK  Name = 
REMARK  10 active torsions:
REMARK  status: ('A' for Active; 'I' for Inactive)
REMARK    1  A    between atoms: C_1  and  C_2
REMARK    2  A    between atoms: C_8  and  N_9
REMARK    3  A    between atoms: C_10  and  C_12
REMARK    4  A    between atoms: C_12  and  O_13
REMARK    5  A    between atoms: O_13  and  C_14
REMARK    6  A    between atoms: C_14  and  C_16
REMARK    7  A    between atoms: C_19  and  N_20
REMARK    8  A    between atoms: C_21  and  C_23
REMARK    9  A    between atoms: C_23  and  C_24
REMARK   10  A    between atoms: C_28  and  C_29
REMARK                            x       y       z     vdW  Elec       q    Type
REMARK                         _______ _______ _______ _____ _____    ______ ____
ROOT
ATOM      1  C   UNL     1       0.943  11.891  18.939  0.00  0.00    +0.000 C 
ENDROOT
BRANCH   1   3
ATOM      2  N   UNL     1      -1.444  11.550  19.335  0.00  0.00    +0.000 N 
ATOM      3  C   UNL     1      -0.499  12.353  18.719  0.00  0.00    +0.000 C 
ATOM      4  O   UNL     1      -0.753  13.390  18.111  0.00  0.00    +0.000 OA
ATOM      5  H   UNL     1      -1.131  11.027  20.144  0.00  0.00    +0.000 HD
BRANCH   2  13
ATOM      6  C   UNL     1      -7.913  11.830  20.481  0.00  0.00    +0.000 C 
ATOM      7  C   UNL     1      -7.431  13.152  19.872  0.00  0.00    +0.000 C 
ATOM      8  C   UNL     1      -7.337  13.063  18.332  0.00  0.00    +0.000 C 
ATOM      9  C   UNL     1      -6.283  12.054  17.859  0.00  0.00    +0.000 C 
ATOM     10  C   UNL     1      -5.004  12.176  18.633  0.00  0.00    +0.000 A 
ATOM     11  C   UNL     1      -4.939  12.840  19.846  0.00  0.00    +0.000 A 
ATOM     12  S   UNL     1      -3.409  12.692  20.583  0.00  0.00    +0.000 S 
ATOM     13  C   UNL     1      -2.786  11.850  19.237  0.00  0.00    +0.000 A 
ATOM     14  C   UNL     1      -3.744  11.586  18.284  0.00  0.00    +0.000 A 
ATOM     15  C   UNL     1      -6.076  13.592  20.479  0.00  0.00    +0.000 C 
BRANCH  14  16
ATOM     16  C   UNL     1      -3.560  10.736  17.148  0.00  0.00    +0.000 C 
ATOM     17  N   UNL     1      -3.408  10.139  16.163  0.00  0.00    +0.000 NA
ENDBRANCH  14  16
ENDBRANCH   2  13
ENDBRANCH   1   3
BRANCH   1  18
ATOM     18  O   UNL     1       1.078  10.465  18.828  0.00  0.00    +0.000 OA
BRANCH  18  19
ATOM     19  C   UNL     1       1.146   9.788  20.002  0.00  0.00    +0.000 C 
ATOM     20  O   UNL     1       0.878  10.240  21.103  0.00  0.00    +0.000 OA
BRANCH  19  21
ATOM     21  C   UNL     1       1.617   8.387  19.792  0.00  0.00    +0.000 A 
ATOM     22  C   UNL     1       2.220   8.084  18.566  0.00  0.00    +0.000 A 
ATOM     23  C   UNL     1       2.682   6.787  18.296  0.00  0.00    +0.000 A 
ATOM     24  C   UNL     1       2.553   5.761  19.233  0.00  0.00    +0.000 A 
ATOM     25  C   UNL     1       1.930   6.062  20.457  0.00  0.00    +0.000 A 
ATOM     26  C   UNL     1       1.480   7.369  20.742  0.00  0.00    +0.000 A 
BRANCH  24  27
ATOM     27  N   UNL     1       3.014   4.433  19.007  0.00  0.00    +0.000 N 
ATOM     28  C   UNL     1       2.380   3.463  18.228  0.00  0.00    +0.000 C 
ATOM     29  O   UNL     1       1.319   3.625  17.626  0.00  0.00    +0.000 OA
ATOM     30  H   UNL     1       3.951   4.239  19.346  0.00  0.00    +0.000 HD
BRANCH  28  31
ATOM     31  C   UNL     1       3.071   2.100  18.149  0.00  0.00    +0.000 C 
BRANCH  31  32
ATOM     32  C   UNL     1       4.023   1.979  19.327  0.00  0.00    +0.000 C 
ATOM     33  N   UNL     1       4.814   1.879  20.305  0.00  0.00    +0.000 NA
ENDBRANCH  31  32
ENDBRANCH  28  31
ENDBRANCH  24  27
ENDBRANCH  19  21
ENDBRANCH  18  19
ENDBRANCH   1  18
TORSDOF 9
ENDMDL
MODEL 5
REMARK VINA RESULT:      -6.9      3.185     11.235
REMARK  Name = 
REMARK  10 active torsions:
REMARK  status: ('A' for Active; 'I' for Inactive)
REMARK    1  A    between atoms: C_1  and  C_2
REMARK    2  A    between atoms: C_8  and  N_9
REMARK    3  A    between atoms: C_10  and  C_12
REMARK    4  A    between atoms: C_12  and  O_13
REMARK    5  A    between atoms: O_13  and  C_14
REMARK    6  A    between atoms: C_14  and  C_16
REMARK    7  A    between atoms: C_19  and  N_20
REMARK    8  A    between atoms: C_21  and  C_23
REMARK    9  A    between atoms: C_23  and  C_24
REMARK   10  A    between atoms: C_28  and  C_29
REMARK                            x       y       z     vdW  Elec       q    Type
REMARK                         _______ _______ _______ _____ _____    ______ ____
ROOT
ATOM      1  C   UNL     1       7.569   7.465  16.952  0.00  0.00    +0.000 C 
ENDROOT
BRANCH   1   3
ATOM      2  N   UNL     1       5.345   6.550  17.380  0.00  0.00    +0.000 N 
ATOM      3  C   UNL     1       6.659   6.588  17.814  0.00  0.00    +0.000 C 
ATOM      4  O   UNL     1       7.105   5.931  18.752  0.00  0.00    +0.000 OA
ATOM      5  H   UNL     1       5.190   6.737  16.397  0.00  0.00    +0.000 HD
BRANCH   2  13
ATOM      6  C   UNL     1       0.682   2.126  18.769  0.00  0.00    +0.000 C 
ATOM      7  C   UNL     1       1.598   2.321  19.983  0.00  0.00    +0.000 C 
ATOM      8  C   UNL     1       1.184   3.558  20.810  0.00  0.00    +0.000 C 
ATOM      9  C   UNL     1       1.346   4.872  20.035  0.00  0.00    +0.000 C 
ATOM     10  C   UNL     1       2.649   4.927  19.294  0.00  0.00    +0.000 A 
ATOM     11  C   UNL     1       3.404   3.794  19.046  0.00  0.00    +0.000 A 
ATOM     12  S   UNL     1       4.752   4.117  18.054  0.00  0.00    +0.000 S 
ATOM     13  C   UNL     1       4.411   5.789  18.051  0.00  0.00    +0.000 A 
ATOM     14  C   UNL     1       3.235   6.094  18.698  0.00  0.00    +0.000 A 
ATOM     15  C   UNL     1       3.084   2.418  19.559  0.00  0.00    +0.000 C 
BRANCH  14  16
ATOM     16  C   UNL     1       2.601   7.376  18.688  0.00  0.00    +0.000 C 
ATOM     17  N   UNL     1       2.067   8.403  18.790  0.00  0.00    +0.000 NA
ENDBRANCH  14  16
ENDBRANCH   2  13
ENDBRANCH   1   3
BRANCH   1  18
ATOM     18  O   UNL     1       7.598   8.828  17.407  0.00  0.00    +0.000 OA
BRANCH  18  19
ATOM     19  C   UNL     1       8.525   9.109  18.358  0.00  0.00    +0.000 C 
ATOM     20  O   UNL     1       9.013   8.309  19.139  0.00  0.00    +0.000 OA
BRANCH  19  21
ATOM     21  C   UNL     1       8.883  10.559  18.353  0.00  0.00    +0.000 A 
ATOM     22  C   UNL     1       9.906  10.974  19.212  0.00  0.00    +0.000 A 
ATOM     23  C   UNL     1      10.292  12.323  19.266  0.00  0.00    +0.000 A 
ATOM     24  C   UNL     1       9.670  13.288  18.475  0.00  0.00    +0.000 A 
ATOM     25  C   UNL     1       8.630  12.872  17.626  0.00  0.00    +0.000 A 
ATOM     26  C   UNL     1       8.248  11.515  17.554  0.00  0.00    +0.000 A 
BRANCH  24  27
ATOM     27  N   UNL     1      10.034  14.665  18.489  0.00  0.00    +0.000 N 
ATOM     28  C   UNL     1      11.289  15.180  18.820  0.00  0.00    +0.000 C 
ATOM     29  O   UNL     1      12.263  14.505  19.153  0.00  0.00    +0.000 OA
ATOM     30  H   UNL     1       9.344  15.298  18.097  0.00  0.00    +0.000 HD
BRANCH  28  31
ATOM     31  C   UNL     1      11.430  16.703  18.772  0.00  0.00    +0.000 C 
BRANCH  31  32
ATOM     32  C   UNL     1      10.074  17.296  18.424  0.00  0.00    +0.000 C 
ATOM     33  N   UNL     1       8.949  17.788  18.134  0.00  0.00    +0.000 NA
ENDBRANCH  31  32
ENDBRANCH  28  31
ENDBRANCH  24  27
ENDBRANCH  19  21
ENDBRANCH  18  19
ENDBRANCH   1  18
TORSDOF 9
ENDMDL
MODEL 6
REMARK VINA RESULT:      -6.9      6.330      8.423
REMARK  Name = 
REMARK  10 active torsions:
REMARK  status: ('A' for Active; 'I' for Inactive)
REMARK    1  A    between atoms: C_1  and  C_2
REMARK    2  A    between atoms: C_8  and  N_9
REMARK    3  A    between atoms: C_10  and  C_12
REMARK    4  A    between atoms: C_12  and  O_13
REMARK    5  A    between atoms: O_13  and  C_14
REMARK    6  A    between atoms: C_14  and  C_16
REMARK    7  A    between atoms: C_19  and  N_20
REMARK    8  A    between atoms: C_21  and  C_23
REMARK    9  A    between atoms: C_23  and  C_24
REMARK   10  A    between atoms: C_28  and  C_29
REMARK                            x       y       z     vdW  Elec       q    Type
REMARK                         _______ _______ _______ _____ _____    ______ ____
ROOT
ATOM      1  C   UNL     1       1.488   7.369  21.095  0.00  0.00    +0.000 C 
ENDROOT
BRANCH   1   3
ATOM      2  N   UNL     1       0.614   9.503  20.286  0.00  0.00    +0.000 N 
ATOM      3  C   UNL     1       1.361   8.883  21.274  0.00  0.00    +0.000 C 
ATOM      4  O   UNL     1       1.827   9.453  22.258  0.00  0.00    +0.000 OA
ATOM      5  H   UNL     1      -0.072   8.926  19.812  0.00  0.00    +0.000 HD
BRANCH   2  13
ATOM      6  C   UNL     1       1.567  15.995  20.722  0.00  0.00    +0.000 C 
ATOM      7  C   UNL     1       0.404  15.699  19.769  0.00  0.00    +0.000 C 
ATOM      8  C   UNL     1      -0.915  15.471  20.540  0.00  0.00    +0.000 C 
ATOM      9  C   UNL     1      -0.873  14.227  21.436  0.00  0.00    +0.000 C 
ATOM     10  C   UNL     1      -0.260  13.052  20.734  0.00  0.00    +0.000 A 
ATOM     11  C   UNL     1       0.500  13.195  19.585  0.00  0.00    +0.000 A 
ATOM     12  S   UNL     1       1.203  11.724  19.087  0.00  0.00    +0.000 S 
ATOM     13  C   UNL     1       0.401  10.865  20.323  0.00  0.00    +0.000 A 
ATOM     14  C   UNL     1      -0.306  11.686  21.171  0.00  0.00    +0.000 A 
ATOM     15  C   UNL     1       0.718  14.489  18.853  0.00  0.00    +0.000 C 
BRANCH  14  16
ATOM     16  C   UNL     1      -0.913  11.272  22.399  0.00  0.00    +0.000 C 
ATOM     17  N   UNL     1      -1.366  10.834  23.375  0.00  0.00    +0.000 NA
ENDBRANCH  14  16
ENDBRANCH   2  13
ENDBRANCH   1   3
BRANCH   1  18
ATOM     18  O   UNL     1       2.185   7.023  19.887  0.00  0.00    +0.000 OA
BRANCH  18  19
ATOM     19  C   UNL     1       2.593   5.732  19.795  0.00  0.00    +0.000 C 
ATOM     20  O   UNL     1       2.396   4.859  20.625  0.00  0.00    +0.000 OA
BRANCH  19  21
ATOM     21  C   UNL     1       3.352   5.493  18.532  0.00  0.00    +0.000 A 
ATOM     22  C   UNL     1       3.451   4.173  18.077  0.00  0.00    +0.000 A 
ATOM     23  C   UNL     1       4.153   3.872  16.900  0.00  0.00    +0.000 A 
ATOM     24  C   UNL     1       4.777   4.870  16.151  0.00  0.00    +0.000 A 
ATOM     25  C   UNL     1       4.692   6.192  16.619  0.00  0.00    +0.000 A 
ATOM     26  C   UNL     1       3.973   6.505  17.792  0.00  0.00    +0.000 A 
BRANCH  24  27
ATOM     27  N   UNL     1       5.492   4.613  14.947  0.00  0.00    +0.000 N 
ATOM     28  C   UNL     1       6.834   4.918  14.706  0.00  0.00    +0.000 C 
ATOM     29  O   UNL     1       7.589   5.462  15.511  0.00  0.00    +0.000 OA
ATOM     30  H   UNL     1       5.000   4.042  14.267  0.00  0.00    +0.000 HD
BRANCH  28  31
ATOM     31  C   UNL     1       7.373   4.551  13.321  0.00  0.00    +0.000 C 
BRANCH  31  32
ATOM     32  C   UNL     1       6.309   3.746  12.594  0.00  0.00    +0.000 C 
ATOM     33  N   UNL     1       5.426   3.077  11.990  0.00  0.00    +0.000 NA
ENDBRANCH  31  32
ENDBRANCH  28  31
ENDBRANCH  24  27
ENDBRANCH  19  21
ENDBRANCH  18  19
ENDBRANCH   1  18
TORSDOF 9
ENDMDL
MODEL 7
REMARK VINA RESULT:      -6.8      7.239     10.919
REMARK  Name = 
REMARK  10 active torsions:
REMARK  status: ('A' for Active; 'I' for Inactive)
REMARK    1  A    between atoms: C_1  and  C_2
REMARK    2  A    between atoms: C_8  and  N_9
REMARK    3  A    between atoms: C_10  and  C_12
REMARK    4  A    between atoms: C_12  and  O_13
REMARK    5  A    between atoms: O_13  and  C_14
REMARK    6  A    between atoms: C_14  and  C_16
REMARK    7  A    between atoms: C_19  and  N_20
REMARK    8  A    between atoms: C_21  and  C_23
REMARK    9  A    between atoms: C_23  and  C_24
REMARK   10  A    between atoms: C_28  and  C_29
REMARK                            x       y       z     vdW  Elec       q    Type
REMARK                         _______ _______ _______ _____ _____    ______ ____
ROOT
ATOM      1  C   UNL     1       1.848  10.425  18.213  0.00  0.00    +0.000 C 
ENDROOT
BRANCH   1   3
ATOM      2  N   UNL     1       2.765   8.246  18.826  0.00  0.00    +0.000 N 
ATOM      3  C   UNL     1       1.932   8.921  17.950  0.00  0.00    +0.000 C 
ATOM      4  O   UNL     1       1.248   8.384  17.082  0.00  0.00    +0.000 OA
ATOM      5  H   UNL     1       2.906   8.674  19.734  0.00  0.00    +0.000 HD
BRANCH   2  13
ATOM      6  C   UNL     1       4.402   2.004  20.098  0.00  0.00    +0.000 C 
ATOM      7  C   UNL     1       3.104   2.050  19.283  0.00  0.00    +0.000 C 
ATOM      8  C   UNL     1       3.391   2.202  17.772  0.00  0.00    +0.000 C 
ATOM      9  C   UNL     1       4.068   3.534  17.427  0.00  0.00    +0.000 C 
ATOM     10  C   UNL     1       3.427   4.689  18.138  0.00  0.00    +0.000 A 
ATOM     11  C   UNL     1       2.601   4.511  19.234  0.00  0.00    +0.000 A 
ATOM     12  S   UNL     1       2.137   5.991  19.942  0.00  0.00    +0.000 S 
ATOM     13  C   UNL     1       2.929   6.880  18.721  0.00  0.00    +0.000 A 
ATOM     14  C   UNL     1       3.628   6.079  17.847  0.00  0.00    +0.000 A 
ATOM     15  C   UNL     1       2.166   3.179  19.778  0.00  0.00    +0.000 C 
BRANCH  14  16
ATOM     16  C   UNL     1       4.536   6.552  16.848  0.00  0.00    +0.000 C 
ATOM     17  N   UNL     1       5.347   6.956  16.119  0.00  0.00    +0.000 NA
ENDBRANCH  14  16
ENDBRANCH   2  13
ENDBRANCH   1   3
BRANCH   1  18
ATOM     18  O   UNL     1       1.309  10.720  19.512  0.00  0.00    +0.000 OA
BRANCH  18  19
ATOM     19  C   UNL     1       0.210  10.007  19.866  0.00  0.00    +0.000 C 
ATOM     20  O   UNL     1       0.195   9.041  20.612  0.00  0.00    +0.000 OA
BRANCH  19  21
ATOM     21  C   UNL     1      -1.018  10.541  19.207  0.00  0.00    +0.000 A 
ATOM     22  C   UNL     1      -1.585  11.703  19.742  0.00  0.00    +0.000 A 
ATOM     23  C   UNL     1      -2.744  12.260  19.179  0.00  0.00    +0.000 A 
ATOM     24  C   UNL     1      -3.367  11.676  18.076  0.00  0.00    +0.000 A 
ATOM     25  C   UNL     1      -2.807  10.499  17.551  0.00  0.00    +0.000 A 
ATOM     26  C   UNL     1      -1.632   9.944  18.101  0.00  0.00    +0.000 A 
BRANCH  24  27
ATOM     27  N   UNL     1      -4.537  12.211  17.465  0.00  0.00    +0.000 N 
ATOM     28  C   UNL     1      -5.838  12.125  17.966  0.00  0.00    +0.000 C 
ATOM     29  O   UNL     1      -6.155  11.565  19.015  0.00  0.00    +0.000 OA
ATOM     30  H   UNL     1      -4.370  12.812  16.665  0.00  0.00    +0.000 HD
BRANCH  28  31
ATOM     31  C   UNL     1      -6.935  12.772  17.116  0.00  0.00    +0.000 C 
BRANCH  31  32
ATOM     32  C   UNL     1      -6.841  14.279  17.285  0.00  0.00    +0.000 C 
ATOM     33  N   UNL     1      -6.764  15.531  17.424  0.00  0.00    +0.000 NA
ENDBRANCH  31  32
ENDBRANCH  28  31
ENDBRANCH  24  27
ENDBRANCH  19  21
ENDBRANCH  18  19
ENDBRANCH   1  18
TORSDOF 9
ENDMDL
MODEL 8
REMARK VINA RESULT:      -6.8      2.875     10.948
REMARK  Name = 
REMARK  10 active torsions:
REMARK  status: ('A' for Active; 'I' for Inactive)
REMARK    1  A    between atoms: C_1  and  C_2
REMARK    2  A    between atoms: C_8  and  N_9
REMARK    3  A    between atoms: C_10  and  C_12
REMARK    4  A    between atoms: C_12  and  O_13
REMARK    5  A    between atoms: O_13  and  C_14
REMARK    6  A    between atoms: C_14  and  C_16
REMARK    7  A    between atoms: C_19  and  N_20
REMARK    8  A    between atoms: C_21  and  C_23
REMARK    9  A    between atoms: C_23  and  C_24
REMARK   10  A    between atoms: C_28  and  C_29
REMARK                            x       y       z     vdW  Elec       q    Type
REMARK                         _______ _______ _______ _____ _____    ______ ____
ROOT
ATOM      1  C   UNL     1       7.413   7.431  16.655  0.00  0.00    +0.000 C 
ENDROOT
BRANCH   1   3
ATOM      2  N   UNL     1       5.966   6.364  18.309  0.00  0.00    +0.000 N 
ATOM      3  C   UNL     1       6.138   6.644  16.964  0.00  0.00    +0.000 C 
ATOM      4  O   UNL     1       5.326   6.370  16.084  0.00  0.00    +0.000 OA
ATOM      5  H   UNL     1       6.419   6.993  18.962  0.00  0.00    +0.000 HD
BRANCH   2  13
ATOM      6  C   UNL     1       1.002   2.068  18.689  0.00  0.00    +0.000 C 
ATOM      7  C   UNL     1       1.506   2.412  20.096  0.00  0.00    +0.000 C 
ATOM      8  C   UNL     1       0.887   3.730  20.611  0.00  0.00    +0.000 C 
ATOM      9  C   UNL     1       1.309   4.949  19.780  0.00  0.00    +0.000 C 
ATOM     10  C   UNL     1       2.777   4.936  19.473  0.00  0.00    +0.000 A 
ATOM     11  C   UNL     1       3.545   3.792  19.599  0.00  0.00    +0.000 A 
ATOM     12  S   UNL     1       5.139   4.017  19.038  0.00  0.00    +0.000 S 
ATOM     13  C   UNL     1       4.854   5.672  18.742  0.00  0.00    +0.000 A 
ATOM     14  C   UNL     1       3.544   6.034  18.959  0.00  0.00    +0.000 A 
ATOM     15  C   UNL     1       3.052   2.479  20.140  0.00  0.00    +0.000 C 
BRANCH  14  16
ATOM     16  C   UNL     1       2.973   7.299  18.610  0.00  0.00    +0.000 C 
ATOM     17  N   UNL     1       2.466   8.276  18.237  0.00  0.00    +0.000 NA
ENDBRANCH  14  16
ENDBRANCH   2  13
ENDBRANCH   1   3
BRANCH   1  18
ATOM     18  O   UNL     1       7.524   8.619  17.455  0.00  0.00    +0.000 OA
BRANCH  18  19
ATOM     19  C   UNL     1       8.423   8.562  18.470  0.00  0.00    +0.000 C 
ATOM     20  O   UNL     1       8.746   7.557  19.083  0.00  0.00    +0.000 OA
BRANCH  19  21
ATOM     21  C   UNL     1       8.981   9.912  18.776  0.00  0.00    +0.000 A 
ATOM     22  C   UNL     1       9.264  10.755  17.694  0.00  0.00    +0.000 A 
ATOM     23  C   UNL     1       9.796  12.036  17.905  0.00  0.00    +0.000 A 
ATOM     24  C   UNL     1      10.063  12.509  19.190  0.00  0.00    +0.000 A 
ATOM     25  C   UNL     1       9.796  11.655  20.274  0.00  0.00    +0.000 A 
ATOM     26  C   UNL     1       9.244  10.372  20.070  0.00  0.00    +0.000 A 
BRANCH  24  27
ATOM     27  N   UNL     1      10.593  13.804  19.452  0.00  0.00    +0.000 N 
ATOM     28  C   UNL     1       9.988  15.021  19.129  0.00  0.00    +0.000 C 
ATOM     29  O   UNL     1       8.903  15.141  18.563  0.00  0.00    +0.000 OA
ATOM     30  H   UNL     1      11.421  13.821  20.040  0.00  0.00    +0.000 HD
BRANCH  28  31
ATOM     31  C   UNL     1      10.766  16.284  19.506  0.00  0.00    +0.000 C 
BRANCH  31  32
ATOM     32  C   UNL     1       9.907  17.110  20.449  0.00  0.00    +0.000 C 
ATOM     33  N   UNL     1       9.193  17.795  21.232  0.00  0.00    +0.000 NA
ENDBRANCH  31  32
ENDBRANCH  28  31
ENDBRANCH  24  27
ENDBRANCH  19  21
ENDBRANCH  18  19
ENDBRANCH   1  18
TORSDOF 9
ENDMDL
MODEL 9
REMARK VINA RESULT:      -6.8      7.106      8.858
REMARK  Name = 
REMARK  10 active torsions:
REMARK  status: ('A' for Active; 'I' for Inactive)
REMARK    1  A    between atoms: C_1  and  C_2
REMARK    2  A    between atoms: C_8  and  N_9
REMARK    3  A    between atoms: C_10  and  C_12
REMARK    4  A    between atoms: C_12  and  O_13
REMARK    5  A    between atoms: O_13  and  C_14
REMARK    6  A    between atoms: C_14  and  C_16
REMARK    7  A    between atoms: C_19  and  N_20
REMARK    8  A    between atoms: C_21  and  C_23
REMARK    9  A    between atoms: C_23  and  C_24
REMARK   10  A    between atoms: C_28  and  C_29
REMARK                            x       y       z     vdW  Elec       q    Type
REMARK                         _______ _______ _______ _____ _____    ______ ____
ROOT
ATOM      1  C   UNL     1       2.191   8.077  17.448  0.00  0.00    +0.000 C 
ENDROOT
BRANCH   1   3
ATOM      2  N   UNL     1       0.545   9.005  18.997  0.00  0.00    +0.000 N 
ATOM      3  C   UNL     1       1.643   9.290  18.203  0.00  0.00    +0.000 C 
ATOM      4  O   UNL     1       2.200  10.384  18.146  0.00  0.00    +0.000 OA
ATOM      5  H   UNL     1       0.457   8.048  19.317  0.00  0.00    +0.000 HD
BRANCH   2  13
ATOM      6  C   UNL     1      -1.221  14.882  21.362  0.00  0.00    +0.000 C 
ATOM      7  C   UNL     1      -2.384  13.893  21.494  0.00  0.00    +0.000 C 
ATOM      8  C   UNL     1      -2.242  13.018  22.759  0.00  0.00    +0.000 C 
ATOM      9  C   UNL     1      -1.010  12.105  22.715  0.00  0.00    +0.000 C 
ATOM     10  C   UNL     1      -0.855  11.438  21.380  0.00  0.00    +0.000 A 
ATOM     11  C   UNL     1      -1.514  11.890  20.250  0.00  0.00    +0.000 A 
ATOM     12  S   UNL     1      -1.040  11.051  18.844  0.00  0.00    +0.000 S 
ATOM     13  C   UNL     1      -0.049   9.997  19.748  0.00  0.00    +0.000 A 
ATOM     14  C   UNL     1       0.012  10.335  21.080  0.00  0.00    +0.000 A 
ATOM     15  C   UNL     1      -2.519  13.008  20.229  0.00  0.00    +0.000 C 
BRANCH  14  16
ATOM     16  C   UNL     1       0.908   9.756  22.035  0.00  0.00    +0.000 C 
ATOM     17  N   UNL     1       1.718   9.314  22.740  0.00  0.00    +0.000 NA
ENDBRANCH  14  16
ENDBRANCH   2  13
ENDBRANCH   1   3
BRANCH   1  18
ATOM     18  O   UNL     1       3.488   7.683  17.924  0.00  0.00    +0.000 OA
BRANCH  18  19
ATOM     19  C   UNL     1       3.638   6.362  18.193  0.00  0.00    +0.000 C 
ATOM     20  O   UNL     1       3.246   5.788  19.197  0.00  0.00    +0.000 OA
BRANCH  19  21
ATOM     21  C   UNL     1       4.375   5.666  17.097  0.00  0.00    +0.000 A 
ATOM     22  C   UNL     1       4.997   6.463  16.129  0.00  0.00    +0.000 A 
ATOM     23  C   UNL     1       5.703   5.878  15.066  0.00  0.00    +0.000 A 
ATOM     24  C   UNL     1       5.804   4.493  14.937  0.00  0.00    +0.000 A 
ATOM     25  C   UNL     1       5.164   3.694  15.900  0.00  0.00    +0.000 A 
ATOM     26  C   UNL     1       4.468   4.275  16.981  0.00  0.00    +0.000 A 
BRANCH  24  27
ATOM     27  N   UNL     1       6.517   3.856  13.882  0.00  0.00    +0.000 N 
ATOM     28  C   UNL     1       5.987   3.466  12.649  0.00  0.00    +0.000 C 
ATOM     29  O   UNL     1       4.816   3.619  12.306  0.00  0.00    +0.000 OA
ATOM     30  H   UNL     1       7.523   3.808  14.008  0.00  0.00    +0.000 HD
BRANCH  28  31
ATOM     31  C   UNL     1       6.958   2.786  11.681  0.00  0.00    +0.000 C 
BRANCH  31  32
ATOM     32  C   UNL     1       6.409   1.409  11.346  0.00  0.00    +0.000 C 
ATOM     33  N   UNL     1       5.954   0.265  11.068  0.00  0.00    +0.000 NA
ENDBRANCH  31  32
ENDBRANCH  28  31
ENDBRANCH  24  27
ENDBRANCH  19  21
ENDBRANCH  18  19
ENDBRANCH   1  18
TORSDOF 9
ENDMDL
