MODEL 1
REMARK VINA RESULT:      -6.1      0.000      0.000
REMARK  Name = 
REMARK  3 active torsions:
REMARK  status: ('A' for Active; 'I' for Inactive)
REMARK    1  A    between atoms: N_4  and  C_5
REMARK    2  A    between atoms: C_7  and  C_8
REMARK    3  A    between atoms: C_11  and  C_12
REMARK                            x       y       z     vdW  Elec       q    Type
REMARK                         _______ _______ _______ _____ _____    ______ ____
ROOT
ATOM      1  C   UNL     1       4.845   6.027  16.411  0.00  0.00    +0.000 C 
ATOM      2  C   UNL     1       4.349   5.319  17.439  0.00  0.00    +0.000 C 
ATOM      3  C   UNL     1       4.680   3.858  17.660  0.00  0.00    +0.000 C 
ATOM      4  N   UNL     1       3.902   3.533  18.877  0.00  0.00    +0.000 N 
ATOM      5  C   UNL     1       3.994   2.182  19.371  0.00  0.00    +0.000 C 
ATOM      6  C   UNL     1       3.199   4.645  19.352  0.00  0.00    +0.000 A 
ATOM      7  C   UNL     1       2.366   4.812  20.438  0.00  0.00    +0.000 A 
ATOM      8  C   UNL     1       1.782   6.109  20.658  0.00  0.00    +0.000 A 
ATOM      9  C   UNL     1       2.051   7.122  19.816  0.00  0.00    +0.000 A 
ATOM     10  C   UNL     1       2.941   6.979  18.637  0.00  0.00    +0.000 A 
ATOM     11  N   UNL     1       3.168   7.988  17.852  0.00  0.00    +0.000 NA
ATOM     12  N   UNL     1       3.483   5.723  18.461  0.00  0.00    +0.000 N 
ATOM     13  H   UNL     1       2.692   8.858  18.113  0.00  0.00    +0.000 HD
ENDROOT
BRANCH   7  14
ATOM     14  C   UNL     1       2.078   3.641  21.365  0.00  0.00    +0.000 C 
ATOM     15  N   UNL     1       1.840   2.670  22.134  0.00  0.00    +0.000 NA
ENDBRANCH   7  14
BRANCH   9  16
ATOM     16  C   UNL     1       1.421   8.484  20.059  0.00  0.00    +0.000 C 
ATOM     17  N   UNL     1       0.898   9.613  20.261  0.00  0.00    +0.000 NA
ENDBRANCH   9  16
TORSDOF 2
ENDMDL
MODEL 2
REMARK VINA RESULT:      -5.9      1.932      4.338
REMARK  Name = 
REMARK  3 active torsions:
REMARK  status: ('A' for Active; 'I' for Inactive)
REMARK    1  A    between atoms: N_4  and  C_5
REMARK    2  A    between atoms: C_7  and  C_8
REMARK    3  A    between atoms: C_11  and  C_12
REMARK                            x       y       z     vdW  Elec       q    Type
REMARK                         _______ _______ _______ _____ _____    ______ ____
ROOT
ATOM      1  C   UNL     1       2.531   8.246  17.827  0.00  0.00    +0.000 C 
ATOM      2  C   UNL     1       2.855   7.076  18.401  0.00  0.00    +0.000 C 
ATOM      3  C   UNL     1       2.136   6.536  19.620  0.00  0.00    +0.000 C 
ATOM      4  N   UNL     1       2.847   5.264  19.875  0.00  0.00    +0.000 N 
ATOM      5  C   UNL     1       2.400   4.479  20.999  0.00  0.00    +0.000 C 
ATOM      6  C   UNL     1       3.857   5.039  18.934  0.00  0.00    +0.000 A 
ATOM      7  C   UNL     1       4.753   4.003  18.776  0.00  0.00    +0.000 A 
ATOM      8  C   UNL     1       5.689   4.071  17.685  0.00  0.00    +0.000 A 
ATOM      9  C   UNL     1       5.678   5.124  16.849  0.00  0.00    +0.000 A 
ATOM     10  C   UNL     1       4.730   6.257  16.990  0.00  0.00    +0.000 A 
ATOM     11  N   UNL     1       4.760   7.254  16.158  0.00  0.00    +0.000 NA
ATOM     12  N   UNL     1       3.847   6.156  18.044  0.00  0.00    +0.000 N 
ATOM     13  H   UNL     1       5.473   7.187  15.425  0.00  0.00    +0.000 HD
ENDROOT
BRANCH   7  14
ATOM     14  C   UNL     1       4.742   2.831  19.744  0.00  0.00    +0.000 C 
ATOM     15  N   UNL     1       4.734   1.858  20.546  0.00  0.00    +0.000 NA
ENDBRANCH   7  14
BRANCH   9  16
ATOM     16  C   UNL     1       6.678   5.183  15.706  0.00  0.00    +0.000 C 
ATOM     17  N   UNL     1       7.507   5.232  14.757  0.00  0.00    +0.000 NA
ENDBRANCH   9  16
TORSDOF 2
ENDMDL
MODEL 3
REMARK VINA RESULT:      -5.9      1.745      5.074
REMARK  Name = 
REMARK  3 active torsions:
REMARK  status: ('A' for Active; 'I' for Inactive)
REMARK    1  A    between atoms: N_4  and  C_5
REMARK    2  A    between atoms: C_7  and  C_8
REMARK    3  A    between atoms: C_11  and  C_12
REMARK                            x       y       z     vdW  Elec       q    Type
REMARK                         _______ _______ _______ _____ _____    ______ ____
ROOT
ATOM      1  C   UNL     1       3.955   2.772  19.971  0.00  0.00    +0.000 C 
ATOM      2  C   UNL     1       3.529   4.021  19.719  0.00  0.00    +0.000 C 
ATOM      3  C   UNL     1       2.535   4.741  20.606  0.00  0.00    +0.000 C 
ATOM      4  N   UNL     1       2.377   6.043  19.920  0.00  0.00    +0.000 N 
ATOM      5  C   UNL     1       1.473   6.992  20.520  0.00  0.00    +0.000 C 
ATOM      6  C   UNL     1       3.176   6.123  18.775  0.00  0.00    +0.000 A 
ATOM      7  C   UNL     1       3.355   7.127  17.847  0.00  0.00    +0.000 A 
ATOM      8  C   UNL     1       4.265   6.895  16.757  0.00  0.00    +0.000 A 
ATOM      9  C   UNL     1       4.916   5.723  16.658  0.00  0.00    +0.000 A 
ATOM     10  C   UNL     1       4.746   4.619  17.636  0.00  0.00    +0.000 A 
ATOM     11  N   UNL     1       5.397   3.504  17.497  0.00  0.00    +0.000 NA
ATOM     12  N   UNL     1       3.869   4.880  18.668  0.00  0.00    +0.000 N 
ATOM     13  H   UNL     1       6.012   3.460  16.679  0.00  0.00    +0.000 HD
ENDROOT
BRANCH   7  14
ATOM     14  C   UNL     1       2.596   8.438  17.986  0.00  0.00    +0.000 C 
ATOM     15  N   UNL     1       1.967   9.525  18.100  0.00  0.00    +0.000 NA
ENDBRANCH   7  14
BRANCH   9  16
ATOM     16  C   UNL     1       5.868   5.491  15.497  0.00  0.00    +0.000 C 
ATOM     17  N   UNL     1       6.659   5.299  14.533  0.00  0.00    +0.000 NA
ENDBRANCH   9  16
TORSDOF 2
ENDMDL
MODEL 4
REMARK VINA RESULT:      -5.8      1.841      4.764
REMARK  Name = 
REMARK  3 active torsions:
REMARK  status: ('A' for Active; 'I' for Inactive)
REMARK    1  A    between atoms: N_4  and  C_5
REMARK    2  A    between atoms: C_7  and  C_8
REMARK    3  A    between atoms: C_11  and  C_12
REMARK                            x       y       z     vdW  Elec       q    Type
REMARK                         _______ _______ _______ _____ _____    ______ ____
ROOT
ATOM      1  C   UNL     1       3.625   1.361  18.531  0.00  0.00    +0.000 C 
ATOM      2  C   UNL     1       3.246   2.630  18.753  0.00  0.00    +0.000 C 
ATOM      3  C   UNL     1       2.224   3.005  19.806  0.00  0.00    +0.000 C 
ATOM      4  N   UNL     1       2.136   4.476  19.658  0.00  0.00    +0.000 N 
ATOM      5  C   UNL     1       1.225   5.168  20.536  0.00  0.00    +0.000 C 
ATOM      6  C   UNL     1       2.997   4.947  18.662  0.00  0.00    +0.000 A 
ATOM      7  C   UNL     1       3.252   6.218  18.192  0.00  0.00    +0.000 A 
ATOM      8  C   UNL     1       4.213   6.374  17.132  0.00  0.00    +0.000 A 
ATOM      9  C   UNL     1       4.839   5.298  16.624  0.00  0.00    +0.000 A 
ATOM     10  C   UNL     1       4.589   3.916  17.104  0.00  0.00    +0.000 A 
ATOM     11  N   UNL     1       5.217   2.908  16.579  0.00  0.00    +0.000 NA
ATOM     12  N   UNL     1       3.664   3.806  18.121  0.00  0.00    +0.000 N 
ATOM     13  H   UNL     1       5.875   3.148  15.831  0.00  0.00    +0.000 HD
ENDROOT
BRANCH   7  14
ATOM     14  C   UNL     1       2.520   7.411  18.785  0.00  0.00    +0.000 C 
ATOM     15  N   UNL     1       1.913   8.401  19.277  0.00  0.00    +0.000 NA
ENDBRANCH   7  14
BRANCH   9  16
ATOM     16  C   UNL     1       5.847   5.479  15.501  0.00  0.00    +0.000 C 
ATOM     17  N   UNL     1       6.683   5.630  14.569  0.00  0.00    +0.000 NA
ENDBRANCH   9  16
TORSDOF 2
ENDMDL
MODEL 5
REMARK VINA RESULT:      -5.7      2.143      4.599
REMARK  Name = 
REMARK  3 active torsions:
REMARK  status: ('A' for Active; 'I' for Inactive)
REMARK    1  A    between atoms: N_4  and  C_5
REMARK    2  A    between atoms: C_7  and  C_8
REMARK    3  A    between atoms: C_11  and  C_12
REMARK                            x       y       z     vdW  Elec       q    Type
REMARK                         _______ _______ _______ _____ _____    ______ ____
ROOT
ATOM      1  C   UNL     1       2.997   8.258  17.808  0.00  0.00    +0.000 C 
ATOM      2  C   UNL     1       3.020   6.932  18.024  0.00  0.00    +0.000 C 
ATOM      3  C   UNL     1       2.092   6.248  19.006  0.00  0.00    +0.000 C 
ATOM      4  N   UNL     1       2.502   4.830  18.901  0.00  0.00    +0.000 N 
ATOM      5  C   UNL     1       1.798   3.883  19.730  0.00  0.00    +0.000 C 
ATOM      6  C   UNL     1       3.531   4.658  17.969  0.00  0.00    +0.000 A 
ATOM      7  C   UNL     1       4.209   3.535  17.545  0.00  0.00    +0.000 A 
ATOM      8  C   UNL     1       5.240   3.694  16.554  0.00  0.00    +0.000 A 
ATOM      9  C   UNL     1       5.524   4.914  16.064  0.00  0.00    +0.000 A 
ATOM     10  C   UNL     1       4.816   6.144  16.498  0.00  0.00    +0.000 A 
ATOM     11  N   UNL     1       5.128   7.301  15.996  0.00  0.00    +0.000 NA
ATOM     12  N   UNL     1       3.833   5.951  17.447  0.00  0.00    +0.000 N 
ATOM     13  H   UNL     1       5.880   7.284  15.301  0.00  0.00    +0.000 HD
ENDROOT
BRANCH   7  14
ATOM     14  C   UNL     1       3.867   2.172  18.126  0.00  0.00    +0.000 C 
ATOM     15  N   UNL     1       3.583   1.042  18.608  0.00  0.00    +0.000 NA
ENDBRANCH   7  14
BRANCH   9  16
ATOM     16  C   UNL     1       6.620   5.066  15.022  0.00  0.00    +0.000 C 
ATOM     17  N   UNL     1       7.530   5.192  14.158  0.00  0.00    +0.000 NA
ENDBRANCH   9  16
TORSDOF 2
ENDMDL
MODEL 6
REMARK VINA RESULT:      -5.7      1.531      3.747
REMARK  Name = 
REMARK  3 active torsions:
REMARK  status: ('A' for Active; 'I' for Inactive)
REMARK    1  A    between atoms: N_4  and  C_5
REMARK    2  A    between atoms: C_7  and  C_8
REMARK    3  A    between atoms: C_11  and  C_12
REMARK                            x       y       z     vdW  Elec       q    Type
REMARK                         _______ _______ _______ _____ _____    ______ ____
ROOT
ATOM      1  C   UNL     1       2.387   3.972  21.348  0.00  0.00    +0.000 C 
ATOM      2  C   UNL     1       3.002   4.366  20.221  0.00  0.00    +0.000 C 
ATOM      3  C   UNL     1       3.953   3.472  19.454  0.00  0.00    +0.000 C 
ATOM      4  N   UNL     1       4.371   4.339  18.329  0.00  0.00    +0.000 N 
ATOM      5  C   UNL     1       5.303   3.778  17.383  0.00  0.00    +0.000 C 
ATOM      6  C   UNL     1       3.750   5.591  18.384  0.00  0.00    +0.000 A 
ATOM      7  C   UNL     1       3.830   6.694  17.560  0.00  0.00    +0.000 A 
ATOM      8  C   UNL     1       3.052   7.856  17.898  0.00  0.00    +0.000 A 
ATOM      9  C   UNL     1       2.272   7.852  18.994  0.00  0.00    +0.000 A 
ATOM     10  C   UNL     1       2.163   6.684  19.904  0.00  0.00    +0.000 A 
ATOM     11  N   UNL     1       1.397   6.729  20.951  0.00  0.00    +0.000 NA
ATOM     12  N   UNL     1       2.921   5.589  19.545  0.00  0.00    +0.000 N 
ATOM     13  H   UNL     1       0.896   7.613  21.085  0.00  0.00    +0.000 HD
ENDROOT
BRANCH   7  14
ATOM     14  C   UNL     1       4.728   6.666  16.333  0.00  0.00    +0.000 C 
ATOM     15  N   UNL     1       5.473   6.643  15.316  0.00  0.00    +0.000 NA
ENDBRANCH   7  14
BRANCH   9  16
ATOM     16  C   UNL     1       1.461   9.090  19.340  0.00  0.00    +0.000 C 
ATOM     17  N   UNL     1       0.789  10.117  19.628  0.00  0.00    +0.000 NA
ENDBRANCH   9  16
TORSDOF 2
ENDMDL
MODEL 7
REMARK VINA RESULT:      -5.6      1.589      3.803
REMARK  Name = 
REMARK  3 active torsions:
REMARK  status: ('A' for Active; 'I' for Inactive)
REMARK    1  A    between atoms: N_4  and  C_5
REMARK    2  A    between atoms: C_7  and  C_8
REMARK    3  A    between atoms: C_11  and  C_12
REMARK                            x       y       z     vdW  Elec       q    Type
REMARK                         _______ _______ _______ _____ _____    ______ ____
ROOT
ATOM      1  C   UNL     1       2.062   2.167  19.907  0.00  0.00    +0.000 C 
ATOM      2  C   UNL     1       2.733   2.955  19.051  0.00  0.00    +0.000 C 
ATOM      3  C   UNL     1       3.600   2.402  17.939  0.00  0.00    +0.000 C 
ATOM      4  N   UNL     1       4.123   3.630  17.299  0.00  0.00    +0.000 N 
ATOM      5  C   UNL     1       5.008   3.455  16.174  0.00  0.00    +0.000 C 
ATOM      6  C   UNL     1       3.633   4.784  17.920  0.00  0.00    +0.000 A 
ATOM      7  C   UNL     1       3.840   6.123  17.664  0.00  0.00    +0.000 A 
ATOM      8  C   UNL     1       3.179   7.087  18.504  0.00  0.00    +0.000 A 
ATOM      9  C   UNL     1       2.385   6.677  19.509  0.00  0.00    +0.000 A 
ATOM     10  C   UNL     1       2.142   5.245  19.814  0.00  0.00    +0.000 A 
ATOM     11  N   UNL     1       1.368   4.899  20.797  0.00  0.00    +0.000 NA
ATOM     12  N   UNL     1       2.789   4.351  18.986  0.00  0.00    +0.000 N 
ATOM     13  H   UNL     1       0.958   5.678  21.322  0.00  0.00    +0.000 HD
ENDROOT
BRANCH   7  14
ATOM     14  C   UNL     1       4.750   6.551  16.524  0.00  0.00    +0.000 C 
ATOM     15  N   UNL     1       5.504   6.906  15.578  0.00  0.00    +0.000 NA
ENDBRANCH   7  14
BRANCH   9  16
ATOM     16  C   UNL     1       1.701   7.709  20.391  0.00  0.00    +0.000 C 
ATOM     17  N   UNL     1       1.133   8.565  21.123  0.00  0.00    +0.000 NA
ENDBRANCH   9  16
TORSDOF 2
ENDMDL
MODEL 8
REMARK VINA RESULT:      -5.6      3.115      5.392
REMARK  Name = 
REMARK  3 active torsions:
REMARK  status: ('A' for Active; 'I' for Inactive)
REMARK    1  A    between atoms: N_4  and  C_5
REMARK    2  A    between atoms: C_7  and  C_8
REMARK    3  A    between atoms: C_11  and  C_12
REMARK                            x       y       z     vdW  Elec       q    Type
REMARK                         _______ _______ _______ _____ _____    ______ ____
ROOT
ATOM      1  C   UNL     1       7.772   6.704  18.065  0.00  0.00    +0.000 C 
ATOM      2  C   UNL     1       6.663   5.947  18.109  0.00  0.00    +0.000 C 
ATOM      3  C   UNL     1       5.810   5.819  19.354  0.00  0.00    +0.000 C 
ATOM      4  N   UNL     1       4.743   4.891  18.917  0.00  0.00    +0.000 N 
ATOM      5  C   UNL     1       3.737   4.547  19.892  0.00  0.00    +0.000 C 
ATOM      6  C   UNL     1       4.904   4.511  17.582  0.00  0.00    +0.000 A 
ATOM      7  C   UNL     1       4.163   3.683  16.765  0.00  0.00    +0.000 A 
ATOM      8  C   UNL     1       4.604   3.489  15.409  0.00  0.00    +0.000 A 
ATOM      9  C   UNL     1       5.713   4.105  14.964  0.00  0.00    +0.000 A 
ATOM     10  C   UNL     1       6.537   5.000  15.815  0.00  0.00    +0.000 A 
ATOM     11  N   UNL     1       7.602   5.571  15.340  0.00  0.00    +0.000 NA
ATOM     12  N   UNL     1       6.081   5.164  17.107  0.00  0.00    +0.000 N 
ATOM     13  H   UNL     1       7.813   5.352  14.361  0.00  0.00    +0.000 HD
ENDROOT
BRANCH   7  14
ATOM     14  C   UNL     1       2.917   2.998  17.303  0.00  0.00    +0.000 C 
ATOM     15  N   UNL     1       1.883   2.429  17.749  0.00  0.00    +0.000 NA
ENDBRANCH   7  14
BRANCH   9  16
ATOM     16  C   UNL     1       6.169   3.884  13.531  0.00  0.00    +0.000 C 
ATOM     17  N   UNL     1       6.547   3.700  12.342  0.00  0.00    +0.000 NA
ENDBRANCH   9  16
TORSDOF 2
ENDMDL
MODEL 9
REMARK VINA RESULT:      -5.5      0.846      4.211
REMARK  Name = 
REMARK  3 active torsions:
REMARK  status: ('A' for Active; 'I' for Inactive)
REMARK    1  A    between atoms: N_4  and  C_5
REMARK    2  A    between atoms: C_7  and  C_8
REMARK    3  A    between atoms: C_11  and  C_12
REMARK                            x       y       z     vdW  Elec       q    Type
REMARK                         _______ _______ _______ _____ _____    ______ ____
ROOT
ATOM      1  C   UNL     1       4.932   3.922  16.980  0.00  0.00    +0.000 C 
ATOM      2  C   UNL     1       4.253   4.946  17.524  0.00  0.00    +0.000 C 
ATOM      3  C   UNL     1       4.286   6.346  16.948  0.00  0.00    +0.000 C 
ATOM      4  N   UNL     1       3.417   7.097  17.882  0.00  0.00    +0.000 N 
ATOM      5  C   UNL     1       3.230   8.502  17.615  0.00  0.00    +0.000 C 
ATOM      6  C   UNL     1       2.904   6.271  18.887  0.00  0.00    +0.000 A 
ATOM      7  C   UNL     1       2.062   6.529  19.948  0.00  0.00    +0.000 A 
ATOM      8  C   UNL     1       1.716   5.441  20.825  0.00  0.00    +0.000 A 
ATOM      9  C   UNL     1       2.211   4.210  20.602  0.00  0.00    +0.000 A 
ATOM     10  C   UNL     1       3.120   3.897  19.472  0.00  0.00    +0.000 A 
ATOM     11  N   UNL     1       3.573   2.693  19.300  0.00  0.00    +0.000 NA
ATOM     12  N   UNL     1       3.426   4.964  18.653  0.00  0.00    +0.000 N 
ATOM     13  H   UNL     1       3.257   2.006  19.992  0.00  0.00    +0.000 HD
ENDROOT
BRANCH   7  14
ATOM     14  C   UNL     1       1.527   7.934  20.174  0.00  0.00    +0.000 C 
ATOM     15  N   UNL     1       1.083   9.100  20.363  0.00  0.00    +0.000 NA
ENDBRANCH   7  14
BRANCH   9  16
ATOM     16  C   UNL     1       1.841   3.074  21.541  0.00  0.00    +0.000 C 
ATOM     17  N   UNL     1       1.535   2.131  22.321  0.00  0.00    +0.000 NA
ENDBRANCH   9  16
TORSDOF 2
ENDMDL
