MODEL 1
REMARK VINA RESULT:      -7.7      0.000      0.000
REMARK  Name = 
REMARK  13 active torsions:
REMARK  status: ('A' for Active; 'I' for Inactive)
REMARK    1  A    between atoms: C_1  and  O_2
REMARK    2  A    between atoms: O_2  and  C_3
REMARK    3  A    between atoms: C_6  and  N_7
REMARK    4  A    between atoms: N_7  and  C_8
REMARK    5  A    between atoms: C_8  and  C_9
REMARK    6  A    between atoms: C_9  and  N_10
REMARK    7  A    between atoms: C_11  and  C_13
REMARK    8  A    between atoms: C_18  and  O_19
REMARK    9  A    between atoms: O_19  and  C_20
REMARK   10  A    between atoms: C_23  and  C_24
REMARK   11  A    between atoms: C_23  and  C_25
REMARK   12  A    between atoms: C_28  and  O_29
REMARK   13  A    between atoms: O_29  and  C_30
REMARK                            x       y       z     vdW  Elec       q    Type
REMARK                         _______ _______ _______ _____ _____    ______ ____
ROOT
ATOM      1  N   UNL     1       2.476   6.449  19.707  0.00  0.00    +0.000 N 
ATOM      2  C   UNL     1       2.160   7.782  19.266  0.00  0.00    +0.000 C 
ATOM      3  O   UNL     1       2.729   8.306  18.305  0.00  0.00    +0.000 OA
ENDROOT
BRANCH   2   4
ATOM      4  C   UNL     1       1.160   8.630  20.016  0.00  0.00    +0.000 A 
ATOM      5  C   UNL     1       1.034   8.464  21.402  0.00  0.00    +0.000 A 
ATOM      6  C   UNL     1       0.776   9.596  22.179  0.00  0.00    +0.000 A 
ATOM      7  C   UNL     1       0.349  10.715  21.513  0.00  0.00    +0.000 A 
ATOM      8  C   UNL     1      -0.205  10.564  20.263  0.00  0.00    +0.000 A 
ATOM      9  C   UNL     1       0.409   9.657  19.430  0.00  0.00    +0.000 A 
ATOM     10  C   UNL     1      -1.257  11.519  19.948  0.00  0.00    +0.000 C 
ATOM     11  C   UNL     1      -1.018  12.785  20.303  0.00  0.00    +0.000 C 
ATOM     12  C   UNL     1       0.179  13.101  21.175  0.00  0.00    +0.000 C 
ATOM     13  C   UNL     1      -0.161  14.123  22.253  0.00  0.00    +0.000 C 
ATOM     14  C   UNL     1       1.269  13.676  20.253  0.00  0.00    +0.000 C 
ATOM     15  O   UNL     1       0.590  11.964  22.006  0.00  0.00    +0.000 OA
BRANCH   9  16
ATOM     16  O   UNL     1       0.298   9.864  18.079  0.00  0.00    +0.000 OA
ATOM     17  C   UNL     1      -1.022   9.602  17.584  0.00  0.00    +0.000 C 
ENDBRANCH   9  16
ENDBRANCH   2   4
BRANCH   1  21
ATOM     18  C   UNL     1       5.238   4.348  17.242  0.00  0.00    +0.000 A 
ATOM     19  C   UNL     1       3.872   4.468  16.886  0.00  0.00    +0.000 A 
ATOM     20  C   UNL     1       2.968   5.130  17.715  0.00  0.00    +0.000 A 
ATOM     21  C   UNL     1       3.396   5.720  18.911  0.00  0.00    +0.000 A 
ATOM     22  C   UNL     1       4.742   5.560  19.289  0.00  0.00    +0.000 A 
ATOM     23  C   UNL     1       5.654   4.844  18.488  0.00  0.00    +0.000 A 
BRANCH  18  25
ATOM     24  C   UNL     1       6.767   4.507  15.412  0.00  0.00    +0.000 C 
ATOM     25  O   UNL     1       6.138   3.701  16.414  0.00  0.00    +0.000 OA
ENDBRANCH  18  25
BRANCH  23  26
ATOM     26  O   UNL     1       6.894   4.742  19.066  0.00  0.00    +0.000 OA
ATOM     27  C   UNL     1       7.755   5.873  19.058  0.00  0.00    +0.000 C 
ENDBRANCH  23  26
ENDBRANCH   1  21
BRANCH   1  28
ATOM     28  C   UNL     1       1.716   5.714  20.734  0.00  0.00    +0.000 C 
BRANCH  28  29
ATOM     29  C   UNL     1       1.801   4.182  20.844  0.00  0.00    +0.000 C 
BRANCH  29  30
ATOM     30  N   UNL     1       0.581   3.606  20.253  0.00  0.00    +0.000 NA
ATOM     31  H   UNL     1       0.834   2.914  19.547  0.00  0.00    +0.000 HD
ATOM     32  H   UNL     1       0.054   4.330  19.767  0.00  0.00    +0.000 HD
ENDBRANCH  29  30
ENDBRANCH  28  29
ENDBRANCH   1  28
TORSDOF 8
ENDMDL
MODEL 2
REMARK VINA RESULT:      -7.3      2.058      3.390
REMARK  Name = 
REMARK  13 active torsions:
REMARK  status: ('A' for Active; 'I' for Inactive)
REMARK    1  A    between atoms: C_1  and  O_2
REMARK    2  A    between atoms: O_2  and  C_3
REMARK    3  A    between atoms: C_6  and  N_7
REMARK    4  A    between atoms: N_7  and  C_8
REMARK    5  A    between atoms: C_8  and  C_9
REMARK    6  A    between atoms: C_9  and  N_10
REMARK    7  A    between atoms: C_11  and  C_13
REMARK    8  A    between atoms: C_18  and  O_19
REMARK    9  A    between atoms: O_19  and  C_20
REMARK   10  A    between atoms: C_23  and  C_24
REMARK   11  A    between atoms: C_23  and  C_25
REMARK   12  A    between atoms: C_28  and  O_29
REMARK   13  A    between atoms: O_29  and  C_30
REMARK                            x       y       z     vdW  Elec       q    Type
REMARK                         _______ _______ _______ _____ _____    ______ ____
ROOT
ATOM      1  N   UNL     1       1.385   8.478  19.715  0.00  0.00    +0.000 N 
ATOM      2  C   UNL     1       1.102   9.184  18.493  0.00  0.00    +0.000 C 
ATOM      3  O   UNL     1       1.612   8.863  17.418  0.00  0.00    +0.000 OA
ENDROOT
BRANCH   2   4
ATOM      4  C   UNL     1       0.215  10.408  18.493  0.00  0.00    +0.000 A 
ATOM      5  C   UNL     1      -1.121  10.277  18.089  0.00  0.00    +0.000 A 
ATOM      6  C   UNL     1      -2.084  11.051  18.741  0.00  0.00    +0.000 A 
ATOM      7  C   UNL     1      -1.623  12.102  19.490  0.00  0.00    +0.000 A 
ATOM      8  C   UNL     1      -0.366  12.595  19.228  0.00  0.00    +0.000 A 
ATOM      9  C   UNL     1       0.612  11.663  18.970  0.00  0.00    +0.000 A 
ATOM     10  C   UNL     1      -0.224  14.028  19.436  0.00  0.00    +0.000 C 
ATOM     11  C   UNL     1      -0.794  14.515  20.542  0.00  0.00    +0.000 C 
ATOM     12  C   UNL     1      -1.707  13.628  21.361  0.00  0.00    +0.000 C 
ATOM     13  C   UNL     1      -2.947  14.377  21.834  0.00  0.00    +0.000 C 
ATOM     14  C   UNL     1      -0.900  13.156  22.583  0.00  0.00    +0.000 C 
ATOM     15  O   UNL     1      -2.327  12.563  20.564  0.00  0.00    +0.000 OA
BRANCH   9  16
ATOM     16  O   UNL     1       1.906  12.006  19.266  0.00  0.00    +0.000 OA
ATOM     17  C   UNL     1       2.637  12.458  18.117  0.00  0.00    +0.000 C 
ENDBRANCH   9  16
ENDBRANCH   2   4
BRANCH   1  21
ATOM     18  C   UNL     1       3.728   4.947  19.322  0.00  0.00    +0.000 A 
ATOM     19  C   UNL     1       2.645   5.019  20.232  0.00  0.00    +0.000 A 
ATOM     20  C   UNL     1       1.904   6.190  20.378  0.00  0.00    +0.000 A 
ATOM     21  C   UNL     1       2.194   7.319  19.603  0.00  0.00    +0.000 A 
ATOM     22  C   UNL     1       3.299   7.265  18.733  0.00  0.00    +0.000 A 
ATOM     23  C   UNL     1       4.093   6.106  18.618  0.00  0.00    +0.000 A 
BRANCH  18  25
ATOM     24  C   UNL     1       3.998   2.647  19.911  0.00  0.00    +0.000 C 
ATOM     25  O   UNL     1       4.458   3.781  19.168  0.00  0.00    +0.000 OA
ENDBRANCH  18  25
BRANCH  23  26
ATOM     26  O   UNL     1       5.160   6.281  17.774  0.00  0.00    +0.000 OA
ATOM     27  C   UNL     1       4.917   6.544  16.399  0.00  0.00    +0.000 C 
ENDBRANCH  23  26
ENDBRANCH   1  21
BRANCH   1  28
ATOM     28  C   UNL     1       0.679   8.710  20.989  0.00  0.00    +0.000 C 
BRANCH  28  29
ATOM     29  C   UNL     1       1.408   9.307  22.204  0.00  0.00    +0.000 C 
BRANCH  29  30
ATOM     30  N   UNL     1       0.397   9.740  23.185  0.00  0.00    +0.000 NA
ATOM     31  H   UNL     1       0.547  10.721  23.423  0.00  0.00    +0.000 HD
ATOM     32  H   UNL     1       0.507   9.217  24.053  0.00  0.00    +0.000 HD
ENDBRANCH  29  30
ENDBRANCH  28  29
ENDBRANCH   1  28
TORSDOF 8
ENDMDL
MODEL 3
REMARK VINA RESULT:      -7.3      2.135      3.699
REMARK  Name = 
REMARK  13 active torsions:
REMARK  status: ('A' for Active; 'I' for Inactive)
REMARK    1  A    between atoms: C_1  and  O_2
REMARK    2  A    between atoms: O_2  and  C_3
REMARK    3  A    between atoms: C_6  and  N_7
REMARK    4  A    between atoms: N_7  and  C_8
REMARK    5  A    between atoms: C_8  and  C_9
REMARK    6  A    between atoms: C_9  and  N_10
REMARK    7  A    between atoms: C_11  and  C_13
REMARK    8  A    between atoms: C_18  and  O_19
REMARK    9  A    between atoms: O_19  and  C_20
REMARK   10  A    between atoms: C_23  and  C_24
REMARK   11  A    between atoms: C_23  and  C_25
REMARK   12  A    between atoms: C_28  and  O_29
REMARK   13  A    between atoms: O_29  and  C_30
REMARK                            x       y       z     vdW  Elec       q    Type
REMARK                         _______ _______ _______ _____ _____    ______ ____
ROOT
ATOM      1  N   UNL     1       1.221   8.739  19.725  0.00  0.00    +0.000 N 
ATOM      2  C   UNL     1       0.941   9.481  18.524  0.00  0.00    +0.000 C 
ATOM      3  O   UNL     1       1.422   9.166  17.433  0.00  0.00    +0.000 OA
ENDROOT
BRANCH   2   4
ATOM      4  C   UNL     1       0.095  10.732  18.564  0.00  0.00    +0.000 A 
ATOM      5  C   UNL     1      -1.247  10.657  18.165  0.00  0.00    +0.000 A 
ATOM      6  C   UNL     1      -2.180  11.444  18.845  0.00  0.00    +0.000 A 
ATOM      7  C   UNL     1      -1.680  12.456  19.622  0.00  0.00    +0.000 A 
ATOM      8  C   UNL     1      -0.409  12.915  19.367  0.00  0.00    +0.000 A 
ATOM      9  C   UNL     1       0.536  11.959  19.076  0.00  0.00    +0.000 A 
ATOM     10  C   UNL     1      -0.218  14.336  19.616  0.00  0.00    +0.000 C 
ATOM     11  C   UNL     1      -0.766  14.808  20.739  0.00  0.00    +0.000 C 
ATOM     12  C   UNL     1      -1.704  13.928  21.538  0.00  0.00    +0.000 C 
ATOM     13  C   UNL     1      -2.916  14.703  22.040  0.00  0.00    +0.000 C 
ATOM     14  C   UNL     1      -0.907  13.393  22.741  0.00  0.00    +0.000 C 
ATOM     15  O   UNL     1      -2.363  12.909  20.714  0.00  0.00    +0.000 OA
BRANCH   9  16
ATOM     16  O   UNL     1       1.842  12.250  19.374  0.00  0.00    +0.000 OA
ATOM     17  C   UNL     1       2.597  12.654  18.223  0.00  0.00    +0.000 C 
ENDBRANCH   9  16
ENDBRANCH   2   4
BRANCH   1  21
ATOM     18  C   UNL     1       3.619   5.247  19.313  0.00  0.00    +0.000 A 
ATOM     19  C   UNL     1       3.732   6.333  18.410  0.00  0.00    +0.000 A 
ATOM     20  C   UNL     1       2.920   7.459  18.534  0.00  0.00    +0.000 A 
ATOM     21  C   UNL     1       1.989   7.557  19.575  0.00  0.00    +0.000 A 
ATOM     22  C   UNL     1       1.842   6.460  20.443  0.00  0.00    +0.000 A 
ATOM     23  C   UNL     1       2.616   5.291  20.296  0.00  0.00    +0.000 A 
BRANCH  18  25
ATOM     24  C   UNL     1       4.139   3.247  18.113  0.00  0.00    +0.000 C 
ATOM     25  O   UNL     1       4.432   4.133  19.198  0.00  0.00    +0.000 OA
ENDBRANCH  18  25
BRANCH  23  26
ATOM     26  O   UNL     1       2.271   4.314  21.195  0.00  0.00    +0.000 OA
ATOM     27  C   UNL     1       1.289   3.355  20.829  0.00  0.00    +0.000 C 
ENDBRANCH  23  26
ENDBRANCH   1  21
BRANCH   1  28
ATOM     28  C   UNL     1       0.545   8.966  21.016  0.00  0.00    +0.000 C 
BRANCH  28  29
ATOM     29  C   UNL     1       1.341   9.359  22.272  0.00  0.00    +0.000 C 
BRANCH  29  30
ATOM     30  N   UNL     1       0.385   9.743  23.326  0.00  0.00    +0.000 NA
ATOM     31  H   UNL     1      -0.078  10.615  23.069  0.00  0.00    +0.000 HD
ATOM     32  H   UNL     1       0.883   9.932  24.195  0.00  0.00    +0.000 HD
ENDBRANCH  29  30
ENDBRANCH  28  29
ENDBRANCH   1  28
TORSDOF 8
ENDMDL
MODEL 4
REMARK VINA RESULT:      -7.1      2.408      8.349
REMARK  Name = 
REMARK  13 active torsions:
REMARK  status: ('A' for Active; 'I' for Inactive)
REMARK    1  A    between atoms: C_1  and  O_2
REMARK    2  A    between atoms: O_2  and  C_3
REMARK    3  A    between atoms: C_6  and  N_7
REMARK    4  A    between atoms: N_7  and  C_8
REMARK    5  A    between atoms: C_8  and  C_9
REMARK    6  A    between atoms: C_9  and  N_10
REMARK    7  A    between atoms: C_11  and  C_13
REMARK    8  A    between atoms: C_18  and  O_19
REMARK    9  A    between atoms: O_19  and  C_20
REMARK   10  A    between atoms: C_23  and  C_24
REMARK   11  A    between atoms: C_23  and  C_25
REMARK   12  A    between atoms: C_28  and  O_29
REMARK   13  A    between atoms: O_29  and  C_30
REMARK                            x       y       z     vdW  Elec       q    Type
REMARK                         _______ _______ _______ _____ _____    ______ ____
ROOT
ATOM      1  N   UNL     1       1.086   9.352  20.255  0.00  0.00    +0.000 N 
ATOM      2  C   UNL     1       1.722   8.462  19.320  0.00  0.00    +0.000 C 
ATOM      3  O   UNL     1       1.794   8.720  18.117  0.00  0.00    +0.000 OA
ENDROOT
BRANCH   2   4
ATOM      4  C   UNL     1       2.269   7.126  19.769  0.00  0.00    +0.000 A 
ATOM      5  C   UNL     1       1.526   6.361  20.678  0.00  0.00    +0.000 A 
ATOM      6  C   UNL     1       1.543   4.972  20.535  0.00  0.00    +0.000 A 
ATOM      7  C   UNL     1       2.525   4.448  19.736  0.00  0.00    +0.000 A 
ATOM      8  C   UNL     1       3.645   5.206  19.488  0.00  0.00    +0.000 A 
ATOM      9  C   UNL     1       3.435   6.545  19.255  0.00  0.00    +0.000 A 
ATOM     10  C   UNL     1       4.873   4.439  19.337  0.00  0.00    +0.000 C 
ATOM     11  C   UNL     1       4.777   3.328  18.600  0.00  0.00    +0.000 C 
ATOM     12  C   UNL     1       3.412   2.832  18.173  0.00  0.00    +0.000 C 
ATOM     13  C   UNL     1       3.293   1.319  18.306  0.00  0.00    +0.000 C 
ATOM     14  C   UNL     1       3.228   3.230  16.698  0.00  0.00    +0.000 C 
ATOM     15  O   UNL     1       2.343   3.264  19.081  0.00  0.00    +0.000 OA
BRANCH   9  16
ATOM     16  O   UNL     1       4.351   7.203  18.476  0.00  0.00    +0.000 OA
ATOM     17  C   UNL     1       4.311   6.788  17.103  0.00  0.00    +0.000 C 
ENDBRANCH   9  16
ENDBRANCH   2   4
BRANCH   1  21
ATOM     18  C   UNL     1      -0.158  13.087  18.638  0.00  0.00    +0.000 A 
ATOM     19  C   UNL     1       1.027  12.971  19.407  0.00  0.00    +0.000 A 
ATOM     20  C   UNL     1       1.409  11.750  19.959  0.00  0.00    +0.000 A 
ATOM     21  C   UNL     1       0.644  10.598  19.743  0.00  0.00    +0.000 A 
ATOM     22  C   UNL     1      -0.557  10.721  19.022  0.00  0.00    +0.000 A 
ATOM     23  C   UNL     1      -0.986  11.961  18.506  0.00  0.00    +0.000 A 
BRANCH  18  25
ATOM     24  C   UNL     1      -0.286  15.462  18.874  0.00  0.00    +0.000 C 
ATOM     25  O   UNL     1      -0.532  14.296  18.080  0.00  0.00    +0.000 OA
ENDBRANCH  18  25
BRANCH  23  26
ATOM     26  O   UNL     1      -2.213  11.882  17.898  0.00  0.00    +0.000 OA
ATOM     27  C   UNL     1      -2.431  10.886  16.908  0.00  0.00    +0.000 C 
ENDBRANCH  23  26
ENDBRANCH   1  21
BRANCH   1  28
ATOM     28  C   UNL     1       1.119   9.177  21.719  0.00  0.00    +0.000 C 
BRANCH  28  29
ATOM     29  C   UNL     1      -0.180   9.080  22.538  0.00  0.00    +0.000 C 
BRANCH  29  30
ATOM     30  N   UNL     1       0.049   9.714  23.848  0.00  0.00    +0.000 NA
ATOM     31  H   UNL     1       0.953   9.421  24.219  0.00  0.00    +0.000 HD
ATOM     32  H   UNL     1      -0.651   9.392  24.517  0.00  0.00    +0.000 HD
ENDBRANCH  29  30
ENDBRANCH  28  29
ENDBRANCH   1  28
TORSDOF 8
ENDMDL
MODEL 5
REMARK VINA RESULT:      -7.1      5.008      8.119
REMARK  Name = 
REMARK  13 active torsions:
REMARK  status: ('A' for Active; 'I' for Inactive)
REMARK    1  A    between atoms: C_1  and  O_2
REMARK    2  A    between atoms: O_2  and  C_3
REMARK    3  A    between atoms: C_6  and  N_7
REMARK    4  A    between atoms: N_7  and  C_8
REMARK    5  A    between atoms: C_8  and  C_9
REMARK    6  A    between atoms: C_9  and  N_10
REMARK    7  A    between atoms: C_11  and  C_13
REMARK    8  A    between atoms: C_18  and  O_19
REMARK    9  A    between atoms: O_19  and  C_20
REMARK   10  A    between atoms: C_23  and  C_24
REMARK   11  A    between atoms: C_23  and  C_25
REMARK   12  A    between atoms: C_28  and  O_29
REMARK   13  A    between atoms: O_29  and  C_30
REMARK                            x       y       z     vdW  Elec       q    Type
REMARK                         _______ _______ _______ _____ _____    ______ ____
ROOT
ATOM      1  N   UNL     1      -0.042  11.628  18.864  0.00  0.00    +0.000 N 
ATOM      2  C   UNL     1       0.454  12.976  18.770  0.00  0.00    +0.000 C 
ATOM      3  O   UNL     1      -0.227  13.893  18.307  0.00  0.00    +0.000 OA
ENDROOT
BRANCH   2   4
ATOM      4  C   UNL     1       1.872  13.310  19.173  0.00  0.00    +0.000 A 
ATOM      5  C   UNL     1       2.856  13.396  18.178  0.00  0.00    +0.000 A 
ATOM      6  C   UNL     1       3.857  14.359  18.327  0.00  0.00    +0.000 A 
ATOM      7  C   UNL     1       3.991  14.921  19.571  0.00  0.00    +0.000 A 
ATOM      8  C   UNL     1       3.481  14.245  20.655  0.00  0.00    +0.000 A 
ATOM      9  C   UNL     1       2.257  13.643  20.477  0.00  0.00    +0.000 A 
ATOM     10  C   UNL     1       4.239  14.418  21.885  0.00  0.00    +0.000 C 
ATOM     11  C   UNL     1       4.648  15.663  22.146  0.00  0.00    +0.000 C 
ATOM     12  C   UNL     1       4.503  16.732  21.084  0.00  0.00    +0.000 C 
ATOM     13  C   UNL     1       5.736  17.624  21.008  0.00  0.00    +0.000 C 
ATOM     14  C   UNL     1       3.280  17.585  21.467  0.00  0.00    +0.000 C 
ATOM     15  O   UNL     1       4.488  16.182  19.724  0.00  0.00    +0.000 OA
BRANCH   9  16
ATOM     16  O   UNL     1       1.469  13.473  21.586  0.00  0.00    +0.000 OA
ATOM     17  C   UNL     1       0.730  14.654  21.927  0.00  0.00    +0.000 C 
ENDBRANCH   9  16
ENDBRANCH   2   4
BRANCH   1  21
ATOM     18  C   UNL     1      -4.117  11.131  17.742  0.00  0.00    +0.000 A 
ATOM     19  C   UNL     1      -3.753  11.854  18.903  0.00  0.00    +0.000 A 
ATOM     20  C   UNL     1      -2.418  11.985  19.281  0.00  0.00    +0.000 A 
ATOM     21  C   UNL     1      -1.398  11.425  18.502  0.00  0.00    +0.000 A 
ATOM     22  C   UNL     1      -1.761  10.665  17.374  0.00  0.00    +0.000 A 
ATOM     23  C   UNL     1      -3.110  10.477  17.013  0.00  0.00    +0.000 A 
BRANCH  18  25
ATOM     24  C   UNL     1      -6.415  11.169  18.398  0.00  0.00    +0.000 C 
ATOM     25  O   UNL     1      -5.442  11.010  17.360  0.00  0.00    +0.000 OA
ENDBRANCH  18  25
BRANCH  23  26
ATOM     26  O   UNL     1      -3.254   9.649  15.929  0.00  0.00    +0.000 OA
ATOM     27  C   UNL     1      -3.121  10.192  14.623  0.00  0.00    +0.000 C 
ENDBRANCH  23  26
ENDBRANCH   1  21
BRANCH   1  28
ATOM     28  C   UNL     1       0.660  10.533  19.559  0.00  0.00    +0.000 C 
BRANCH  28  29
ATOM     29  C   UNL     1       1.333   9.395  18.773  0.00  0.00    +0.000 C 
BRANCH  29  30
ATOM     30  N   UNL     1       1.860   9.948  17.514  0.00  0.00    +0.000 NA
ATOM     31  H   UNL     1       2.768  10.383  17.682  0.00  0.00    +0.000 HD
ATOM     32  H   UNL     1       1.247  10.690  17.176  0.00  0.00    +0.000 HD
ENDBRANCH  29  30
ENDBRANCH  28  29
ENDBRANCH   1  28
TORSDOF 8
ENDMDL
MODEL 6
REMARK VINA RESULT:      -7.0      2.216      4.063
REMARK  Name = 
REMARK  13 active torsions:
REMARK  status: ('A' for Active; 'I' for Inactive)
REMARK    1  A    between atoms: C_1  and  O_2
REMARK    2  A    between atoms: O_2  and  C_3
REMARK    3  A    between atoms: C_6  and  N_7
REMARK    4  A    between atoms: N_7  and  C_8
REMARK    5  A    between atoms: C_8  and  C_9
REMARK    6  A    between atoms: C_9  and  N_10
REMARK    7  A    between atoms: C_11  and  C_13
REMARK    8  A    between atoms: C_18  and  O_19
REMARK    9  A    between atoms: O_19  and  C_20
REMARK   10  A    between atoms: C_23  and  C_24
REMARK   11  A    between atoms: C_23  and  C_25
REMARK   12  A    between atoms: C_28  and  O_29
REMARK   13  A    between atoms: O_29  and  C_30
REMARK                            x       y       z     vdW  Elec       q    Type
REMARK                         _______ _______ _______ _____ _____    ______ ____
ROOT
ATOM      1  N   UNL     1       1.111   9.580  19.693  0.00  0.00    +0.000 N 
ATOM      2  C   UNL     1       0.295  10.112  18.634  0.00  0.00    +0.000 C 
ATOM      3  O   UNL     1       0.236   9.581  17.522  0.00  0.00    +0.000 OA
ENDROOT
BRANCH   2   4
ATOM      4  C   UNL     1      -0.475  11.399  18.820  0.00  0.00    +0.000 A 
ATOM      5  C   UNL     1      -1.826  11.333  19.188  0.00  0.00    +0.000 A 
ATOM      6  C   UNL     1      -2.319  12.312  20.054  0.00  0.00    +0.000 A 
ATOM      7  C   UNL     1      -1.547  13.432  20.220  0.00  0.00    +0.000 A 
ATOM      8  C   UNL     1      -0.611  13.734  19.258  0.00  0.00    +0.000 A 
ATOM      9  C   UNL     1       0.101  12.673  18.747  0.00  0.00    +0.000 A 
ATOM     10  C   UNL     1      -0.394  15.158  19.052  0.00  0.00    +0.000 C 
ATOM     11  C   UNL     1      -0.314  15.900  20.159  0.00  0.00    +0.000 C 
ATOM     12  C   UNL     1      -0.664  15.283  21.497  0.00  0.00    +0.000 C 
ATOM     13  C   UNL     1      -1.487  16.232  22.360  0.00  0.00    +0.000 C 
ATOM     14  C   UNL     1       0.663  14.968  22.210  0.00  0.00    +0.000 C 
ATOM     15  O   UNL     1      -1.598  14.158  21.375  0.00  0.00    +0.000 OA
BRANCH   9  16
ATOM     16  O   UNL     1       1.358  12.930  18.264  0.00  0.00    +0.000 OA
ATOM     17  C   UNL     1       2.330  13.092  19.306  0.00  0.00    +0.000 C 
ENDBRANCH   9  16
ENDBRANCH   2   4
BRANCH   1  21
ATOM     18  C   UNL     1       3.160   5.926  18.941  0.00  0.00    +0.000 A 
ATOM     19  C   UNL     1       3.246   7.020  18.045  0.00  0.00    +0.000 A 
ATOM     20  C   UNL     1       2.546   8.201  18.283  0.00  0.00    +0.000 A 
ATOM     21  C   UNL     1       1.761   8.346  19.433  0.00  0.00    +0.000 A 
ATOM     22  C   UNL     1       1.635   7.244  20.299  0.00  0.00    +0.000 A 
ATOM     23  C   UNL     1       2.292   6.024  20.041  0.00  0.00    +0.000 A 
BRANCH  18  25
ATOM     24  C   UNL     1       5.262   4.792  19.014  0.00  0.00    +0.000 C 
ATOM     25  O   UNL     1       3.864   4.757  18.712  0.00  0.00    +0.000 OA
ENDBRANCH  18  25
BRANCH  23  26
ATOM     26  O   UNL     1       1.985   5.056  20.963  0.00  0.00    +0.000 OA
ATOM     27  C   UNL     1       1.102   4.005  20.594  0.00  0.00    +0.000 C 
ENDBRANCH  23  26
ENDBRANCH   1  21
BRANCH   1  28
ATOM     28  C   UNL     1       1.090  10.072  21.083  0.00  0.00    +0.000 C 
BRANCH  28  29
ATOM     29  C   UNL     1      -0.094   9.766  22.016  0.00  0.00    +0.000 C 
BRANCH  29  30
ATOM     30  N   UNL     1      -0.311  10.933  22.888  0.00  0.00    +0.000 NA
ATOM     31  H   UNL     1      -0.632  10.622  23.806  0.00  0.00    +0.000 HD
ATOM     32  H   UNL     1      -1.056  11.517  22.509  0.00  0.00    +0.000 HD
ENDBRANCH  29  30
ENDBRANCH  28  29
ENDBRANCH   1  28
TORSDOF 8
ENDMDL
MODEL 7
REMARK VINA RESULT:      -7.0      2.813      5.299
REMARK  Name = 
REMARK  13 active torsions:
REMARK  status: ('A' for Active; 'I' for Inactive)
REMARK    1  A    between atoms: C_1  and  O_2
REMARK    2  A    between atoms: O_2  and  C_3
REMARK    3  A    between atoms: C_6  and  N_7
REMARK    4  A    between atoms: N_7  and  C_8
REMARK    5  A    between atoms: C_8  and  C_9
REMARK    6  A    between atoms: C_9  and  N_10
REMARK    7  A    between atoms: C_11  and  C_13
REMARK    8  A    between atoms: C_18  and  O_19
REMARK    9  A    between atoms: O_19  and  C_20
REMARK   10  A    between atoms: C_23  and  C_24
REMARK   11  A    between atoms: C_23  and  C_25
REMARK   12  A    between atoms: C_28  and  O_29
REMARK   13  A    between atoms: O_29  and  C_30
REMARK                            x       y       z     vdW  Elec       q    Type
REMARK                         _______ _______ _______ _____ _____    ______ ____
ROOT
ATOM      1  N   UNL     1       0.139  10.671  19.887  0.00  0.00    +0.000 N 
ATOM      2  C   UNL     1       0.799  11.739  20.592  0.00  0.00    +0.000 C 
ATOM      3  O   UNL     1       1.993  11.683  20.896  0.00  0.00    +0.000 OA
ENDROOT
BRANCH   2   4
ATOM      4  C   UNL     1       0.029  12.953  21.057  0.00  0.00    +0.000 A 
ATOM      5  C   UNL     1      -0.058  14.066  20.209  0.00  0.00    +0.000 A 
ATOM      6  C   UNL     1      -1.249  14.796  20.204  0.00  0.00    +0.000 A 
ATOM      7  C   UNL     1      -2.112  14.573  21.245  0.00  0.00    +0.000 A 
ATOM      8  C   UNL     1      -1.616  14.022  22.404  0.00  0.00    +0.000 A 
ATOM      9  C   UNL     1      -0.699  13.008  22.252  0.00  0.00    +0.000 A 
ATOM     10  C   UNL     1      -2.270  14.481  23.619  0.00  0.00    +0.000 C 
ATOM     11  C   UNL     1      -3.603  14.562  23.567  0.00  0.00    +0.000 C 
ATOM     12  C   UNL     1      -4.308  14.398  22.237  0.00  0.00    +0.000 C 
ATOM     13  C   UNL     1      -5.436  15.408  22.066  0.00  0.00    +0.000 C 
ATOM     14  C   UNL     1      -4.890  12.974  22.208  0.00  0.00    +0.000 C 
ATOM     15  O   UNL     1      -3.456  14.755  21.097  0.00  0.00    +0.000 OA
BRANCH   9  16
ATOM     16  O   UNL     1      -0.612  12.079  23.257  0.00  0.00    +0.000 OA
ATOM     17  C   UNL     1      -1.595  11.041  23.139  0.00  0.00    +0.000 C 
ENDBRANCH   9  16
ENDBRANCH   2   4
BRANCH   1  21
ATOM     18  C   UNL     1       2.687   7.512  18.608  0.00  0.00    +0.000 A 
ATOM     19  C   UNL     1       2.379   8.603  17.759  0.00  0.00    +0.000 A 
ATOM     20  C   UNL     1       1.518   9.617  18.175  0.00  0.00    +0.000 A 
ATOM     21  C   UNL     1       0.958   9.596  19.457  0.00  0.00    +0.000 A 
ATOM     22  C   UNL     1       1.224   8.489  20.284  0.00  0.00    +0.000 A 
ATOM     23  C   UNL     1       2.047   7.428  19.855  0.00  0.00    +0.000 A 
BRANCH  18  25
ATOM     24  C   UNL     1       4.420   6.832  17.109  0.00  0.00    +0.000 C 
ATOM     25  O   UNL     1       3.551   6.510  18.200  0.00  0.00    +0.000 OA
ENDBRANCH  18  25
BRANCH  23  26
ATOM     26  O   UNL     1       2.124   6.415  20.777  0.00  0.00    +0.000 OA
ATOM     27  C   UNL     1       1.448   5.193  20.518  0.00  0.00    +0.000 C 
ENDBRANCH  23  26
ENDBRANCH   1  21
BRANCH   1  28
ATOM     28  C   UNL     1      -1.232  10.755  19.352  0.00  0.00    +0.000 C 
BRANCH  28  29
ATOM     29  C   UNL     1      -1.537  11.541  18.066  0.00  0.00    +0.000 C 
BRANCH  29  30
ATOM     30  N   UNL     1      -1.692  10.580  16.960  0.00  0.00    +0.000 NA
ATOM     31  H   UNL     1      -1.842  11.083  16.085  0.00  0.00    +0.000 HD
ATOM     32  H   UNL     1      -2.526  10.011  17.107  0.00  0.00    +0.000 HD
ENDBRANCH  29  30
ENDBRANCH  28  29
ENDBRANCH   1  28
TORSDOF 8
ENDMDL
MODEL 8
REMARK VINA RESULT:      -7.0      2.232      4.002
REMARK  Name = 
REMARK  13 active torsions:
REMARK  status: ('A' for Active; 'I' for Inactive)
REMARK    1  A    between atoms: C_1  and  O_2
REMARK    2  A    between atoms: O_2  and  C_3
REMARK    3  A    between atoms: C_6  and  N_7
REMARK    4  A    between atoms: N_7  and  C_8
REMARK    5  A    between atoms: C_8  and  C_9
REMARK    6  A    between atoms: C_9  and  N_10
REMARK    7  A    between atoms: C_11  and  C_13
REMARK    8  A    between atoms: C_18  and  O_19
REMARK    9  A    between atoms: O_19  and  C_20
REMARK   10  A    between atoms: C_23  and  C_24
REMARK   11  A    between atoms: C_23  and  C_25
REMARK   12  A    between atoms: C_28  and  O_29
REMARK   13  A    between atoms: O_29  and  C_30
REMARK                            x       y       z     vdW  Elec       q    Type
REMARK                         _______ _______ _______ _____ _____    ______ ____
ROOT
ATOM      1  N   UNL     1       1.002   9.106  19.832  0.00  0.00    +0.000 N 
ATOM      2  C   UNL     1       0.814  10.144  18.852  0.00  0.00    +0.000 C 
ATOM      3  O   UNL     1       1.424  10.151  17.781  0.00  0.00    +0.000 OA
ENDROOT
BRANCH   2   4
ATOM      4  C   UNL     1      -0.095  11.318  19.132  0.00  0.00    +0.000 A 
ATOM      5  C   UNL     1      -1.216  11.518  18.314  0.00  0.00    +0.000 A 
ATOM      6  C   UNL     1      -2.383  12.007  18.906  0.00  0.00    +0.000 A 
ATOM      7  C   UNL     1      -2.254  12.556  20.156  0.00  0.00    +0.000 A 
ATOM      8  C   UNL     1      -1.012  12.986  20.561  0.00  0.00    +0.000 A 
ATOM      9  C   UNL     1       0.050  12.177  20.229  0.00  0.00    +0.000 A 
ATOM     10  C   UNL     1      -1.030  14.149  21.434  0.00  0.00    +0.000 C 
ATOM     11  C   UNL     1      -1.957  14.140  22.396  0.00  0.00    +0.000 C 
ATOM     12  C   UNL     1      -3.034  13.075  22.383  0.00  0.00    +0.000 C 
ATOM     13  C   UNL     1      -4.403  13.650  22.727  0.00  0.00    +0.000 C 
ATOM     14  C   UNL     1      -2.643  12.025  23.437  0.00  0.00    +0.000 C 
ATOM     15  O   UNL     1      -3.296  12.552  21.037  0.00  0.00    +0.000 OA
BRANCH   9  16
ATOM     16  O   UNL     1       1.154  12.219  21.041  0.00  0.00    +0.000 OA
ATOM     17  C   UNL     1       2.179  13.089  20.540  0.00  0.00    +0.000 C 
ENDBRANCH   9  16
ENDBRANCH   2   4
BRANCH   1  21
ATOM     18  C   UNL     1       3.615   5.930  18.738  0.00  0.00    +0.000 A 
ATOM     19  C   UNL     1       3.476   7.085  17.930  0.00  0.00    +0.000 A 
ATOM     20  C   UNL     1       2.594   8.106  18.280  0.00  0.00    +0.000 A 
ATOM     21  C   UNL     1       1.842   8.027  19.458  0.00  0.00    +0.000 A 
ATOM     22  C   UNL     1       1.943   6.859  20.236  0.00  0.00    +0.000 A 
ATOM     23  C   UNL     1       2.788   5.794  19.865  0.00  0.00    +0.000 A 
BRANCH  18  25
ATOM     24  C   UNL     1       5.801   4.997  18.987  0.00  0.00    +0.000 C 
ATOM     25  O   UNL     1       4.499   4.921  18.398  0.00  0.00    +0.000 OA
ENDBRANCH  18  25
BRANCH  23  26
ATOM     26  O   UNL     1       2.688   4.722  20.715  0.00  0.00    +0.000 OA
ATOM     27  C   UNL     1       1.466   4.001  20.777  0.00  0.00    +0.000 C 
ENDBRANCH  23  26
ENDBRANCH   1  21
BRANCH   1  28
ATOM     28  C   UNL     1       0.182   8.956  21.048  0.00  0.00    +0.000 C 
BRANCH  28  29
ATOM     29  C   UNL     1       0.802   9.094  22.449  0.00  0.00    +0.000 C 
BRANCH  29  30
ATOM     30  N   UNL     1       0.113  10.188  23.156  0.00  0.00    +0.000 NA
ATOM     31  H   UNL     1       0.662  10.471  23.968  0.00  0.00    +0.000 HD
ATOM     32  H   UNL     1      -0.782   9.859  23.517  0.00  0.00    +0.000 HD
ENDBRANCH  29  30
ENDBRANCH  28  29
ENDBRANCH   1  28
TORSDOF 8
ENDMDL
MODEL 9
REMARK VINA RESULT:      -7.0      2.361      4.077
REMARK  Name = 
REMARK  13 active torsions:
REMARK  status: ('A' for Active; 'I' for Inactive)
REMARK    1  A    between atoms: C_1  and  O_2
REMARK    2  A    between atoms: O_2  and  C_3
REMARK    3  A    between atoms: C_6  and  N_7
REMARK    4  A    between atoms: N_7  and  C_8
REMARK    5  A    between atoms: C_8  and  C_9
REMARK    6  A    between atoms: C_9  and  N_10
REMARK    7  A    between atoms: C_11  and  C_13
REMARK    8  A    between atoms: C_18  and  O_19
REMARK    9  A    between atoms: O_19  and  C_20
REMARK   10  A    between atoms: C_23  and  C_24
REMARK   11  A    between atoms: C_23  and  C_25
REMARK   12  A    between atoms: C_28  and  O_29
REMARK   13  A    between atoms: O_29  and  C_30
REMARK                            x       y       z     vdW  Elec       q    Type
REMARK                         _______ _______ _______ _____ _____    ______ ____
ROOT
ATOM      1  N   UNL     1       0.982   9.640  19.887  0.00  0.00    +0.000 N 
ATOM      2  C   UNL     1       0.218  10.143  18.776  0.00  0.00    +0.000 C 
ATOM      3  O   UNL     1       0.156   9.545  17.700  0.00  0.00    +0.000 OA
ENDROOT
BRANCH   2   4
ATOM      4  C   UNL     1      -0.487  11.477  18.861  0.00  0.00    +0.000 A 
ATOM      5  C   UNL     1      -1.851  11.503  19.183  0.00  0.00    +0.000 A 
ATOM      6  C   UNL     1      -2.319  12.556  19.974  0.00  0.00    +0.000 A 
ATOM      7  C   UNL     1      -1.494  13.642  20.104  0.00  0.00    +0.000 A 
ATOM      8  C   UNL     1      -0.512  13.838  19.161  0.00  0.00    +0.000 A 
ATOM      9  C   UNL     1       0.159  12.714  18.737  0.00  0.00    +0.000 A 
ATOM     10  C   UNL     1      -0.212  15.234  18.882  0.00  0.00    +0.000 C 
ATOM     11  C   UNL     1      -0.128  16.035  19.948  0.00  0.00    +0.000 C 
ATOM     12  C   UNL     1      -0.555  15.516  21.305  0.00  0.00    +0.000 C 
ATOM     13  C   UNL     1      -1.354  16.556  22.082  0.00  0.00    +0.000 C 
ATOM     14  C   UNL     1       0.729  15.175  22.082  0.00  0.00    +0.000 C 
ATOM     15  O   UNL     1      -1.543  14.436  21.213  0.00  0.00    +0.000 OA
BRANCH   9  16
ATOM     16  O   UNL     1       1.443  12.876  18.286  0.00  0.00    +0.000 OA
ATOM     17  C   UNL     1       2.377  13.120  19.347  0.00  0.00    +0.000 C 
ENDBRANCH   9  16
ENDBRANCH   2   4
BRANCH   1  21
ATOM     18  C   UNL     1       2.646   5.757  19.369  0.00  0.00    +0.000 A 
ATOM     19  C   UNL     1       1.901   6.094  20.526  0.00  0.00    +0.000 A 
ATOM     20  C   UNL     1       1.387   7.378  20.702  0.00  0.00    +0.000 A 
ATOM     21  C   UNL     1       1.571   8.360  19.722  0.00  0.00    +0.000 A 
ATOM     22  C   UNL     1       2.352   8.042  18.596  0.00  0.00    +0.000 A 
ATOM     23  C   UNL     1       2.926   6.765  18.432  0.00  0.00    +0.000 A 
BRANCH  18  25
ATOM     24  C   UNL     1       2.326   3.407  19.663  0.00  0.00    +0.000 C 
ATOM     25  O   UNL     1       3.147   4.480  19.189  0.00  0.00    +0.000 OA
ENDBRANCH  18  25
BRANCH  23  26
ATOM     26  O   UNL     1       3.707   6.679  17.308  0.00  0.00    +0.000 OA
ATOM     27  C   UNL     1       5.120   6.734  17.443  0.00  0.00    +0.000 C 
ENDBRANCH  23  26
ENDBRANCH   1  21
BRANCH   1  28
ATOM     28  C   UNL     1       0.956  10.221  21.242  0.00  0.00    +0.000 C 
BRANCH  28  29
ATOM     29  C   UNL     1      -0.270  10.054  22.155  0.00  0.00    +0.000 C 
BRANCH  29  30
ATOM     30  N   UNL     1       0.204   9.806  23.528  0.00  0.00    +0.000 NA
ATOM     31  H   UNL     1       0.791   8.972  23.545  0.00  0.00    +0.000 HD
ATOM     32  H   UNL     1      -0.588   9.608  24.139  0.00  0.00    +0.000 HD
ENDBRANCH  29  30
ENDBRANCH  28  29
ENDBRANCH   1  28
TORSDOF 8
ENDMDL
