MODEL 1
REMARK VINA RESULT:      -7.1      0.000      0.000
REMARK  Name = 
REMARK  12 active torsions:
REMARK  status: ('A' for Active; 'I' for Inactive)
REMARK    1  A    between atoms: N_1  and  C_2
REMARK    2  A    between atoms: C_2  and  C_3
REMARK    3  A    between atoms: C_3  and  C_4
REMARK    4  A    between atoms: C_4  and  C_5
REMARK    5  A    between atoms: C_5  and  C_6
REMARK    6  A    between atoms: C_6  and  C_7
REMARK    7  A    between atoms: C_7  and  O_9
REMARK    8  A    between atoms: N_11  and  C_12
REMARK    9  A    between atoms: C_12  and  C_13
REMARK   10  A    between atoms: C_13  and  C_14
REMARK   11  A    between atoms: C_14  and  C_15
REMARK   12  A    between atoms: P_23  and  O_25
REMARK                            x       y       z     vdW  Elec       q    Type
REMARK                         _______ _______ _______ _____ _____    ______ ____
ROOT
ATOM      1  C   UNL     1       4.831   4.562  18.539  0.00  0.00    +0.000 C 
ATOM      2  C   UNL     1       4.255   5.898  19.061  0.00  0.00    +0.000 C 
ATOM      3  N   UNL     1       2.771   5.883  19.161  0.00  0.00    +0.000 NA
ATOM      4  C   UNL     1       2.346   5.233  20.413  0.00  0.00    +0.000 C 
ATOM      5  C   UNL     1       2.686   3.772  20.465  0.00  0.00    +0.000 C 
ATOM      6  P   UNL     1       4.031   3.239  19.431  0.00  0.00    +0.000 P 
ATOM      7  O   UNL     1       4.982   2.368  20.198  0.00  0.00    +0.000 OA
ENDROOT
BRANCH   1   8
ATOM      8  C   UNL     1       6.332   4.702  18.793  0.00  0.00    +0.000 C 
ATOM      9  O   UNL     1       6.803   5.315  19.748  0.00  0.00    +0.000 OA
BRANCH   8  10
ATOM     10  O   UNL     1       7.150   3.976  18.006  0.00  0.00    +0.000 OA
ATOM     11  H   UNL     1       8.115   4.158  18.095  0.00  0.00    +0.000 HD
ENDBRANCH   8  10
ENDBRANCH   1   8
BRANCH   6  12
ATOM     12  O   UNL     1       3.151   2.454  18.322  0.00  0.00    +0.000 OA
ATOM     13  H   UNL     1       2.926   3.001  17.538  0.00  0.00    +0.000 HD
ENDBRANCH   6  12
BRANCH   1  14
ATOM     14  C   UNL     1       4.647   4.441  16.979  0.00  0.00    +0.000 C 
BRANCH  14  15
ATOM     15  C   UNL     1       5.075   5.696  16.179  0.00  0.00    +0.000 C 
BRANCH  15  16
ATOM     16  C   UNL     1       5.998   5.359  14.998  0.00  0.00    +0.000 C 
BRANCH  16  17
ATOM     17  C   UNL     1       5.862   3.900  14.545  0.00  0.00    +0.000 C 
BRANCH  17  18
ATOM     18  N   UNL     1       6.529   3.651  13.265  0.00  0.00    +0.000 NA
ATOM     19  H   UNL     1       6.002   4.123  12.529  0.00  0.00    +0.000 HD
ATOM     20  H   UNL     1       6.472   2.654  13.055  0.00  0.00    +0.000 HD
ENDBRANCH  17  18
ENDBRANCH  16  17
ENDBRANCH  15  16
ENDBRANCH  14  15
ENDBRANCH   1  14
BRANCH   3  21
ATOM     21  C   UNL     1       2.236   7.267  19.212  0.00  0.00    +0.000 C 
BRANCH  21  22
ATOM     22  C   UNL     1       2.069   7.943  17.855  0.00  0.00    +0.000 C 
BRANCH  22  23
ATOM     23  C   UNL     1       2.143   9.466  17.947  0.00  0.00    +0.000 C 
BRANCH  23  24
ATOM     24  C   UNL     1       0.855  10.008  18.503  0.00  0.00    +0.000 A 
ATOM     25  C   UNL     1      -0.351   9.817  17.816  0.00  0.00    +0.000 A 
ATOM     26  C   UNL     1      -1.532  10.370  18.303  0.00  0.00    +0.000 A 
ATOM     27  C   UNL     1      -1.514  11.119  19.481  0.00  0.00    +0.000 A 
ATOM     28  C   UNL     1      -0.316  11.320  20.166  0.00  0.00    +0.000 A 
ATOM     29  C   UNL     1       0.862  10.769  19.676  0.00  0.00    +0.000 A 
ENDBRANCH  23  24
ENDBRANCH  22  23
ENDBRANCH  21  22
ENDBRANCH   3  21
TORSDOF 12
ENDMDL
MODEL 2
REMARK VINA RESULT:      -7.1      1.840      2.501
REMARK  Name = 
REMARK  12 active torsions:
REMARK  status: ('A' for Active; 'I' for Inactive)
REMARK    1  A    between atoms: N_1  and  C_2
REMARK    2  A    between atoms: C_2  and  C_3
REMARK    3  A    between atoms: C_3  and  C_4
REMARK    4  A    between atoms: C_4  and  C_5
REMARK    5  A    between atoms: C_5  and  C_6
REMARK    6  A    between atoms: C_6  and  C_7
REMARK    7  A    between atoms: C_7  and  O_9
REMARK    8  A    between atoms: N_11  and  C_12
REMARK    9  A    between atoms: C_12  and  C_13
REMARK   10  A    between atoms: C_13  and  C_14
REMARK   11  A    between atoms: C_14  and  C_15
REMARK   12  A    between atoms: P_23  and  O_25
REMARK                            x       y       z     vdW  Elec       q    Type
REMARK                         _______ _______ _______ _____ _____    ______ ____
ROOT
ATOM      1  C   UNL     1       3.807   4.479  18.658  0.00  0.00    +0.000 C 
ATOM      2  C   UNL     1       3.595   5.695  19.587  0.00  0.00    +0.000 C 
ATOM      3  N   UNL     1       2.194   6.196  19.566  0.00  0.00    +0.000 NA
ATOM      4  C   UNL     1       1.344   5.389  20.458  0.00  0.00    +0.000 C 
ATOM      5  C   UNL     1       1.184   3.969  19.997  0.00  0.00    +0.000 C 
ATOM      6  P   UNL     1       2.468   3.335  18.942  0.00  0.00    +0.000 P 
ATOM      7  O   UNL     1       2.920   1.981  19.406  0.00  0.00    +0.000 OA
ENDROOT
BRANCH   1   8
ATOM      8  C   UNL     1       5.193   3.970  19.055  0.00  0.00    +0.000 C 
ATOM      9  O   UNL     1       6.188   4.688  19.109  0.00  0.00    +0.000 OA
BRANCH   8  10
ATOM     10  O   UNL     1       5.265   2.705  19.516  0.00  0.00    +0.000 OA
ATOM     11  H   UNL     1       4.417   2.303  19.816  0.00  0.00    +0.000 HD
ENDBRANCH   8  10
ENDBRANCH   1   8
BRANCH   6  12
ATOM     12  O   UNL     1       1.623   3.322  17.562  0.00  0.00    +0.000 OA
ATOM     13  H   UNL     1       0.723   3.704  17.647  0.00  0.00    +0.000 HD
ENDBRANCH   6  12
BRANCH   1  14
ATOM     14  C   UNL     1       3.909   4.934  17.152  0.00  0.00    +0.000 C 
BRANCH  14  15
ATOM     15  C   UNL     1       4.701   3.967  16.238  0.00  0.00    +0.000 C 
BRANCH  15  16
ATOM     16  C   UNL     1       5.548   4.705  15.189  0.00  0.00    +0.000 C 
BRANCH  16  17
ATOM     17  C   UNL     1       7.030   4.778  15.577  0.00  0.00    +0.000 C 
BRANCH  17  18
ATOM     18  N   UNL     1       7.335   5.958  16.388  0.00  0.00    +0.000 NA
ATOM     19  H   UNL     1       7.215   5.714  17.373  0.00  0.00    +0.000 HD
ATOM     20  H   UNL     1       6.640   6.679  16.193  0.00  0.00    +0.000 HD
ENDBRANCH  17  18
ENDBRANCH  16  17
ENDBRANCH  15  16
ENDBRANCH  14  15
ENDBRANCH   1  14
BRANCH   3  21
ATOM     21  C   UNL     1       2.128   7.587  20.080  0.00  0.00    +0.000 C 
BRANCH  21  22
ATOM     22  C   UNL     1       0.964   7.870  21.025  0.00  0.00    +0.000 C 
BRANCH  22  23
ATOM     23  C   UNL     1       1.308   8.922  22.077  0.00  0.00    +0.000 C 
BRANCH  23  24
ATOM     24  C   UNL     1       0.290  10.029  22.046  0.00  0.00    +0.000 A 
ATOM     25  C   UNL     1      -0.565  10.238  23.136  0.00  0.00    +0.000 A 
ATOM     26  C   UNL     1      -1.545  11.225  23.081  0.00  0.00    +0.000 A 
ATOM     27  C   UNL     1      -1.678  12.009  21.933  0.00  0.00    +0.000 A 
ATOM     28  C   UNL     1      -0.835  11.801  20.841  0.00  0.00    +0.000 A 
ATOM     29  C   UNL     1       0.141  10.813  20.898  0.00  0.00    +0.000 A 
ENDBRANCH  23  24
ENDBRANCH  22  23
ENDBRANCH  21  22
ENDBRANCH   3  21
TORSDOF 12
ENDMDL
MODEL 3
REMARK VINA RESULT:      -7.0      1.706      2.203
REMARK  Name = 
REMARK  12 active torsions:
REMARK  status: ('A' for Active; 'I' for Inactive)
REMARK    1  A    between atoms: N_1  and  C_2
REMARK    2  A    between atoms: C_2  and  C_3
REMARK    3  A    between atoms: C_3  and  C_4
REMARK    4  A    between atoms: C_4  and  C_5
REMARK    5  A    between atoms: C_5  and  C_6
REMARK    6  A    between atoms: C_6  and  C_7
REMARK    7  A    between atoms: C_7  and  O_9
REMARK    8  A    between atoms: N_11  and  C_12
REMARK    9  A    between atoms: C_12  and  C_13
REMARK   10  A    between atoms: C_13  and  C_14
REMARK   11  A    between atoms: C_14  and  C_15
REMARK   12  A    between atoms: P_23  and  O_25
REMARK                            x       y       z     vdW  Elec       q    Type
REMARK                         _______ _______ _______ _____ _____    ______ ____
ROOT
ATOM      1  C   UNL     1       3.709   4.016  18.909  0.00  0.00    +0.000 C 
ATOM      2  C   UNL     1       3.677   5.531  19.211  0.00  0.00    +0.000 C 
ATOM      3  N   UNL     1       2.306   6.103  19.132  0.00  0.00    +0.000 NA
ATOM      4  C   UNL     1       1.571   5.856  20.385  0.00  0.00    +0.000 C 
ATOM      5  C   UNL     1       1.298   4.401  20.633  0.00  0.00    +0.000 C 
ATOM      6  P   UNL     1       2.389   3.247  19.832  0.00  0.00    +0.000 P 
ATOM      7  O   UNL     1       2.860   2.200  20.798  0.00  0.00    +0.000 OA
ENDROOT
BRANCH   1   8
ATOM      8  C   UNL     1       5.121   3.603  19.326  0.00  0.00    +0.000 C 
ATOM      9  O   UNL     1       6.027   4.406  19.533  0.00  0.00    +0.000 OA
BRANCH   8  10
ATOM     10  O   UNL     1       5.307   2.303  19.629  0.00  0.00    +0.000 OA
ATOM     11  H   UNL     1       5.341   2.080  20.588  0.00  0.00    +0.000 HD
ENDBRANCH   8  10
ENDBRANCH   1   8
BRANCH   6  12
ATOM     12  O   UNL     1       1.349   2.709  18.715  0.00  0.00    +0.000 OA
ATOM     13  H   UNL     1       0.408   2.781  18.985  0.00  0.00    +0.000 HD
ENDBRANCH   6  12
BRANCH   1  14
ATOM     14  C   UNL     1       3.601   3.749  17.359  0.00  0.00    +0.000 C 
BRANCH  14  15
ATOM     15  C   UNL     1       4.460   4.692  16.480  0.00  0.00    +0.000 C 
BRANCH  15  16
ATOM     16  C   UNL     1       5.619   3.961  15.786  0.00  0.00    +0.000 C 
BRANCH  16  17
ATOM     17  C   UNL     1       6.983   4.586  16.108  0.00  0.00    +0.000 C 
BRANCH  17  18
ATOM     18  N   UNL     1       7.514   5.369  14.990  0.00  0.00    +0.000 NA
ATOM     19  H   UNL     1       6.770   5.491  14.300  0.00  0.00    +0.000 HD
ATOM     20  H   UNL     1       8.241   4.824  14.525  0.00  0.00    +0.000 HD
ENDBRANCH  17  18
ENDBRANCH  16  17
ENDBRANCH  15  16
ENDBRANCH  14  15
ENDBRANCH   1  14
BRANCH   3  21
ATOM     21  C   UNL     1       2.363   7.577  18.970  0.00  0.00    +0.000 C 
BRANCH  21  22
ATOM     22  C   UNL     1       1.807   8.376  20.145  0.00  0.00    +0.000 C 
BRANCH  22  23
ATOM     23  C   UNL     1       0.905   9.524  19.698  0.00  0.00    +0.000 C 
BRANCH  23  24
ATOM     24  C   UNL     1       0.106  10.033  20.866  0.00  0.00    +0.000 A 
ATOM     25  C   UNL     1      -0.647  11.209  20.752  0.00  0.00    +0.000 A 
ATOM     26  C   UNL     1      -1.338  11.709  21.852  0.00  0.00    +0.000 A 
ATOM     27  C   UNL     1      -1.280  11.037  23.074  0.00  0.00    +0.000 A 
ATOM     28  C   UNL     1      -0.526   9.870  23.196  0.00  0.00    +0.000 A 
ATOM     29  C   UNL     1       0.166   9.374  22.098  0.00  0.00    +0.000 A 
ENDBRANCH  23  24
ENDBRANCH  22  23
ENDBRANCH  21  22
ENDBRANCH   3  21
TORSDOF 12
ENDMDL
MODEL 4
REMARK VINA RESULT:      -6.9      1.454      1.790
REMARK  Name = 
REMARK  12 active torsions:
REMARK  status: ('A' for Active; 'I' for Inactive)
REMARK    1  A    between atoms: N_1  and  C_2
REMARK    2  A    between atoms: C_2  and  C_3
REMARK    3  A    between atoms: C_3  and  C_4
REMARK    4  A    between atoms: C_4  and  C_5
REMARK    5  A    between atoms: C_5  and  C_6
REMARK    6  A    between atoms: C_6  and  C_7
REMARK    7  A    between atoms: C_7  and  O_9
REMARK    8  A    between atoms: N_11  and  C_12
REMARK    9  A    between atoms: C_12  and  C_13
REMARK   10  A    between atoms: C_13  and  C_14
REMARK   11  A    between atoms: C_14  and  C_15
REMARK   12  A    between atoms: P_23  and  O_25
REMARK                            x       y       z     vdW  Elec       q    Type
REMARK                         _______ _______ _______ _____ _____    ______ ____
ROOT
ATOM      1  C   UNL     1       3.835   4.482  18.713  0.00  0.00    +0.000 C 
ATOM      2  C   UNL     1       3.958   6.022  18.742  0.00  0.00    +0.000 C 
ATOM      3  N   UNL     1       2.641   6.705  18.633  0.00  0.00    +0.000 NA
ATOM      4  C   UNL     1       1.975   6.752  19.947  0.00  0.00    +0.000 C 
ATOM      5  C   UNL     1       1.592   5.396  20.464  0.00  0.00    +0.000 C 
ATOM      6  P   UNL     1       2.519   4.019  19.826  0.00  0.00    +0.000 P 
ATOM      7  O   UNL     1       2.961   3.112  20.937  0.00  0.00    +0.000 OA
ENDROOT
BRANCH   1   8
ATOM      8  C   UNL     1       5.230   4.009  19.123  0.00  0.00    +0.000 C 
ATOM      9  O   UNL     1       6.195   4.762  19.229  0.00  0.00    +0.000 OA
BRANCH   8  10
ATOM     10  O   UNL     1       5.341   2.731  19.535  0.00  0.00    +0.000 OA
ATOM     11  H   UNL     1       4.950   2.522  20.415  0.00  0.00    +0.000 HD
ENDBRANCH   8  10
ENDBRANCH   1   8
BRANCH   6  12
ATOM     12  O   UNL     1       1.361   3.402  18.879  0.00  0.00    +0.000 OA
ATOM     13  H   UNL     1       1.673   2.673  18.299  0.00  0.00    +0.000 HD
ENDBRANCH   6  12
BRANCH   1  14
ATOM     14  C   UNL     1       3.597   3.964  17.243  0.00  0.00    +0.000 C 
BRANCH  14  15
ATOM     15  C   UNL     1       4.891   3.691  16.438  0.00  0.00    +0.000 C 
BRANCH  15  16
ATOM     16  C   UNL     1       5.320   4.891  15.581  0.00  0.00    +0.000 C 
BRANCH  16  17
ATOM     17  C   UNL     1       6.802   5.245  15.766  0.00  0.00    +0.000 C 
BRANCH  17  18
ATOM     18  N   UNL     1       6.991   6.410  16.633  0.00  0.00    +0.000 NA
ATOM     19  H   UNL     1       7.993   6.583  16.729  0.00  0.00    +0.000 HD
ATOM     20  H   UNL     1       6.656   6.180  17.569  0.00  0.00    +0.000 HD
ENDBRANCH  17  18
ENDBRANCH  16  17
ENDBRANCH  15  16
ENDBRANCH  14  15
ENDBRANCH   1  14
BRANCH   3  21
ATOM     21  C   UNL     1       2.816   8.116  18.209  0.00  0.00    +0.000 C 
BRANCH  21  22
ATOM     22  C   UNL     1       1.532   8.826  17.788  0.00  0.00    +0.000 C 
BRANCH  22  23
ATOM     23  C   UNL     1       1.270  10.091  18.603  0.00  0.00    +0.000 C 
BRANCH  23  24
ATOM     24  C   UNL     1      -0.179  10.478  18.495  0.00  0.00    +0.000 A 
ATOM     25  C   UNL     1      -1.032   9.796  17.617  0.00  0.00    +0.000 A 
ATOM     26  C   UNL     1      -2.359  10.194  17.476  0.00  0.00    +0.000 A 
ATOM     27  C   UNL     1      -2.841  11.279  18.211  0.00  0.00    +0.000 A 
ATOM     28  C   UNL     1      -1.995  11.967  19.081  0.00  0.00    +0.000 A 
ATOM     29  C   UNL     1      -0.670  11.569  19.218  0.00  0.00    +0.000 A 
ENDBRANCH  23  24
ENDBRANCH  22  23
ENDBRANCH  21  22
ENDBRANCH   3  21
TORSDOF 12
ENDMDL
MODEL 5
REMARK VINA RESULT:      -6.9      1.380      1.897
REMARK  Name = 
REMARK  12 active torsions:
REMARK  status: ('A' for Active; 'I' for Inactive)
REMARK    1  A    between atoms: N_1  and  C_2
REMARK    2  A    between atoms: C_2  and  C_3
REMARK    3  A    between atoms: C_3  and  C_4
REMARK    4  A    between atoms: C_4  and  C_5
REMARK    5  A    between atoms: C_5  and  C_6
REMARK    6  A    between atoms: C_6  and  C_7
REMARK    7  A    between atoms: C_7  and  O_9
REMARK    8  A    between atoms: N_11  and  C_12
REMARK    9  A    between atoms: C_12  and  C_13
REMARK   10  A    between atoms: C_13  and  C_14
REMARK   11  A    between atoms: C_14  and  C_15
REMARK   12  A    between atoms: P_23  and  O_25
REMARK                            x       y       z     vdW  Elec       q    Type
REMARK                         _______ _______ _______ _____ _____    ______ ____
ROOT
ATOM      1  C   UNL     1       3.827   4.349  18.771  0.00  0.00    +0.000 C 
ATOM      2  C   UNL     1       3.935   5.887  18.859  0.00  0.00    +0.000 C 
ATOM      3  N   UNL     1       2.616   6.564  18.735  0.00  0.00    +0.000 NA
ATOM      4  C   UNL     1       1.911   6.558  20.029  0.00  0.00    +0.000 C 
ATOM      5  C   UNL     1       1.524   5.182  20.485  0.00  0.00    +0.000 C 
ATOM      6  P   UNL     1       2.481   3.836  19.826  0.00  0.00    +0.000 P 
ATOM      7  O   UNL     1       2.897   2.892  20.916  0.00  0.00    +0.000 OA
ENDROOT
BRANCH   1   8
ATOM      8  C   UNL     1       5.212   3.872  19.206  0.00  0.00    +0.000 C 
ATOM      9  O   UNL     1       6.157   4.631  19.406  0.00  0.00    +0.000 OA
BRANCH   8  10
ATOM     10  O   UNL     1       5.331   2.569  19.531  0.00  0.00    +0.000 OA
ATOM     11  H   UNL     1       6.250   2.220  19.603  0.00  0.00    +0.000 HD
ENDBRANCH   8  10
ENDBRANCH   1   8
BRANCH   6  12
ATOM     12  O   UNL     1       1.358   3.245  18.821  0.00  0.00    +0.000 OA
ATOM     13  H   UNL     1       1.446   2.282  18.654  0.00  0.00    +0.000 HD
ENDBRANCH   6  12
BRANCH   1  14
ATOM     14  C   UNL     1       3.638   3.883  17.277  0.00  0.00    +0.000 C 
BRANCH  14  15
ATOM     15  C   UNL     1       4.950   3.781  16.461  0.00  0.00    +0.000 C 
BRANCH  15  16
ATOM     16  C   UNL     1       5.291   5.084  15.722  0.00  0.00    +0.000 C 
BRANCH  16  17
ATOM     17  C   UNL     1       6.641   5.670  16.156  0.00  0.00    +0.000 C 
BRANCH  17  18
ATOM     18  N   UNL     1       7.567   4.640  16.629  0.00  0.00    +0.000 NA
ATOM     19  H   UNL     1       8.285   5.088  17.201  0.00  0.00    +0.000 HD
ATOM     20  H   UNL     1       8.057   4.245  15.825  0.00  0.00    +0.000 HD
ENDBRANCH  17  18
ENDBRANCH  16  17
ENDBRANCH  15  16
ENDBRANCH  14  15
ENDBRANCH   1  14
BRANCH   3  21
ATOM     21  C   UNL     1       2.793   7.992  18.368  0.00  0.00    +0.000 C 
BRANCH  21  22
ATOM     22  C   UNL     1       1.529   8.691  17.875  0.00  0.00    +0.000 C 
BRANCH  22  23
ATOM     23  C   UNL     1       1.494  10.170  18.254  0.00  0.00    +0.000 C 
BRANCH  23  24
ATOM     24  C   UNL     1       0.069  10.627  18.401  0.00  0.00    +0.000 A 
ATOM     25  C   UNL     1      -0.257  11.656  19.294  0.00  0.00    +0.000 A 
ATOM     26  C   UNL     1      -1.584  12.037  19.473  0.00  0.00    +0.000 A 
ATOM     27  C   UNL     1      -2.595  11.390  18.760  0.00  0.00    +0.000 A 
ATOM     28  C   UNL     1      -2.278  10.359  17.874  0.00  0.00    +0.000 A 
ATOM     29  C   UNL     1      -0.953   9.979  17.700  0.00  0.00    +0.000 A 
ENDBRANCH  23  24
ENDBRANCH  22  23
ENDBRANCH  21  22
ENDBRANCH   3  21
TORSDOF 12
ENDMDL
MODEL 6
REMARK VINA RESULT:      -6.9      1.867      2.390
REMARK  Name = 
REMARK  12 active torsions:
REMARK  status: ('A' for Active; 'I' for Inactive)
REMARK    1  A    between atoms: N_1  and  C_2
REMARK    2  A    between atoms: C_2  and  C_3
REMARK    3  A    between atoms: C_3  and  C_4
REMARK    4  A    between atoms: C_4  and  C_5
REMARK    5  A    between atoms: C_5  and  C_6
REMARK    6  A    between atoms: C_6  and  C_7
REMARK    7  A    between atoms: C_7  and  O_9
REMARK    8  A    between atoms: N_11  and  C_12
REMARK    9  A    between atoms: C_12  and  C_13
REMARK   10  A    between atoms: C_13  and  C_14
REMARK   11  A    between atoms: C_14  and  C_15
REMARK   12  A    between atoms: P_23  and  O_25
REMARK                            x       y       z     vdW  Elec       q    Type
REMARK                         _______ _______ _______ _____ _____    ______ ____
ROOT
ATOM      1  C   UNL     1       3.803   4.714  18.801  0.00  0.00    +0.000 C 
ATOM      2  C   UNL     1       3.530   5.916  19.732  0.00  0.00    +0.000 C 
ATOM      3  N   UNL     1       2.104   6.340  19.720  0.00  0.00    +0.000 NA
ATOM      4  C   UNL     1       1.306   5.488  20.618  0.00  0.00    +0.000 C 
ATOM      5  C   UNL     1       1.220   4.062  20.158  0.00  0.00    +0.000 C 
ATOM      6  P   UNL     1       2.529   3.498  19.095  0.00  0.00    +0.000 P 
ATOM      7  O   UNL     1       3.057   2.171  19.555  0.00  0.00    +0.000 OA
ENDROOT
BRANCH   1   8
ATOM      8  C   UNL     1       5.217   4.280  19.189  0.00  0.00    +0.000 C 
ATOM      9  O   UNL     1       6.063   5.053  19.632  0.00  0.00    +0.000 OA
BRANCH   8  10
ATOM     10  O   UNL     1       5.468   2.956  19.185  0.00  0.00    +0.000 OA
ATOM     11  H   UNL     1       4.791   2.384  19.615  0.00  0.00    +0.000 HD
ENDBRANCH   8  10
ENDBRANCH   1   8
BRANCH   6  12
ATOM     12  O   UNL     1       1.677   3.438  17.720  0.00  0.00    +0.000 OA
ATOM     13  H   UNL     1       1.233   2.576  17.568  0.00  0.00    +0.000 HD
ENDBRANCH   6  12
BRANCH   1  14
ATOM     14  C   UNL     1       3.869   5.172  17.295  0.00  0.00    +0.000 C 
BRANCH  14  15
ATOM     15  C   UNL     1       4.796   4.315  16.399  0.00  0.00    +0.000 C 
BRANCH  15  16
ATOM     16  C   UNL     1       5.817   5.161  15.623  0.00  0.00    +0.000 C 
BRANCH  16  17
ATOM     17  C   UNL     1       7.215   4.529  15.611  0.00  0.00    +0.000 C 
BRANCH  17  18
ATOM     18  N   UNL     1       7.706   4.241  16.960  0.00  0.00    +0.000 NA
ATOM     19  H   UNL     1       8.715   4.089  16.911  0.00  0.00    +0.000 HD
ATOM     20  H   UNL     1       7.305   3.357  17.273  0.00  0.00    +0.000 HD
ENDBRANCH  17  18
ENDBRANCH  16  17
ENDBRANCH  15  16
ENDBRANCH  14  15
ENDBRANCH   1  14
BRANCH   3  21
ATOM     21  C   UNL     1       1.966   7.726  20.235  0.00  0.00    +0.000 C 
BRANCH  21  22
ATOM     22  C   UNL     1       0.730   7.973  21.095  0.00  0.00    +0.000 C 
BRANCH  22  23
ATOM     23  C   UNL     1       0.960   9.051  22.152  0.00  0.00    +0.000 C 
BRANCH  23  24
ATOM     24  C   UNL     1      -0.088  10.123  22.026  0.00  0.00    +0.000 A 
ATOM     25  C   UNL     1      -0.292  10.775  20.803  0.00  0.00    +0.000 A 
ATOM     26  C   UNL     1      -1.221  11.806  20.703  0.00  0.00    +0.000 A 
ATOM     27  C   UNL     1      -1.952  12.194  21.828  0.00  0.00    +0.000 A 
ATOM     28  C   UNL     1      -1.749  11.553  23.050  0.00  0.00    +0.000 A 
ATOM     29  C   UNL     1      -0.818  10.526  23.147  0.00  0.00    +0.000 A 
ENDBRANCH  23  24
ENDBRANCH  22  23
ENDBRANCH  21  22
ENDBRANCH   3  21
TORSDOF 12
ENDMDL
MODEL 7
REMARK VINA RESULT:      -6.9      1.070      1.340
REMARK  Name = 
REMARK  12 active torsions:
REMARK  status: ('A' for Active; 'I' for Inactive)
REMARK    1  A    between atoms: N_1  and  C_2
REMARK    2  A    between atoms: C_2  and  C_3
REMARK    3  A    between atoms: C_3  and  C_4
REMARK    4  A    between atoms: C_4  and  C_5
REMARK    5  A    between atoms: C_5  and  C_6
REMARK    6  A    between atoms: C_6  and  C_7
REMARK    7  A    between atoms: C_7  and  O_9
REMARK    8  A    between atoms: N_11  and  C_12
REMARK    9  A    between atoms: C_12  and  C_13
REMARK   10  A    between atoms: C_13  and  C_14
REMARK   11  A    between atoms: C_14  and  C_15
REMARK   12  A    between atoms: P_23  and  O_25
REMARK                            x       y       z     vdW  Elec       q    Type
REMARK                         _______ _______ _______ _____ _____    ______ ____
ROOT
ATOM      1  C   UNL     1       5.406   4.574  17.778  0.00  0.00    +0.000 C 
ATOM      2  C   UNL     1       5.017   6.069  17.798  0.00  0.00    +0.000 C 
ATOM      3  N   UNL     1       3.545   6.280  17.821  0.00  0.00    +0.000 NA
ATOM      4  C   UNL     1       3.026   6.146  19.193  0.00  0.00    +0.000 C 
ATOM      5  C   UNL     1       3.160   4.755  19.743  0.00  0.00    +0.000 C 
ATOM      6  P   UNL     1       4.425   3.739  19.014  0.00  0.00    +0.000 P 
ATOM      7  O   UNL     1       5.242   3.061  20.074  0.00  0.00    +0.000 OA
ENDROOT
BRANCH   1   8
ATOM      8  C   UNL     1       6.910   4.596  18.048  0.00  0.00    +0.000 C 
ATOM      9  O   UNL     1       7.757   4.410  17.178  0.00  0.00    +0.000 OA
BRANCH   8  10
ATOM     10  O   UNL     1       7.300   5.000  19.274  0.00  0.00    +0.000 OA
ATOM     11  H   UNL     1       8.167   4.653  19.591  0.00  0.00    +0.000 HD
ENDBRANCH   8  10
ENDBRANCH   1   8
BRANCH   6  12
ATOM     12  O   UNL     1       3.451   2.749  18.183  0.00  0.00    +0.000 OA
ATOM     13  H   UNL     1       2.563   2.640  18.586  0.00  0.00    +0.000 HD
ENDBRANCH   6  12
BRANCH   1  14
ATOM     14  C   UNL     1       5.215   3.962  16.338  0.00  0.00    +0.000 C 
BRANCH  14  15
ATOM     15  C   UNL     1       5.324   4.987  15.182  0.00  0.00    +0.000 C 
BRANCH  15  16
ATOM     16  C   UNL     1       5.730   4.337  13.851  0.00  0.00    +0.000 C 
BRANCH  16  17
ATOM     17  C   UNL     1       7.190   4.625  13.478  0.00  0.00    +0.000 C 
BRANCH  17  18
ATOM     18  N   UNL     1       7.844   5.514  14.440  0.00  0.00    +0.000 NA
ATOM     19  H   UNL     1       7.122   5.979  14.993  0.00  0.00    +0.000 HD
ATOM     20  H   UNL     1       8.325   6.255  13.928  0.00  0.00    +0.000 HD
ENDBRANCH  17  18
ENDBRANCH  16  17
ENDBRANCH  15  16
ENDBRANCH  14  15
ENDBRANCH   1  14
BRANCH   3  21
ATOM     21  C   UNL     1       3.206   7.657  17.384  0.00  0.00    +0.000 C 
BRANCH  21  22
ATOM     22  C   UNL     1       2.013   8.285  18.099  0.00  0.00    +0.000 C 
BRANCH  22  23
ATOM     23  C   UNL     1       2.000   9.808  17.989  0.00  0.00    +0.000 C 
BRANCH  23  24
ATOM     24  C   UNL     1       0.674  10.343  18.452  0.00  0.00    +0.000 A 
ATOM     25  C   UNL     1      -0.521   9.813  17.947  0.00  0.00    +0.000 A 
ATOM     26  C   UNL     1      -1.746  10.349  18.333  0.00  0.00    +0.000 A 
ATOM     27  C   UNL     1      -1.785  11.422  19.225  0.00  0.00    +0.000 A 
ATOM     28  C   UNL     1      -0.599  11.960  19.725  0.00  0.00    +0.000 A 
ATOM     29  C   UNL     1       0.623  11.425  19.337  0.00  0.00    +0.000 A 
ENDBRANCH  23  24
ENDBRANCH  22  23
ENDBRANCH  21  22
ENDBRANCH   3  21
TORSDOF 12
ENDMDL
MODEL 8
REMARK VINA RESULT:      -6.9      1.249      1.692
REMARK  Name = 
REMARK  12 active torsions:
REMARK  status: ('A' for Active; 'I' for Inactive)
REMARK    1  A    between atoms: N_1  and  C_2
REMARK    2  A    between atoms: C_2  and  C_3
REMARK    3  A    between atoms: C_3  and  C_4
REMARK    4  A    between atoms: C_4  and  C_5
REMARK    5  A    between atoms: C_5  and  C_6
REMARK    6  A    between atoms: C_6  and  C_7
REMARK    7  A    between atoms: C_7  and  O_9
REMARK    8  A    between atoms: N_11  and  C_12
REMARK    9  A    between atoms: C_12  and  C_13
REMARK   10  A    between atoms: C_13  and  C_14
REMARK   11  A    between atoms: C_14  and  C_15
REMARK   12  A    between atoms: P_23  and  O_25
REMARK                            x       y       z     vdW  Elec       q    Type
REMARK                         _______ _______ _______ _____ _____    ______ ____
ROOT
ATOM      1  C   UNL     1       3.979   4.912  18.774  0.00  0.00    +0.000 C 
ATOM      2  C   UNL     1       3.635   6.213  19.533  0.00  0.00    +0.000 C 
ATOM      3  N   UNL     1       2.171   6.466  19.606  0.00  0.00    +0.000 NA
ATOM      4  C   UNL     1       1.568   5.689  20.703  0.00  0.00    +0.000 C 
ATOM      5  C   UNL     1       1.627   4.206  20.478  0.00  0.00    +0.000 C 
ATOM      6  P   UNL     1       2.901   3.625  19.382  0.00  0.00    +0.000 P 
ATOM      7  O   UNL     1       3.633   2.461  19.982  0.00  0.00    +0.000 OA
ENDROOT
BRANCH   1   8
ATOM      8  C   UNL     1       5.464   4.711  19.072  0.00  0.00    +0.000 C 
ATOM      9  O   UNL     1       6.135   5.501  19.733  0.00  0.00    +0.000 OA
BRANCH   8  10
ATOM     10  O   UNL     1       5.999   3.525  18.719  0.00  0.00    +0.000 OA
ATOM     11  H   UNL     1       6.330   2.960  19.455  0.00  0.00    +0.000 HD
ENDBRANCH   8  10
ENDBRANCH   1   8
BRANCH   6  12
ATOM     12  O   UNL     1       1.949   3.245  18.129  0.00  0.00    +0.000 OA
ATOM     13  H   UNL     1       1.650   2.310  18.132  0.00  0.00    +0.000 HD
ENDBRANCH   6  12
BRANCH   1  14
ATOM     14  C   UNL     1       3.856   5.121  17.216  0.00  0.00    +0.000 C 
BRANCH  14  15
ATOM     15  C   UNL     1       4.971   5.996  16.592  0.00  0.00    +0.000 C 
BRANCH  15  16
ATOM     16  C   UNL     1       5.419   5.489  15.213  0.00  0.00    +0.000 C 
BRANCH  16  17
ATOM     17  C   UNL     1       6.556   4.462  15.307  0.00  0.00    +0.000 C 
BRANCH  17  18
ATOM     18  N   UNL     1       7.550   4.824  16.318  0.00  0.00    +0.000 NA
ATOM     19  H   UNL     1       8.408   4.302  16.130  0.00  0.00    +0.000 HD
ATOM     20  H   UNL     1       7.222   4.504  17.230  0.00  0.00    +0.000 HD
ENDBRANCH  17  18
ENDBRANCH  16  17
ENDBRANCH  15  16
ENDBRANCH  14  15
ENDBRANCH   1  14
BRANCH   3  21
ATOM     21  C   UNL     1       1.901   7.893  19.914  0.00  0.00    +0.000 C 
BRANCH  21  22
ATOM     22  C   UNL     1       1.484   8.742  18.717  0.00  0.00    +0.000 C 
BRANCH  22  23
ATOM     23  C   UNL     1       1.084  10.160  19.117  0.00  0.00    +0.000 C 
BRANCH  23  24
ATOM     24  C   UNL     1      -0.295  10.469  18.601  0.00  0.00    +0.000 A 
ATOM     25  C   UNL     1      -1.067  11.473  19.198  0.00  0.00    +0.000 A 
ATOM     26  C   UNL     1      -2.365  11.717  18.757  0.00  0.00    +0.000 A 
ATOM     27  C   UNL     1      -2.899  10.955  17.717  0.00  0.00    +0.000 A 
ATOM     28  C   UNL     1      -2.138   9.948  17.123  0.00  0.00    +0.000 A 
ATOM     29  C   UNL     1      -0.844   9.705  17.567  0.00  0.00    +0.000 A 
ENDBRANCH  23  24
ENDBRANCH  22  23
ENDBRANCH  21  22
ENDBRANCH   3  21
TORSDOF 12
ENDMDL
MODEL 9
REMARK VINA RESULT:      -6.8      0.726      1.327
REMARK  Name = 
REMARK  12 active torsions:
REMARK  status: ('A' for Active; 'I' for Inactive)
REMARK    1  A    between atoms: N_1  and  C_2
REMARK    2  A    between atoms: C_2  and  C_3
REMARK    3  A    between atoms: C_3  and  C_4
REMARK    4  A    between atoms: C_4  and  C_5
REMARK    5  A    between atoms: C_5  and  C_6
REMARK    6  A    between atoms: C_6  and  C_7
REMARK    7  A    between atoms: C_7  and  O_9
REMARK    8  A    between atoms: N_11  and  C_12
REMARK    9  A    between atoms: C_12  and  C_13
REMARK   10  A    between atoms: C_13  and  C_14
REMARK   11  A    between atoms: C_14  and  C_15
REMARK   12  A    between atoms: P_23  and  O_25
REMARK                            x       y       z     vdW  Elec       q    Type
REMARK                         _______ _______ _______ _____ _____    ______ ____
ROOT
ATOM      1  C   UNL     1       4.936   4.468  18.581  0.00  0.00    +0.000 C 
ATOM      2  C   UNL     1       4.337   5.773  19.149  0.00  0.00    +0.000 C 
ATOM      3  N   UNL     1       2.852   5.733  19.239  0.00  0.00    +0.000 NA
ATOM      4  C   UNL     1       2.429   5.029  20.462  0.00  0.00    +0.000 C 
ATOM      5  C   UNL     1       2.791   3.572  20.460  0.00  0.00    +0.000 C 
ATOM      6  P   UNL     1       4.151   3.099  19.416  0.00  0.00    +0.000 P 
ATOM      7  O   UNL     1       5.110   2.214  20.156  0.00  0.00    +0.000 OA
ENDROOT
BRANCH   1   8
ATOM      8  C   UNL     1       6.433   4.620  18.850  0.00  0.00    +0.000 C 
ATOM      9  O   UNL     1       7.303   4.223  18.078  0.00  0.00    +0.000 OA
BRANCH   8  10
ATOM     10  O   UNL     1       6.785   5.371  19.912  0.00  0.00    +0.000 OA
ATOM     11  H   UNL     1       6.194   5.315  20.699  0.00  0.00    +0.000 HD
ENDBRANCH   8  10
ENDBRANCH   1   8
BRANCH   6  12
ATOM     12  O   UNL     1       3.289   2.344  18.272  0.00  0.00    +0.000 OA
ATOM     13  H   UNL     1       2.320   2.467  18.364  0.00  0.00    +0.000 HD
ENDBRANCH   6  12
BRANCH   1  14
ATOM     14  C   UNL     1       4.763   4.404  17.015  0.00  0.00    +0.000 C 
BRANCH  14  15
ATOM     15  C   UNL     1       5.054   5.734  16.279  0.00  0.00    +0.000 C 
BRANCH  15  16
ATOM     16  C   UNL     1       5.518   5.519  14.830  0.00  0.00    +0.000 C 
BRANCH  16  17
ATOM     17  C   UNL     1       6.602   4.439  14.715  0.00  0.00    +0.000 C 
BRANCH  17  18
ATOM     18  N   UNL     1       6.340   3.504  13.620  0.00  0.00    +0.000 NA
ATOM     19  H   UNL     1       5.583   2.879  13.902  0.00  0.00    +0.000 HD
ATOM     20  H   UNL     1       7.160   2.909  13.493  0.00  0.00    +0.000 HD
ENDBRANCH  17  18
ENDBRANCH  16  17
ENDBRANCH  15  16
ENDBRANCH  14  15
ENDBRANCH   1  14
BRANCH   3  21
ATOM     21  C   UNL     1       2.296   7.105  19.339  0.00  0.00    +0.000 C 
BRANCH  21  22
ATOM     22  C   UNL     1       2.658   8.033  18.182  0.00  0.00    +0.000 C 
BRANCH  22  23
ATOM     23  C   UNL     1       1.438   8.740  17.596  0.00  0.00    +0.000 C 
BRANCH  23  24
ATOM     24  C   UNL     1       1.167  10.009  18.357  0.00  0.00    +0.000 A 
ATOM     25  C   UNL     1       2.028  11.107  18.233  0.00  0.00    +0.000 A 
ATOM     26  C   UNL     1       1.808  12.260  18.982  0.00  0.00    +0.000 A 
ATOM     27  C   UNL     1       0.726  12.321  19.862  0.00  0.00    +0.000 A 
ATOM     28  C   UNL     1      -0.130  11.228  19.996  0.00  0.00    +0.000 A 
ATOM     29  C   UNL     1       0.093  10.078  19.249  0.00  0.00    +0.000 A 
ENDBRANCH  23  24
ENDBRANCH  22  23
ENDBRANCH  21  22
ENDBRANCH   3  21
TORSDOF 12
ENDMDL
