MODEL 1
REMARK VINA RESULT:      -8.1      0.000      0.000
REMARK  Name = 
REMARK  4 active torsions:
REMARK  status: ('A' for Active; 'I' for Inactive)
REMARK    1  A    between atoms: N_5  and  C_6
REMARK    2  A    between atoms: C_12  and  N_13
REMARK    3  A    between atoms: N_21  and  C_22
REMARK    4  A    between atoms: C_22  and  C_23
REMARK                            x       y       z     vdW  Elec       q    Type
REMARK                         _______ _______ _______ _____ _____    ______ ____
ROOT
ATOM      1  O   UNL     1       3.647   7.575  17.686  0.00  0.00    +0.000 OA
ATOM      2  C   UNL     1       2.788   7.906  18.497  0.00  0.00    +0.000 C 
ATOM      3  C   UNL     1       1.809   9.055  18.131  0.00  0.00    +0.000 C 
ATOM      4  O   UNL     1       1.928   9.616  17.046  0.00  0.00    +0.000 OA
ATOM      5  N   UNL     1       0.819   9.344  19.075  0.00  0.00    +0.000 N 
ATOM      6  C   UNL     1       1.076   9.053  20.476  0.00  0.00    +0.000 C 
ATOM      7  C   UNL     1       1.537   7.604  20.634  0.00  0.00    +0.000 C 
ATOM      8  N   UNL     1       2.621   7.256  19.728  0.00  0.00    +0.000 N 
ENDROOT
BRANCH   5   9
ATOM      9  C   UNL     1      -0.218  10.249  18.716  0.00  0.00    +0.000 A 
ATOM     10  C   UNL     1      -1.409   9.716  18.198  0.00  0.00    +0.000 A 
ATOM     11  C   UNL     1      -2.499  10.544  17.984  0.00  0.00    +0.000 A 
ATOM     12  F   UNL     1      -3.640  10.027  17.506  0.00  0.00    +0.000 F 
ATOM     13  C   UNL     1      -2.433  11.896  18.273  0.00  0.00    +0.000 A 
ATOM     14  C   UNL     1      -1.241  12.432  18.768  0.00  0.00    +0.000 A 
ATOM     15  C   UNL     1      -0.094  11.645  18.991  0.00  0.00    +0.000 A 
BRANCH  15  16
ATOM     16  N   UNL     1       1.089  12.281  19.349  0.00  0.00    +0.000 N 
ATOM     17  C   UNL     1       1.506  12.459  20.751  0.00  0.00    +0.000 C 
ATOM     18  C   UNL     1       2.121  13.863  20.916  0.00  0.00    +0.000 C 
ATOM     19  O   UNL     1       3.226  14.064  20.017  0.00  0.00    +0.000 OA
ATOM     20  C   UNL     1       2.782  13.938  18.663  0.00  0.00    +0.000 C 
ATOM     21  C   UNL     1       2.155  12.567  18.389  0.00  0.00    +0.000 C 
ENDBRANCH  15  16
ENDBRANCH   5   9
BRANCH   8  22
ATOM     22  C   UNL     1       3.243   5.945  19.893  0.00  0.00    +0.000 C 
BRANCH  22  23
ATOM     23  C   UNL     1       2.386   4.795  19.418  0.00  0.00    +0.000 A 
ATOM     24  C   UNL     1       1.329   4.360  20.243  0.00  0.00    +0.000 A 
ATOM     25  C   UNL     1       0.600   3.214  19.926  0.00  0.00    +0.000 A 
ATOM     26  C   UNL     1       0.921   2.494  18.783  0.00  0.00    +0.000 A 
ATOM     27  F   UNL     1       0.246   1.373  18.497  0.00  0.00    +0.000 F 
ATOM     28  C   UNL     1       1.937   2.913  17.936  0.00  0.00    +0.000 A 
ATOM     29  C   UNL     1       2.665   4.064  18.249  0.00  0.00    +0.000 A 
ATOM     30 CL   UNL     1       3.912   4.530  17.147  0.00  0.00    +0.000 Cl
ENDBRANCH  22  23
ENDBRANCH   8  22
TORSDOF 4
ENDMDL
MODEL 2
REMARK VINA RESULT:      -8.0      2.851      7.542
REMARK  Name = 
REMARK  4 active torsions:
REMARK  status: ('A' for Active; 'I' for Inactive)
REMARK    1  A    between atoms: N_5  and  C_6
REMARK    2  A    between atoms: C_12  and  N_13
REMARK    3  A    between atoms: N_21  and  C_22
REMARK    4  A    between atoms: C_22  and  C_23
REMARK                            x       y       z     vdW  Elec       q    Type
REMARK                         _______ _______ _______ _____ _____    ______ ____
ROOT
ATOM      1  O   UNL     1       1.285   8.790  21.340  0.00  0.00    +0.000 OA
ATOM      2  C   UNL     1       1.638   8.388  20.237  0.00  0.00    +0.000 C 
ATOM      3  C   UNL     1       1.984   6.884  20.058  0.00  0.00    +0.000 C 
ATOM      4  O   UNL     1       1.913   6.137  21.029  0.00  0.00    +0.000 OA
ATOM      5  N   UNL     1       2.324   6.481  18.763  0.00  0.00    +0.000 N 
ATOM      6  C   UNL     1       2.904   7.453  17.852  0.00  0.00    +0.000 C 
ATOM      7  C   UNL     1       2.028   8.704  17.793  0.00  0.00    +0.000 C 
ATOM      8  N   UNL     1       1.697   9.222  19.112  0.00  0.00    +0.000 N 
ENDROOT
BRANCH   5   9
ATOM      9  C   UNL     1       2.462   5.090  18.500  0.00  0.00    +0.000 A 
ATOM     10  C   UNL     1       1.331   4.273  18.655  0.00  0.00    +0.000 A 
ATOM     11  C   UNL     1       1.379   2.945  18.260  0.00  0.00    +0.000 A 
ATOM     12  F   UNL     1       0.291   2.174  18.394  0.00  0.00    +0.000 F 
ATOM     13  C   UNL     1       2.531   2.407  17.712  0.00  0.00    +0.000 A 
ATOM     14  C   UNL     1       3.665   3.213  17.578  0.00  0.00    +0.000 A 
ATOM     15  C   UNL     1       3.683   4.564  17.976  0.00  0.00    +0.000 A 
BRANCH  15  16
ATOM     16  N   UNL     1       4.890   5.252  17.939  0.00  0.00    +0.000 N 
ATOM     17  C   UNL     1       5.355   5.983  16.746  0.00  0.00    +0.000 C 
ATOM     18  C   UNL     1       6.870   5.755  16.579  0.00  0.00    +0.000 C 
ATOM     19  O   UNL     1       7.598   6.162  17.752  0.00  0.00    +0.000 OA
ATOM     20  C   UNL     1       7.164   5.399  18.883  0.00  0.00    +0.000 C 
ATOM     21  C   UNL     1       5.662   5.561  19.143  0.00  0.00    +0.000 C 
ENDBRANCH  15  16
ENDBRANCH   5   9
BRANCH   8  22
ATOM     22  C   UNL     1       0.991  10.499  19.177  0.00  0.00    +0.000 C 
BRANCH  22  23
ATOM     23  C   UNL     1      -0.443  10.432  18.704  0.00  0.00    +0.000 A 
ATOM     24  C   UNL     1      -0.729   9.709  17.528  0.00  0.00    +0.000 A 
ATOM     25  C   UNL     1      -2.005   9.735  16.966  0.00  0.00    +0.000 A 
ATOM     26  C   UNL     1      -3.004  10.482  17.573  0.00  0.00    +0.000 A 
ATOM     27  F   UNL     1      -4.220  10.539  17.014  0.00  0.00    +0.000 F 
ATOM     28  C   UNL     1      -2.761  11.181  18.747  0.00  0.00    +0.000 A 
ATOM     29  C   UNL     1      -1.485  11.152  19.315  0.00  0.00    +0.000 A 
ATOM     30 CL   UNL     1      -1.255  12.041  20.780  0.00  0.00    +0.000 Cl
ENDBRANCH  22  23
ENDBRANCH   8  22
TORSDOF 4
ENDMDL
MODEL 3
REMARK VINA RESULT:      -7.9      3.250      8.058
REMARK  Name = 
REMARK  4 active torsions:
REMARK  status: ('A' for Active; 'I' for Inactive)
REMARK    1  A    between atoms: N_5  and  C_6
REMARK    2  A    between atoms: C_12  and  N_13
REMARK    3  A    between atoms: N_21  and  C_22
REMARK    4  A    between atoms: C_22  and  C_23
REMARK                            x       y       z     vdW  Elec       q    Type
REMARK                         _______ _______ _______ _____ _____    ______ ____
ROOT
ATOM      1  O   UNL     1       1.243   8.555  21.430  0.00  0.00    +0.000 OA
ATOM      2  C   UNL     1       1.520   8.170  20.299  0.00  0.00    +0.000 C 
ATOM      3  C   UNL     1       2.043   6.720  20.103  0.00  0.00    +0.000 C 
ATOM      4  O   UNL     1       2.181   5.999  21.086  0.00  0.00    +0.000 OA
ATOM      5  N   UNL     1       2.286   6.327  18.784  0.00  0.00    +0.000 N 
ATOM      6  C   UNL     1       2.626   7.340  17.798  0.00  0.00    +0.000 C 
ATOM      7  C   UNL     1       1.589   8.463  17.823  0.00  0.00    +0.000 C 
ATOM      8  N   UNL     1       1.341   8.972  19.163  0.00  0.00    +0.000 N 
ENDROOT
BRANCH   5   9
ATOM      9  C   UNL     1       2.579   4.959  18.526  0.00  0.00    +0.000 A 
ATOM     10  C   UNL     1       1.529   4.031  18.620  0.00  0.00    +0.000 A 
ATOM     11  C   UNL     1       1.733   2.718  18.225  0.00  0.00    +0.000 A 
ATOM     12  F   UNL     1       0.723   1.839  18.300  0.00  0.00    +0.000 F 
ATOM     13  C   UNL     1       2.961   2.303  17.739  0.00  0.00    +0.000 A 
ATOM     14  C   UNL     1       4.013   3.221  17.666  0.00  0.00    +0.000 A 
ATOM     15  C   UNL     1       3.872   4.564  18.067  0.00  0.00    +0.000 A 
BRANCH  15  16
ATOM     16  N   UNL     1       5.004   5.371  18.096  0.00  0.00    +0.000 N 
ATOM     17  C   UNL     1       5.403   6.224  16.961  0.00  0.00    +0.000 C 
ATOM     18  C   UNL     1       6.935   6.162  16.805  0.00  0.00    +0.000 C 
ATOM     19  O   UNL     1       7.606   6.559  18.014  0.00  0.00    +0.000 OA
ATOM     20  C   UNL     1       7.242   5.682  19.084  0.00  0.00    +0.000 C 
ATOM     21  C   UNL     1       5.729   5.674  19.329  0.00  0.00    +0.000 C 
ENDBRANCH  15  16
ENDBRANCH   5   9
BRANCH   8  22
ATOM     22  C   UNL     1       0.483  10.146  19.290  0.00  0.00    +0.000 C 
BRANCH  22  23
ATOM     23  C   UNL     1       1.236  11.456  19.320  0.00  0.00    +0.000 A 
ATOM     24  C   UNL     1       2.107  11.754  18.254  0.00  0.00    +0.000 A 
ATOM     25  C   UNL     1       2.936  12.875  18.300  0.00  0.00    +0.000 A 
ATOM     26  C   UNL     1       2.901  13.706  19.411  0.00  0.00    +0.000 A 
ATOM     27  F   UNL     1       3.723  14.762  19.473  0.00  0.00    +0.000 F 
ATOM     28  C   UNL     1       2.033  13.455  20.464  0.00  0.00    +0.000 A 
ATOM     29  C   UNL     1       1.198  12.336  20.417  0.00  0.00    +0.000 A 
ATOM     30 CL   UNL     1       0.140  12.086  21.761  0.00  0.00    +0.000 Cl
ENDBRANCH  22  23
ENDBRANCH   8  22
TORSDOF 4
ENDMDL
MODEL 4
REMARK VINA RESULT:      -7.9      2.548      3.937
REMARK  Name = 
REMARK  4 active torsions:
REMARK  status: ('A' for Active; 'I' for Inactive)
REMARK    1  A    between atoms: N_5  and  C_6
REMARK    2  A    between atoms: C_12  and  N_13
REMARK    3  A    between atoms: N_21  and  C_22
REMARK    4  A    between atoms: C_22  and  C_23
REMARK                            x       y       z     vdW  Elec       q    Type
REMARK                         _______ _______ _______ _____ _____    ______ ____
ROOT
ATOM      1  O   UNL     1       0.917   8.017  21.856  0.00  0.00    +0.000 OA
ATOM      2  C   UNL     1       1.186   8.563  20.791  0.00  0.00    +0.000 C 
ATOM      3  C   UNL     1       0.755  10.039  20.570  0.00  0.00    +0.000 C 
ATOM      4  O   UNL     1       0.142  10.620  21.461  0.00  0.00    +0.000 OA
ATOM      5  N   UNL     1       1.142  10.618  19.358  0.00  0.00    +0.000 N 
ATOM      6  C   UNL     1       1.347   9.761  18.202  0.00  0.00    +0.000 C 
ATOM      7  C   UNL     1       2.298   8.619  18.559  0.00  0.00    +0.000 C 
ATOM      8  N   UNL     1       1.910   7.922  19.776  0.00  0.00    +0.000 N 
ENDROOT
BRANCH   5   9
ATOM      9  C   UNL     1       0.946  12.016  19.180  0.00  0.00    +0.000 A 
ATOM     10  C   UNL     1       2.032  12.870  19.428  0.00  0.00    +0.000 A 
ATOM     11  C   UNL     1       1.934  14.218  19.118  0.00  0.00    +0.000 A 
ATOM     12  F   UNL     1       2.979  15.027  19.340  0.00  0.00    +0.000 F 
ATOM     13  C   UNL     1       0.776  14.738  18.565  0.00  0.00    +0.000 A 
ATOM     14  C   UNL     1      -0.313  13.893  18.339  0.00  0.00    +0.000 A 
ATOM     15  C   UNL     1      -0.280  12.518  18.648  0.00  0.00    +0.000 A 
BRANCH  15  16
ATOM     16  N   UNL     1      -1.452  11.780  18.524  0.00  0.00    +0.000 N 
ATOM     17  C   UNL     1      -1.613  10.702  17.531  0.00  0.00    +0.000 C 
ATOM     18  C   UNL     1      -3.032  10.780  16.935  0.00  0.00    +0.000 C 
ATOM     19  O   UNL     1      -4.040  10.698  17.958  0.00  0.00    +0.000 OA
ATOM     20  C   UNL     1      -3.893  11.787  18.876  0.00  0.00    +0.000 C 
ATOM     21  C   UNL     1      -2.509  11.798  19.534  0.00  0.00    +0.000 C 
ENDBRANCH  15  16
ENDBRANCH   5   9
BRANCH   8  22
ATOM     22  C   UNL     1       2.658   6.719  20.132  0.00  0.00    +0.000 C 
BRANCH  22  23
ATOM     23  C   UNL     1       2.048   5.441  19.606  0.00  0.00    +0.000 A 
ATOM     24  C   UNL     1       1.116   4.759  20.414  0.00  0.00    +0.000 A 
ATOM     25  C   UNL     1       0.634   3.503  20.046  0.00  0.00    +0.000 A 
ATOM     26  C   UNL     1       1.079   2.919  18.868  0.00  0.00    +0.000 A 
ATOM     27  F   UNL     1       0.645   1.697  18.532  0.00  0.00    +0.000 F 
ATOM     28  C   UNL     1       1.974   3.577  18.037  0.00  0.00    +0.000 A 
ATOM     29  C   UNL     1       2.454   4.837  18.402  0.00  0.00    +0.000 A 
ATOM     30 CL   UNL     1       3.563   5.602  17.318  0.00  0.00    +0.000 Cl
ENDBRANCH  22  23
ENDBRANCH   8  22
TORSDOF 4
ENDMDL
MODEL 5
REMARK VINA RESULT:      -7.7      1.054      1.172
REMARK  Name = 
REMARK  4 active torsions:
REMARK  status: ('A' for Active; 'I' for Inactive)
REMARK    1  A    between atoms: N_5  and  C_6
REMARK    2  A    between atoms: C_12  and  N_13
REMARK    3  A    between atoms: N_21  and  C_22
REMARK    4  A    between atoms: C_22  and  C_23
REMARK                            x       y       z     vdW  Elec       q    Type
REMARK                         _______ _______ _______ _____ _____    ______ ____
ROOT
ATOM      1  O   UNL     1       3.218   8.136  17.986  0.00  0.00    +0.000 OA
ATOM      2  C   UNL     1       2.304   8.334  18.780  0.00  0.00    +0.000 C 
ATOM      3  C   UNL     1       1.223   9.396  18.437  0.00  0.00    +0.000 C 
ATOM      4  O   UNL     1       1.319  10.025  17.387  0.00  0.00    +0.000 OA
ATOM      5  N   UNL     1       0.180   9.531  19.357  0.00  0.00    +0.000 N 
ATOM      6  C   UNL     1       0.419   9.191  20.749  0.00  0.00    +0.000 C 
ATOM      7  C   UNL     1       1.023   7.790  20.850  0.00  0.00    +0.000 C 
ATOM      8  N   UNL     1       2.166   7.604  19.969  0.00  0.00    +0.000 N 
ENDROOT
BRANCH   5   9
ATOM      9  C   UNL     1      -0.933  10.344  19.005  0.00  0.00    +0.000 A 
ATOM     10  C   UNL     1      -1.859   9.832  18.082  0.00  0.00    +0.000 A 
ATOM     11  C   UNL     1      -3.036  10.521  17.832  0.00  0.00    +0.000 A 
ATOM     12  F   UNL     1      -3.925  10.020  16.963  0.00  0.00    +0.000 F 
ATOM     13  C   UNL     1      -3.315  11.713  18.480  0.00  0.00    +0.000 A 
ATOM     14  C   UNL     1      -2.384  12.235  19.381  0.00  0.00    +0.000 A 
ATOM     15  C   UNL     1      -1.164  11.590  19.665  0.00  0.00    +0.000 A 
BRANCH  15  16
ATOM     16  N   UNL     1      -0.235  12.247  20.465  0.00  0.00    +0.000 N 
ATOM     17  C   UNL     1      -0.417  12.423  21.917  0.00  0.00    +0.000 C 
ATOM     18  C   UNL     1       0.052  13.838  22.311  0.00  0.00    +0.000 C 
ATOM     19  O   UNL     1       1.420  14.066  21.929  0.00  0.00    +0.000 OA
ATOM     20  C   UNL     1       1.556  13.942  20.509  0.00  0.00    +0.000 C 
ATOM     21  C   UNL     1       1.119  12.560  20.010  0.00  0.00    +0.000 C 
ENDBRANCH  15  16
ENDBRANCH   5   9
BRANCH   8  22
ATOM     22  C   UNL     1       2.914   6.356  20.091  0.00  0.00    +0.000 C 
BRANCH  22  23
ATOM     23  C   UNL     1       2.168   5.143  19.587  0.00  0.00    +0.000 A 
ATOM     24  C   UNL     1       1.188   4.565  20.418  0.00  0.00    +0.000 A 
ATOM     25  C   UNL     1       0.574   3.362  20.069  0.00  0.00    +0.000 A 
ATOM     26  C   UNL     1       0.935   2.727  18.888  0.00  0.00    +0.000 A 
ATOM     27  F   UNL     1       0.374   1.553  18.570  0.00  0.00    +0.000 F 
ATOM     28  C   UNL     1       1.877   3.286  18.036  0.00  0.00    +0.000 A 
ATOM     29  C   UNL     1       2.488   4.493  18.381  0.00  0.00    +0.000 A 
ATOM     30 CL   UNL     1       3.648   5.133  17.270  0.00  0.00    +0.000 Cl
ENDBRANCH  22  23
ENDBRANCH   8  22
TORSDOF 4
ENDMDL
MODEL 6
REMARK VINA RESULT:      -7.7      2.572      4.053
REMARK  Name = 
REMARK  4 active torsions:
REMARK  status: ('A' for Active; 'I' for Inactive)
REMARK    1  A    between atoms: N_5  and  C_6
REMARK    2  A    between atoms: C_12  and  N_13
REMARK    3  A    between atoms: N_21  and  C_22
REMARK    4  A    between atoms: C_22  and  C_23
REMARK                            x       y       z     vdW  Elec       q    Type
REMARK                         _______ _______ _______ _____ _____    ______ ____
ROOT
ATOM      1  O   UNL     1       1.166   7.479  21.357  0.00  0.00    +0.000 OA
ATOM      2  C   UNL     1       1.426   8.126  20.348  0.00  0.00    +0.000 C 
ATOM      3  C   UNL     1       0.895   9.581  20.227  0.00  0.00    +0.000 C 
ATOM      4  O   UNL     1       0.214  10.044  21.137  0.00  0.00    +0.000 OA
ATOM      5  N   UNL     1       1.276  10.281  19.079  0.00  0.00    +0.000 N 
ATOM      6  C   UNL     1       1.579   9.537  17.868  0.00  0.00    +0.000 C 
ATOM      7  C   UNL     1       2.599   8.439  18.169  0.00  0.00    +0.000 C 
ATOM      8  N   UNL     1       2.226   7.622  19.314  0.00  0.00    +0.000 N 
ENDROOT
BRANCH   5   9
ATOM      9  C   UNL     1       0.984  11.671  19.003  0.00  0.00    +0.000 A 
ATOM     10  C   UNL     1       2.005  12.578  19.328  0.00  0.00    +0.000 A 
ATOM     11  C   UNL     1       1.814  13.936  19.117  0.00  0.00    +0.000 A 
ATOM     12  F   UNL     1       2.798  14.796  19.413  0.00  0.00    +0.000 F 
ATOM     13  C   UNL     1       0.627  14.414  18.590  0.00  0.00    +0.000 A 
ATOM     14  C   UNL     1      -0.398  13.514  18.288  0.00  0.00    +0.000 A 
ATOM     15  C   UNL     1      -0.271  12.126  18.495  0.00  0.00    +0.000 A 
BRANCH  15  16
ATOM     16  N   UNL     1      -1.387  11.320  18.301  0.00  0.00    +0.000 N 
ATOM     17  C   UNL     1      -1.372  10.136  17.422  0.00  0.00    +0.000 C 
ATOM     18  C   UNL     1      -2.698  10.078  16.639  0.00  0.00    +0.000 C 
ATOM     19  O   UNL     1      -3.833  10.052  17.524  0.00  0.00    +0.000 OA
ATOM     20  C   UNL     1      -3.852  11.238  18.327  0.00  0.00    +0.000 C 
ATOM     21  C   UNL     1      -2.571  11.390  19.155  0.00  0.00    +0.000 C 
ENDBRANCH  15  16
ENDBRANCH   5   9
BRANCH   8  22
ATOM     22  C   UNL     1       3.049   6.450  19.602  0.00  0.00    +0.000 C 
BRANCH  22  23
ATOM     23  C   UNL     1       2.380   5.136  19.274  0.00  0.00    +0.000 A 
ATOM     24  C   UNL     1       2.000   4.890  17.940  0.00  0.00    +0.000 A 
ATOM     25  C   UNL     1       1.250   3.762  17.606  0.00  0.00    +0.000 A 
ATOM     26  C   UNL     1       0.874   2.872  18.602  0.00  0.00    +0.000 A 
ATOM     27  F   UNL     1       0.122   1.808  18.290  0.00  0.00    +0.000 F 
ATOM     28  C   UNL     1       1.258   3.071  19.921  0.00  0.00    +0.000 A 
ATOM     29  C   UNL     1       2.014   4.197  20.256  0.00  0.00    +0.000 A 
ATOM     30 CL   UNL     1       2.461   4.380  21.916  0.00  0.00    +0.000 Cl
ENDBRANCH  22  23
ENDBRANCH   8  22
TORSDOF 4
ENDMDL
MODEL 7
REMARK VINA RESULT:      -7.6      2.805      7.507
REMARK  Name = 
REMARK  4 active torsions:
REMARK  status: ('A' for Active; 'I' for Inactive)
REMARK    1  A    between atoms: N_5  and  C_6
REMARK    2  A    between atoms: C_12  and  N_13
REMARK    3  A    between atoms: N_21  and  C_22
REMARK    4  A    between atoms: C_22  and  C_23
REMARK                            x       y       z     vdW  Elec       q    Type
REMARK                         _______ _______ _______ _____ _____    ______ ____
ROOT
ATOM      1  O   UNL     1       1.515   8.630  21.041  0.00  0.00    +0.000 OA
ATOM      2  C   UNL     1       1.895   8.128  19.989  0.00  0.00    +0.000 C 
ATOM      3  C   UNL     1       2.105   6.590  19.920  0.00  0.00    +0.000 C 
ATOM      4  O   UNL     1       1.901   5.916  20.925  0.00  0.00    +0.000 OA
ATOM      5  N   UNL     1       2.484   6.076  18.677  0.00  0.00    +0.000 N 
ATOM      6  C   UNL     1       3.211   6.931  17.753  0.00  0.00    +0.000 C 
ATOM      7  C   UNL     1       2.465   8.252  17.563  0.00  0.00    +0.000 C 
ATOM      8  N   UNL     1       2.104   8.881  18.825  0.00  0.00    +0.000 N 
ENDROOT
BRANCH   5   9
ATOM      9  C   UNL     1       2.504   4.665  18.503  0.00  0.00    +0.000 A 
ATOM     10  C   UNL     1       1.308   3.958  18.710  0.00  0.00    +0.000 A 
ATOM     11  C   UNL     1       1.242   2.608  18.401  0.00  0.00    +0.000 A 
ATOM     12  F   UNL     1       0.094   1.942  18.584  0.00  0.00    +0.000 F 
ATOM     13  C   UNL     1       2.342   1.941  17.889  0.00  0.00    +0.000 A 
ATOM     14  C   UNL     1       3.539   2.638  17.704  0.00  0.00    +0.000 A 
ATOM     15  C   UNL     1       3.673   4.006  18.015  0.00  0.00    +0.000 A 
BRANCH  15  16
ATOM     16  N   UNL     1       4.934   4.586  17.934  0.00  0.00    +0.000 N 
ATOM     17  C   UNL     1       5.826   4.718  19.100  0.00  0.00    +0.000 C 
ATOM     18  C   UNL     1       6.522   6.092  19.043  0.00  0.00    +0.000 C 
ATOM     19  O   UNL     1       7.248   6.266  17.813  0.00  0.00    +0.000 OA
ATOM     20  C   UNL     1       6.349   6.186  16.702  0.00  0.00    +0.000 C 
ATOM     21  C   UNL     1       5.604   4.847  16.661  0.00  0.00    +0.000 C 
ENDBRANCH  15  16
ENDBRANCH   5   9
BRANCH   8  22
ATOM     22  C   UNL     1       1.522  10.219  18.769  0.00  0.00    +0.000 C 
BRANCH  22  23
ATOM     23  C   UNL     1       0.023  10.228  18.580  0.00  0.00    +0.000 A 
ATOM     24  C   UNL     1      -0.509   9.657  17.407  0.00  0.00    +0.000 A 
ATOM     25  C   UNL     1      -1.868   9.767  17.111  0.00  0.00    +0.000 A 
ATOM     26  C   UNL     1      -2.704  10.449  17.984  0.00  0.00    +0.000 A 
ATOM     27  F   UNL     1      -4.002  10.589  17.682  0.00  0.00    +0.000 F 
ATOM     28  C   UNL     1      -2.214  10.998  19.160  0.00  0.00    +0.000 A 
ATOM     29  C   UNL     1      -0.855  10.884  19.461  0.00  0.00    +0.000 A 
ATOM     30 CL   UNL     1      -0.316  11.587  20.945  0.00  0.00    +0.000 Cl
ENDBRANCH  22  23
ENDBRANCH   8  22
TORSDOF 4
ENDMDL
MODEL 8
REMARK VINA RESULT:      -7.5      2.447      3.816
REMARK  Name = 
REMARK  4 active torsions:
REMARK  status: ('A' for Active; 'I' for Inactive)
REMARK    1  A    between atoms: N_5  and  C_6
REMARK    2  A    between atoms: C_12  and  N_13
REMARK    3  A    between atoms: N_21  and  C_22
REMARK    4  A    between atoms: C_22  and  C_23
REMARK                            x       y       z     vdW  Elec       q    Type
REMARK                         _______ _______ _______ _____ _____    ______ ____
ROOT
ATOM      1  O   UNL     1       1.185   7.874  21.672  0.00  0.00    +0.000 OA
ATOM      2  C   UNL     1       1.344   8.461  20.607  0.00  0.00    +0.000 C 
ATOM      3  C   UNL     1       0.844   9.926  20.472  0.00  0.00    +0.000 C 
ATOM      4  O   UNL     1       0.286  10.456  21.428  0.00  0.00    +0.000 OA
ATOM      5  N   UNL     1       1.108  10.555  19.252  0.00  0.00    +0.000 N 
ATOM      6  C   UNL     1       1.247   9.743  18.055  0.00  0.00    +0.000 C 
ATOM      7  C   UNL     1       2.265   8.627  18.295  0.00  0.00    +0.000 C 
ATOM      8  N   UNL     1       2.005   7.880  19.516  0.00  0.00    +0.000 N 
ENDROOT
BRANCH   5   9
ATOM      9  C   UNL     1       0.848  11.949  19.138  0.00  0.00    +0.000 A 
ATOM     10  C   UNL     1       1.825  12.843  19.605  0.00  0.00    +0.000 A 
ATOM     11  C   UNL     1       1.685  14.202  19.371  0.00  0.00    +0.000 A 
ATOM     12  F   UNL     1       2.629  15.050  19.804  0.00  0.00    +0.000 F 
ATOM     13  C   UNL     1       0.591  14.696  18.682  0.00  0.00    +0.000 A 
ATOM     14  C   UNL     1      -0.394  13.810  18.236  0.00  0.00    +0.000 A 
ATOM     15  C   UNL     1      -0.315  12.421  18.457  0.00  0.00    +0.000 A 
BRANCH  15  16
ATOM     16  N   UNL     1      -1.403  11.629  18.106  0.00  0.00    +0.000 N 
ATOM     17  C   UNL     1      -2.315  11.040  19.104  0.00  0.00    +0.000 C 
ATOM     18  C   UNL     1      -2.675   9.606  18.667  0.00  0.00    +0.000 C 
ATOM     19  O   UNL     1      -3.262   9.587  17.353  0.00  0.00    +0.000 OA
ATOM     20  C   UNL     1      -2.335  10.114  16.398  0.00  0.00    +0.000 C 
ATOM     21  C   UNL     1      -1.914  11.548  16.739  0.00  0.00    +0.000 C 
ENDBRANCH  15  16
ENDBRANCH   5   9
BRANCH   8  22
ATOM     22  C   UNL     1       2.822   6.697  19.769  0.00  0.00    +0.000 C 
BRANCH  22  23
ATOM     23  C   UNL     1       2.179   5.402  19.330  0.00  0.00    +0.000 A 
ATOM     24  C   UNL     1       1.187   4.832  20.152  0.00  0.00    +0.000 A 
ATOM     25  C   UNL     1       0.666   3.568  19.873  0.00  0.00    +0.000 A 
ATOM     26  C   UNL     1       1.132   2.866  18.770  0.00  0.00    +0.000 A 
ATOM     27  F   UNL     1       0.660   1.637  18.522  0.00  0.00    +0.000 F 
ATOM     28  C   UNL     1       2.087   3.412  17.925  0.00  0.00    +0.000 A 
ATOM     29  C   UNL     1       2.606   4.680  18.200  0.00  0.00    +0.000 A 
ATOM     30 CL   UNL     1       3.789   5.301  17.103  0.00  0.00    +0.000 Cl
ENDBRANCH  22  23
ENDBRANCH   8  22
TORSDOF 4
ENDMDL
MODEL 9
REMARK VINA RESULT:      -7.5      0.615      1.081
REMARK  Name = 
REMARK  4 active torsions:
REMARK  status: ('A' for Active; 'I' for Inactive)
REMARK    1  A    between atoms: N_5  and  C_6
REMARK    2  A    between atoms: C_12  and  N_13
REMARK    3  A    between atoms: N_21  and  C_22
REMARK    4  A    between atoms: C_22  and  C_23
REMARK                            x       y       z     vdW  Elec       q    Type
REMARK                         _______ _______ _______ _____ _____    ______ ____
ROOT
ATOM      1  O   UNL     1       3.292   8.031  17.832  0.00  0.00    +0.000 OA
ATOM      2  C   UNL     1       2.398   8.293  18.631  0.00  0.00    +0.000 C 
ATOM      3  C   UNL     1       1.332   9.356  18.248  0.00  0.00    +0.000 C 
ATOM      4  O   UNL     1       1.418   9.921  17.162  0.00  0.00    +0.000 OA
ATOM      5  N   UNL     1       0.311   9.566  19.179  0.00  0.00    +0.000 N 
ATOM      6  C   UNL     1       0.573   9.302  20.584  0.00  0.00    +0.000 C 
ATOM      7  C   UNL     1       1.150   7.897  20.754  0.00  0.00    +0.000 C 
ATOM      8  N   UNL     1       2.271   7.636  19.863  0.00  0.00    +0.000 N 
ENDROOT
BRANCH   5   9
ATOM      9  C   UNL     1      -0.793  10.380  18.803  0.00  0.00    +0.000 A 
ATOM     10  C   UNL     1      -1.946   9.745  18.314  0.00  0.00    +0.000 A 
ATOM     11  C   UNL     1      -3.096  10.484  18.086  0.00  0.00    +0.000 A 
ATOM     12  F   UNL     1      -4.199   9.870  17.635  0.00  0.00    +0.000 F 
ATOM     13  C   UNL     1      -3.128  11.846  18.333  0.00  0.00    +0.000 A 
ATOM     14  C   UNL     1      -1.975  12.483  18.799  0.00  0.00    +0.000 A 
ATOM     15  C   UNL     1      -0.771  11.789  19.034  0.00  0.00    +0.000 A 
BRANCH  15  16
ATOM     16  N   UNL     1       0.365  12.522  19.360  0.00  0.00    +0.000 N 
ATOM     17  C   UNL     1       1.190  13.205  18.348  0.00  0.00    +0.000 C 
ATOM     18  C   UNL     1       2.677  13.029  18.713  0.00  0.00    +0.000 C 
ATOM     19  O   UNL     1       2.959  13.526  20.034  0.00  0.00    +0.000 OA
ATOM     20  C   UNL     1       2.185  12.808  21.000  0.00  0.00    +0.000 C 
ATOM     21  C   UNL     1       0.680  12.924  20.730  0.00  0.00    +0.000 C 
ENDBRANCH  15  16
ENDBRANCH   5   9
BRANCH   8  22
ATOM     22  C   UNL     1       2.997   6.382  20.041  0.00  0.00    +0.000 C 
BRANCH  22  23
ATOM     23  C   UNL     1       2.243   5.163  19.562  0.00  0.00    +0.000 A 
ATOM     24  C   UNL     1       1.254   4.613  20.400  0.00  0.00    +0.000 A 
ATOM     25  C   UNL     1       0.632   3.407  20.076  0.00  0.00    +0.000 A 
ATOM     26  C   UNL     1       0.993   2.743  18.912  0.00  0.00    +0.000 A 
ATOM     27  F   UNL     1       0.423   1.567  18.618  0.00  0.00    +0.000 F 
ATOM     28  C   UNL     1       1.943   3.275  18.052  0.00  0.00    +0.000 A 
ATOM     29  C   UNL     1       2.564   4.484  18.372  0.00  0.00    +0.000 A 
ATOM     30 CL   UNL     1       3.734   5.090  17.253  0.00  0.00    +0.000 Cl
ENDBRANCH  22  23
ENDBRANCH   8  22
TORSDOF 4
ENDMDL
