MODEL 1
REMARK VINA RESULT:      -7.1      0.000      0.000
REMARK  Name = 
REMARK  7 active torsions:
REMARK  status: ('A' for Active; 'I' for Inactive)
REMARK    1  A    between atoms: C_1  and  O_2
REMARK    2  A    between atoms: O_2  and  C_3
REMARK    3  A    between atoms: C_6  and  N_7
REMARK    4  A    between atoms: C_8  and  C_10
REMARK    5  A    between atoms: C_10  and  C_11
REMARK    6  A    between atoms: C_13  and  C_14
REMARK    7  A    between atoms: C_17  and  N_18
REMARK                            x       y       z     vdW  Elec       q    Type
REMARK                         _______ _______ _______ _____ _____    ______ ____
ROOT
ATOM      1  C   UNL     1       2.345   3.230  20.586  0.00  0.00    +0.000 C 
ATOM      2  C   UNL     1       3.286   2.571  19.881  0.00  0.00    +0.000 C 
ENDROOT
BRANCH   2   3
ATOM      3  C   UNL     1       3.997   3.143  18.780  0.00  0.00    +0.000 A 
ATOM      4  C   UNL     1       3.822   2.929  17.419  0.00  0.00    +0.000 A 
ATOM      5  C   UNL     1       4.765   3.731  16.730  0.00  0.00    +0.000 A 
ATOM      6  C   UNL     1       5.482   4.414  17.686  0.00  0.00    +0.000 A 
ATOM      7  O   UNL     1       5.043   4.033  18.920  0.00  0.00    +0.000 OA
BRANCH   6   8
ATOM      8  N   UNL     1       6.461   5.348  17.609  0.00  0.00    +0.000 N 
ATOM      9  C   UNL     1       7.736   5.207  18.320  0.00  0.00    +0.000 C 
ATOM     10  C   UNL     1       8.132   6.554  18.955  0.00  0.00    +0.000 C 
ATOM     11  O   UNL     1       8.139   7.622  17.990  0.00  0.00    +0.000 OA
ATOM     12  C   UNL     1       6.834   7.764  17.405  0.00  0.00    +0.000 C 
ATOM     13  C   UNL     1       6.406   6.478  16.679  0.00  0.00    +0.000 C 
ENDBRANCH   6   8
ENDBRANCH   2   3
BRANCH   1  15
ATOM     14  N   UNL     1       2.590   5.657  20.207  0.00  0.00    +0.000 N 
ATOM     15  C   UNL     1       1.768   4.538  20.117  0.00  0.00    +0.000 C 
ATOM     16  O   UNL     1       0.603   4.550  19.731  0.00  0.00    +0.000 OA
ATOM     17  H   UNL     1       3.542   5.547  20.539  0.00  0.00    +0.000 HD
BRANCH  14  21
ATOM     18  C   UNL     1       1.413   9.499  18.804  0.00  0.00    +0.000 A 
ATOM     19  C   UNL     1       1.154   9.125  20.116  0.00  0.00    +0.000 A 
ATOM     20  C   UNL     1       1.568   7.885  20.599  0.00  0.00    +0.000 A 
ATOM     21  C   UNL     1       2.226   6.964  19.779  0.00  0.00    +0.000 A 
ATOM     22  C   UNL     1       2.513   7.358  18.462  0.00  0.00    +0.000 A 
ATOM     23  C   UNL     1       2.104   8.614  17.976  0.00  0.00    +0.000 A 
BRANCH  18  25
ATOM     24  C   UNL     1       1.403  11.841  19.158  0.00  0.00    +0.000 C 
ATOM     25  O   UNL     1       0.902  10.715  18.453  0.00  0.00    +0.000 OA
ENDBRANCH  18  25
ENDBRANCH  14  21
ENDBRANCH   1  15
BRANCH   1  26
ATOM     26  C   UNL     1       1.637   2.558  21.751  0.00  0.00    +0.000 C 
ATOM     27  N   UNL     1       1.049   2.001  22.717  0.00  0.00    +0.000 NA
ENDBRANCH   1  26
TORSDOF 6
ENDMDL
MODEL 2
REMARK VINA RESULT:      -6.9      2.411      6.897
REMARK  Name = 
REMARK  7 active torsions:
REMARK  status: ('A' for Active; 'I' for Inactive)
REMARK    1  A    between atoms: C_1  and  O_2
REMARK    2  A    between atoms: O_2  and  C_3
REMARK    3  A    between atoms: C_6  and  N_7
REMARK    4  A    between atoms: C_8  and  C_10
REMARK    5  A    between atoms: C_10  and  C_11
REMARK    6  A    between atoms: C_13  and  C_14
REMARK    7  A    between atoms: C_17  and  N_18
REMARK                            x       y       z     vdW  Elec       q    Type
REMARK                         _______ _______ _______ _____ _____    ______ ____
ROOT
ATOM      1  C   UNL     1       2.102   5.374  20.164  0.00  0.00    +0.000 C 
ATOM      2  C   UNL     1       1.851   6.626  20.597  0.00  0.00    +0.000 C 
ENDROOT
BRANCH   2   3
ATOM      3  C   UNL     1       1.781   7.763  19.734  0.00  0.00    +0.000 A 
ATOM      4  C   UNL     1       2.359   7.952  18.485  0.00  0.00    +0.000 A 
ATOM      5  C   UNL     1       1.993   9.242  18.028  0.00  0.00    +0.000 A 
ATOM      6  C   UNL     1       1.201   9.800  19.005  0.00  0.00    +0.000 A 
ATOM      7  O   UNL     1       1.102   8.925  20.046  0.00  0.00    +0.000 OA
BRANCH   6   8
ATOM      8  N   UNL     1       0.534  10.978  19.087  0.00  0.00    +0.000 N 
ATOM      9  C   UNL     1      -0.927  11.060  19.001  0.00  0.00    +0.000 C 
ATOM     10  C   UNL     1      -1.333  12.248  18.110  0.00  0.00    +0.000 C 
ATOM     11  O   UNL     1      -0.724  13.479  18.544  0.00  0.00    +0.000 OA
ATOM     12  C   UNL     1       0.708  13.356  18.510  0.00  0.00    +0.000 C 
ATOM     13  C   UNL     1       1.193  12.236  19.447  0.00  0.00    +0.000 C 
ENDBRANCH   6   8
ENDBRANCH   2   3
BRANCH   1  15
ATOM     14  N   UNL     1       3.946   5.281  18.526  0.00  0.00    +0.000 N 
ATOM     15  C   UNL     1       2.589   5.096  18.768  0.00  0.00    +0.000 C 
ATOM     16  O   UNL     1       1.761   4.772  17.921  0.00  0.00    +0.000 OA
ATOM     17  H   UNL     1       4.554   5.551  19.293  0.00  0.00    +0.000 HD
BRANCH  14  21
ATOM     18  C   UNL     1       5.982   4.647  14.842  0.00  0.00    +0.000 A 
ATOM     19  C   UNL     1       5.700   3.574  15.678  0.00  0.00    +0.000 A 
ATOM     20  C   UNL     1       5.000   3.763  16.869  0.00  0.00    +0.000 A 
ATOM     21  C   UNL     1       4.587   5.033  17.280  0.00  0.00    +0.000 A 
ATOM     22  C   UNL     1       4.847   6.110  16.418  0.00  0.00    +0.000 A 
ATOM     23  C   UNL     1       5.545   5.920  15.210  0.00  0.00    +0.000 A 
BRANCH  18  25
ATOM     24  C   UNL     1       6.069   3.548  12.746  0.00  0.00    +0.000 C 
ATOM     25  O   UNL     1       6.720   4.325  13.741  0.00  0.00    +0.000 OA
ENDBRANCH  18  25
ENDBRANCH  14  21
ENDBRANCH   1  15
BRANCH   1  26
ATOM     26  C   UNL     1       2.153   4.212  21.142  0.00  0.00    +0.000 C 
ATOM     27  N   UNL     1       2.196   3.247  21.953  0.00  0.00    +0.000 NA
ENDBRANCH   1  26
TORSDOF 6
ENDMDL
MODEL 3
REMARK VINA RESULT:      -6.8      2.474      6.982
REMARK  Name = 
REMARK  7 active torsions:
REMARK  status: ('A' for Active; 'I' for Inactive)
REMARK    1  A    between atoms: C_1  and  O_2
REMARK    2  A    between atoms: O_2  and  C_3
REMARK    3  A    between atoms: C_6  and  N_7
REMARK    4  A    between atoms: C_8  and  C_10
REMARK    5  A    between atoms: C_10  and  C_11
REMARK    6  A    between atoms: C_13  and  C_14
REMARK    7  A    between atoms: C_17  and  N_18
REMARK                            x       y       z     vdW  Elec       q    Type
REMARK                         _______ _______ _______ _____ _____    ______ ____
ROOT
ATOM      1  C   UNL     1       2.085   5.469  20.142  0.00  0.00    +0.000 C 
ATOM      2  C   UNL     1       1.825   6.727  20.551  0.00  0.00    +0.000 C 
ENDROOT
BRANCH   2   3
ATOM      3  C   UNL     1       1.742   7.846  19.666  0.00  0.00    +0.000 A 
ATOM      4  C   UNL     1       2.404   8.063  18.464  0.00  0.00    +0.000 A 
ATOM      5  C   UNL     1       1.984   9.317  17.958  0.00  0.00    +0.000 A 
ATOM      6  C   UNL     1       1.076   9.826  18.858  0.00  0.00    +0.000 A 
ATOM      7  O   UNL     1       0.957   8.957  19.902  0.00  0.00    +0.000 OA
BRANCH   6   8
ATOM      8  N   UNL     1       0.321  10.952  18.867  0.00  0.00    +0.000 N 
ATOM      9  C   UNL     1       0.903  12.286  19.047  0.00  0.00    +0.000 C 
ATOM     10  C   UNL     1       0.030  13.111  20.011  0.00  0.00    +0.000 C 
ATOM     11  O   UNL     1      -1.347  13.149  19.592  0.00  0.00    +0.000 OA
ATOM     12  C   UNL     1      -1.877  11.815  19.531  0.00  0.00    +0.000 C 
ATOM     13  C   UNL     1      -1.103  10.953  18.520  0.00  0.00    +0.000 C 
ENDBRANCH   6   8
ENDBRANCH   2   3
BRANCH   1  15
ATOM     14  N   UNL     1       3.929   5.347  18.506  0.00  0.00    +0.000 N 
ATOM     15  C   UNL     1       2.572   5.168  18.750  0.00  0.00    +0.000 C 
ATOM     16  O   UNL     1       1.744   4.831  17.909  0.00  0.00    +0.000 OA
ATOM     17  H   UNL     1       4.538   5.629  19.268  0.00  0.00    +0.000 HD
BRANCH  14  21
ATOM     18  C   UNL     1       5.966   4.648  14.834  0.00  0.00    +0.000 A 
ATOM     19  C   UNL     1       5.655   3.586  15.673  0.00  0.00    +0.000 A 
ATOM     20  C   UNL     1       4.954   3.797  16.860  0.00  0.00    +0.000 A 
ATOM     21  C   UNL     1       4.570   5.079  17.264  0.00  0.00    +0.000 A 
ATOM     22  C   UNL     1       4.860   6.146  16.398  0.00  0.00    +0.000 A 
ATOM     23  C   UNL     1       5.559   5.933  15.195  0.00  0.00    +0.000 A 
BRANCH  18  25
ATOM     24  C   UNL     1       6.045   3.514  12.757  0.00  0.00    +0.000 C 
ATOM     25  O   UNL     1       6.702   4.304  13.738  0.00  0.00    +0.000 OA
ENDBRANCH  18  25
ENDBRANCH  14  21
ENDBRANCH   1  15
BRANCH   1  26
ATOM     26  C   UNL     1       2.149   4.326  21.143  0.00  0.00    +0.000 C 
ATOM     27  N   UNL     1       2.202   3.378  21.972  0.00  0.00    +0.000 NA
ENDBRANCH   1  26
TORSDOF 6
ENDMDL
MODEL 4
REMARK VINA RESULT:      -6.5      1.879      2.455
REMARK  Name = 
REMARK  7 active torsions:
REMARK  status: ('A' for Active; 'I' for Inactive)
REMARK    1  A    between atoms: C_1  and  O_2
REMARK    2  A    between atoms: O_2  and  C_3
REMARK    3  A    between atoms: C_6  and  N_7
REMARK    4  A    between atoms: C_8  and  C_10
REMARK    5  A    between atoms: C_10  and  C_11
REMARK    6  A    between atoms: C_13  and  C_14
REMARK    7  A    between atoms: C_17  and  N_18
REMARK                            x       y       z     vdW  Elec       q    Type
REMARK                         _______ _______ _______ _____ _____    ______ ____
ROOT
ATOM      1  C   UNL     1       2.890   3.878  20.453  0.00  0.00    +0.000 C 
ATOM      2  C   UNL     1       4.068   3.394  20.011  0.00  0.00    +0.000 C 
ENDROOT
BRANCH   2   3
ATOM      3  C   UNL     1       4.919   4.093  19.100  0.00  0.00    +0.000 A 
ATOM      4  C   UNL     1       5.669   5.244  19.310  0.00  0.00    +0.000 A 
ATOM      5  C   UNL     1       6.351   5.542  18.104  0.00  0.00    +0.000 A 
ATOM      6  C   UNL     1       6.003   4.566  17.198  0.00  0.00    +0.000 A 
ATOM      7  O   UNL     1       5.115   3.715  17.787  0.00  0.00    +0.000 OA
BRANCH   6   8
ATOM      8  N   UNL     1       6.386   4.317  15.922  0.00  0.00    +0.000 N 
ATOM      9  C   UNL     1       7.618   4.870  15.350  0.00  0.00    +0.000 C 
ATOM     10  C   UNL     1       7.349   5.375  13.920  0.00  0.00    +0.000 C 
ATOM     11  O   UNL     1       6.752   4.359  13.094  0.00  0.00    +0.000 OA
ATOM     12  C   UNL     1       5.503   3.934  13.665  0.00  0.00    +0.000 C 
ATOM     13  C   UNL     1       5.707   3.338  15.069  0.00  0.00    +0.000 C 
ENDBRANCH   6   8
ENDBRANCH   2   3
BRANCH   1  15
ATOM     14  N   UNL     1       2.497   6.315  20.411  0.00  0.00    +0.000 N 
ATOM     15  C   UNL     1       2.236   5.080  19.827  0.00  0.00    +0.000 C 
ATOM     16  O   UNL     1       1.481   4.897  18.876  0.00  0.00    +0.000 OA
ATOM     17  H   UNL     1       3.139   6.365  21.197  0.00  0.00    +0.000 HD
BRANCH  14  21
ATOM     18  C   UNL     1       0.926   9.953  18.859  0.00  0.00    +0.000 A 
ATOM     19  C   UNL     1       0.647   9.572  20.165  0.00  0.00    +0.000 A 
ATOM     20  C   UNL     1       1.187   8.403  20.698  0.00  0.00    +0.000 A 
ATOM     21  C   UNL     1       1.996   7.557  19.935  0.00  0.00    +0.000 A 
ATOM     22  C   UNL     1       2.301   7.961  18.624  0.00  0.00    +0.000 A 
ATOM     23  C   UNL     1       1.764   9.147  18.088  0.00  0.00    +0.000 A 
BRANCH  18  25
ATOM     24  C   UNL     1      -0.552  11.719  19.411  0.00  0.00    +0.000 C 
ATOM     25  O   UNL     1       0.287  11.088  18.454  0.00  0.00    +0.000 OA
ENDBRANCH  18  25
ENDBRANCH  14  21
ENDBRANCH   1  15
BRANCH   1  26
ATOM     26  C   UNL     1       2.041   3.079  21.430  0.00  0.00    +0.000 C 
ATOM     27  N   UNL     1       1.337   2.417  22.240  0.00  0.00    +0.000 NA
ENDBRANCH   1  26
TORSDOF 6
ENDMDL
MODEL 5
REMARK VINA RESULT:      -6.5      1.825      2.588
REMARK  Name = 
REMARK  7 active torsions:
REMARK  status: ('A' for Active; 'I' for Inactive)
REMARK    1  A    between atoms: C_1  and  O_2
REMARK    2  A    between atoms: O_2  and  C_3
REMARK    3  A    between atoms: C_6  and  N_7
REMARK    4  A    between atoms: C_8  and  C_10
REMARK    5  A    between atoms: C_10  and  C_11
REMARK    6  A    between atoms: C_13  and  C_14
REMARK    7  A    between atoms: C_17  and  N_18
REMARK                            x       y       z     vdW  Elec       q    Type
REMARK                         _______ _______ _______ _____ _____    ______ ____
ROOT
ATOM      1  C   UNL     1       2.898   3.830  20.460  0.00  0.00    +0.000 C 
ATOM      2  C   UNL     1       4.087   3.364  20.027  0.00  0.00    +0.000 C 
ENDROOT
BRANCH   2   3
ATOM      3  C   UNL     1       4.932   4.075  19.119  0.00  0.00    +0.000 A 
ATOM      4  C   UNL     1       5.668   5.233  19.331  0.00  0.00    +0.000 A 
ATOM      5  C   UNL     1       6.349   5.541  18.128  0.00  0.00    +0.000 A 
ATOM      6  C   UNL     1       6.015   4.562  17.220  0.00  0.00    +0.000 A 
ATOM      7  O   UNL     1       5.135   3.700  17.806  0.00  0.00    +0.000 OA
BRANCH   6   8
ATOM      8  N   UNL     1       6.403   4.319  15.944  0.00  0.00    +0.000 N 
ATOM      9  C   UNL     1       7.626   4.893  15.374  0.00  0.00    +0.000 C 
ATOM     10  C   UNL     1       7.351   5.394  13.943  0.00  0.00    +0.000 C 
ATOM     11  O   UNL     1       6.771   4.367  13.116  0.00  0.00    +0.000 OA
ATOM     12  C   UNL     1       5.529   3.922  13.686  0.00  0.00    +0.000 C 
ATOM     13  C   UNL     1       5.742   3.330  15.090  0.00  0.00    +0.000 C 
ENDBRANCH   6   8
ENDBRANCH   2   3
BRANCH   1  15
ATOM     14  N   UNL     1       2.543   6.271  20.347  0.00  0.00    +0.000 N 
ATOM     15  C   UNL     1       2.229   5.020  19.827  0.00  0.00    +0.000 C 
ATOM     16  O   UNL     1       1.417   4.815  18.928  0.00  0.00    +0.000 OA
ATOM     17  H   UNL     1       3.230   6.339  21.092  0.00  0.00    +0.000 HD
BRANCH  14  21
ATOM     18  C   UNL     1       1.098  10.037  18.992  0.00  0.00    +0.000 A 
ATOM     19  C   UNL     1       1.855   9.235  18.148  0.00  0.00    +0.000 A 
ATOM     20  C   UNL     1       2.301   7.982  18.566  0.00  0.00    +0.000 A 
ATOM     21  C   UNL     1       2.035   7.503  19.852  0.00  0.00    +0.000 A 
ATOM     22  C   UNL     1       1.244   8.305  20.692  0.00  0.00    +0.000 A 
ATOM     23  C   UNL     1       0.784   9.565  20.267  0.00  0.00    +0.000 A 
BRANCH  18  25
ATOM     24  C   UNL     1       1.688  12.316  18.733  0.00  0.00    +0.000 C 
ATOM     25  O   UNL     1       0.777  11.257  18.473  0.00  0.00    +0.000 OA
ENDBRANCH  18  25
ENDBRANCH  14  21
ENDBRANCH   1  15
BRANCH   1  26
ATOM     26  C   UNL     1       2.058   3.021  21.435  0.00  0.00    +0.000 C 
ATOM     27  N   UNL     1       1.360   2.350  22.243  0.00  0.00    +0.000 NA
ENDBRANCH   1  26
TORSDOF 6
ENDMDL
MODEL 6
REMARK VINA RESULT:      -6.5      2.308      6.844
REMARK  Name = 
REMARK  7 active torsions:
REMARK  status: ('A' for Active; 'I' for Inactive)
REMARK    1  A    between atoms: C_1  and  O_2
REMARK    2  A    between atoms: O_2  and  C_3
REMARK    3  A    between atoms: C_6  and  N_7
REMARK    4  A    between atoms: C_8  and  C_10
REMARK    5  A    between atoms: C_10  and  C_11
REMARK    6  A    between atoms: C_13  and  C_14
REMARK    7  A    between atoms: C_17  and  N_18
REMARK                            x       y       z     vdW  Elec       q    Type
REMARK                         _______ _______ _______ _____ _____    ______ ____
ROOT
ATOM      1  C   UNL     1       2.168   5.210  20.378  0.00  0.00    +0.000 C 
ATOM      2  C   UNL     1       1.688   6.385  20.833  0.00  0.00    +0.000 C 
ENDROOT
BRANCH   2   3
ATOM      3  C   UNL     1       1.633   7.576  20.045  0.00  0.00    +0.000 A 
ATOM      4  C   UNL     1       2.158   7.815  18.781  0.00  0.00    +0.000 A 
ATOM      5  C   UNL     1       1.837   9.148  18.423  0.00  0.00    +0.000 A 
ATOM      6  C   UNL     1       1.123   9.681  19.472  0.00  0.00    +0.000 A 
ATOM      7  O   UNL     1       1.031   8.747  20.462  0.00  0.00    +0.000 OA
BRANCH   6   8
ATOM      8  N   UNL     1       0.522  10.881  19.661  0.00  0.00    +0.000 N 
ATOM      9  C   UNL     1      -0.273  11.181  20.855  0.00  0.00    +0.000 C 
ATOM     10  C   UNL     1      -1.557  11.932  20.453  0.00  0.00    +0.000 C 
ATOM     11  O   UNL     1      -1.271  13.098  19.658  0.00  0.00    +0.000 OA
ATOM     12  C   UNL     1      -0.577  12.716  18.460  0.00  0.00    +0.000 C 
ATOM     13  C   UNL     1       0.761  12.032  18.786  0.00  0.00    +0.000 C 
ENDBRANCH   6   8
ENDBRANCH   2   3
BRANCH   1  15
ATOM     14  N   UNL     1       4.243   5.575  19.091  0.00  0.00    +0.000 N 
ATOM     15  C   UNL     1       2.933   5.108  19.086  0.00  0.00    +0.000 C 
ATOM     16  O   UNL     1       2.347   4.667  18.101  0.00  0.00    +0.000 OA
ATOM     17  H   UNL     1       4.642   5.923  19.957  0.00  0.00    +0.000 HD
BRANCH  14  21
ATOM     18  C   UNL     1       6.865   5.263  15.753  0.00  0.00    +0.000 A 
ATOM     19  C   UNL     1       5.711   6.030  15.665  0.00  0.00    +0.000 A 
ATOM     20  C   UNL     1       4.864   6.172  16.763  0.00  0.00    +0.000 A 
ATOM     21  C   UNL     1       5.123   5.526  17.975  0.00  0.00    +0.000 A 
ATOM     22  C   UNL     1       6.307   4.776  18.069  0.00  0.00    +0.000 A 
ATOM     23  C   UNL     1       7.169   4.640  16.965  0.00  0.00    +0.000 A 
BRANCH  18  25
ATOM     24  C   UNL     1       6.970   4.411  13.546  0.00  0.00    +0.000 C 
ATOM     25  O   UNL     1       7.569   5.167  14.588  0.00  0.00    +0.000 OA
ENDBRANCH  18  25
ENDBRANCH  14  21
ENDBRANCH   1  15
BRANCH   1  26
ATOM     26  C   UNL     1       2.186   3.981  21.273  0.00  0.00    +0.000 C 
ATOM     27  N   UNL     1       2.201   2.962  22.015  0.00  0.00    +0.000 NA
ENDBRANCH   1  26
TORSDOF 6
ENDMDL
MODEL 7
REMARK VINA RESULT:      -6.5      2.077      2.729
REMARK  Name = 
REMARK  7 active torsions:
REMARK  status: ('A' for Active; 'I' for Inactive)
REMARK    1  A    between atoms: C_1  and  O_2
REMARK    2  A    between atoms: O_2  and  C_3
REMARK    3  A    between atoms: C_6  and  N_7
REMARK    4  A    between atoms: C_8  and  C_10
REMARK    5  A    between atoms: C_10  and  C_11
REMARK    6  A    between atoms: C_13  and  C_14
REMARK    7  A    between atoms: C_17  and  N_18
REMARK                            x       y       z     vdW  Elec       q    Type
REMARK                         _______ _______ _______ _____ _____    ______ ____
ROOT
ATOM      1  C   UNL     1       3.324   3.879  19.994  0.00  0.00    +0.000 C 
ATOM      2  C   UNL     1       4.496   3.431  19.499  0.00  0.00    +0.000 C 
ENDROOT
BRANCH   2   3
ATOM      3  C   UNL     1       5.301   4.172  18.579  0.00  0.00    +0.000 A 
ATOM      4  C   UNL     1       6.304   5.096  18.840  0.00  0.00    +0.000 A 
ATOM      5  C   UNL     1       6.809   5.551  17.597  0.00  0.00    +0.000 A 
ATOM      6  C   UNL     1       6.105   4.890  16.616  0.00  0.00    +0.000 A 
ATOM      7  O   UNL     1       5.175   4.087  17.207  0.00  0.00    +0.000 OA
BRANCH   6   8
ATOM      8  N   UNL     1       6.193   4.889  15.263  0.00  0.00    +0.000 N 
ATOM      9  C   UNL     1       5.252   4.148  14.417  0.00  0.00    +0.000 C 
ATOM     10  C   UNL     1       6.017   3.433  13.287  0.00  0.00    +0.000 C 
ATOM     11  O   UNL     1       6.850   4.341  12.543  0.00  0.00    +0.000 OA
ATOM     12  C   UNL     1       7.809   4.956  13.418  0.00  0.00    +0.000 C 
ATOM     13  C   UNL     1       7.112   5.761  14.529  0.00  0.00    +0.000 C 
ENDBRANCH   6   8
ENDBRANCH   2   3
BRANCH   1  15
ATOM     14  N   UNL     1       2.723   6.269  20.144  0.00  0.00    +0.000 N 
ATOM     15  C   UNL     1       2.625   5.083  19.423  0.00  0.00    +0.000 C 
ATOM     16  O   UNL     1       1.978   4.940  18.389  0.00  0.00    +0.000 OA
ATOM     17  H   UNL     1       3.284   6.289  20.990  0.00  0.00    +0.000 HD
BRANCH  14  21
ATOM     18  C   UNL     1       0.957   9.904  18.811  0.00  0.00    +0.000 A 
ATOM     19  C   UNL     1       0.766   9.473  20.117  0.00  0.00    +0.000 A 
ATOM     20  C   UNL     1       1.371   8.305  20.578  0.00  0.00    +0.000 A 
ATOM     21  C   UNL     1       2.159   7.510  19.740  0.00  0.00    +0.000 A 
ATOM     22  C   UNL     1       2.374   7.965  18.429  0.00  0.00    +0.000 A 
ATOM     23  C   UNL     1       1.772   9.151  17.966  0.00  0.00    +0.000 A 
BRANCH  18  25
ATOM     24  C   UNL     1      -0.080  11.900  19.552  0.00  0.00    +0.000 C 
ATOM     25  O   UNL     1       0.262  11.032  18.482  0.00  0.00    +0.000 OA
ENDBRANCH  18  25
ENDBRANCH  14  21
ENDBRANCH   1  15
BRANCH   1  26
ATOM     26  C   UNL     1       2.526   3.038  20.977  0.00  0.00    +0.000 C 
ATOM     27  N   UNL     1       1.865   2.339  21.792  0.00  0.00    +0.000 NA
ENDBRANCH   1  26
TORSDOF 6
ENDMDL
MODEL 8
REMARK VINA RESULT:      -6.5      2.381      6.856
REMARK  Name = 
REMARK  7 active torsions:
REMARK  status: ('A' for Active; 'I' for Inactive)
REMARK    1  A    between atoms: C_1  and  O_2
REMARK    2  A    between atoms: O_2  and  C_3
REMARK    3  A    between atoms: C_6  and  N_7
REMARK    4  A    between atoms: C_8  and  C_10
REMARK    5  A    between atoms: C_10  and  C_11
REMARK    6  A    between atoms: C_13  and  C_14
REMARK    7  A    between atoms: C_17  and  N_18
REMARK                            x       y       z     vdW  Elec       q    Type
REMARK                         _______ _______ _______ _____ _____    ______ ____
ROOT
ATOM      1  C   UNL     1       2.099   5.408  20.176  0.00  0.00    +0.000 C 
ATOM      2  C   UNL     1       1.830   6.660  20.597  0.00  0.00    +0.000 C 
ENDROOT
BRANCH   2   3
ATOM      3  C   UNL     1       1.771   7.792  19.727  0.00  0.00    +0.000 A 
ATOM      4  C   UNL     1       2.352   7.967  18.477  0.00  0.00    +0.000 A 
ATOM      5  C   UNL     1       1.999   9.258  18.012  0.00  0.00    +0.000 A 
ATOM      6  C   UNL     1       1.212   9.830  18.985  0.00  0.00    +0.000 A 
ATOM      7  O   UNL     1       1.104   8.962  20.032  0.00  0.00    +0.000 OA
BRANCH   6   8
ATOM      8  N   UNL     1       0.558  11.015  19.061  0.00  0.00    +0.000 N 
ATOM      9  C   UNL     1      -0.903  11.111  18.972  0.00  0.00    +0.000 C 
ATOM     10  C   UNL     1      -1.295  12.299  18.074  0.00  0.00    +0.000 C 
ATOM     11  O   UNL     1      -0.674  13.526  18.502  0.00  0.00    +0.000 OA
ATOM     12  C   UNL     1       0.756  13.388  18.471  0.00  0.00    +0.000 C 
ATOM     13  C   UNL     1       1.228  12.269  19.414  0.00  0.00    +0.000 C 
ENDBRANCH   6   8
ENDBRANCH   2   3
BRANCH   1  15
ATOM     14  N   UNL     1       3.984   5.305  18.586  0.00  0.00    +0.000 N 
ATOM     15  C   UNL     1       2.621   5.126  18.793  0.00  0.00    +0.000 C 
ATOM     16  O   UNL     1       1.813   4.805  17.925  0.00  0.00    +0.000 OA
ATOM     17  H   UNL     1       4.574   5.573  19.368  0.00  0.00    +0.000 HD
BRANCH  14  21
ATOM     18  C   UNL     1       5.870   4.450  14.867  0.00  0.00    +0.000 A 
ATOM     19  C   UNL     1       5.571   5.761  15.213  0.00  0.00    +0.000 A 
ATOM     20  C   UNL     1       4.989   6.059  16.445  0.00  0.00    +0.000 A 
ATOM     21  C   UNL     1       4.656   5.054  17.357  0.00  0.00    +0.000 A 
ATOM     22  C   UNL     1       4.988   3.732  17.016  0.00  0.00    +0.000 A 
ATOM     23  C   UNL     1       5.585   3.432  15.778  0.00  0.00    +0.000 A 
BRANCH  18  25
ATOM     24  C   UNL     1       7.518   5.097  13.294  0.00  0.00    +0.000 C 
ATOM     25  O   UNL     1       6.385   4.302  13.613  0.00  0.00    +0.000 OA
ENDBRANCH  18  25
ENDBRANCH  14  21
ENDBRANCH   1  15
BRANCH   1  26
ATOM     26  C   UNL     1       2.136   4.250  21.161  0.00  0.00    +0.000 C 
ATOM     27  N   UNL     1       2.167   3.290  21.977  0.00  0.00    +0.000 NA
ENDBRANCH   1  26
TORSDOF 6
ENDMDL
MODEL 9
REMARK VINA RESULT:      -6.4      2.441      3.199
REMARK  Name = 
REMARK  7 active torsions:
REMARK  status: ('A' for Active; 'I' for Inactive)
REMARK    1  A    between atoms: C_1  and  O_2
REMARK    2  A    between atoms: O_2  and  C_3
REMARK    3  A    between atoms: C_6  and  N_7
REMARK    4  A    between atoms: C_8  and  C_10
REMARK    5  A    between atoms: C_10  and  C_11
REMARK    6  A    between atoms: C_13  and  C_14
REMARK    7  A    between atoms: C_17  and  N_18
REMARK                            x       y       z     vdW  Elec       q    Type
REMARK                         _______ _______ _______ _____ _____    ______ ____
ROOT
ATOM      1  C   UNL     1       3.525   4.106  19.648  0.00  0.00    +0.000 C 
ATOM      2  C   UNL     1       4.565   3.695  18.894  0.00  0.00    +0.000 C 
ENDROOT
BRANCH   2   3
ATOM      3  C   UNL     1       5.067   4.425  17.773  0.00  0.00    +0.000 A 
ATOM      4  C   UNL     1       5.193   5.799  17.608  0.00  0.00    +0.000 A 
ATOM      5  C   UNL     1       5.749   6.032  16.325  0.00  0.00    +0.000 A 
ATOM      6  C   UNL     1       5.950   4.799  15.748  0.00  0.00    +0.000 A 
ATOM      7  O   UNL     1       5.507   3.834  16.605  0.00  0.00    +0.000 OA
BRANCH   6   8
ATOM      8  N   UNL     1       6.495   4.412  14.569  0.00  0.00    +0.000 N 
ATOM      9  C   UNL     1       7.726   5.009  14.040  0.00  0.00    +0.000 C 
ATOM     10  C   UNL     1       7.573   5.272  12.531  0.00  0.00    +0.000 C 
ATOM     11  O   UNL     1       7.168   4.089  11.817  0.00  0.00    +0.000 OA
ATOM     12  C   UNL     1       5.909   3.617  12.323  0.00  0.00    +0.000 C 
ATOM     13  C   UNL     1       6.009   3.254  13.814  0.00  0.00    +0.000 C 
ENDBRANCH   6   8
ENDBRANCH   2   3
BRANCH   1  15
ATOM     14  N   UNL     1       2.841   6.471  19.828  0.00  0.00    +0.000 N 
ATOM     15  C   UNL     1       2.629   5.237  19.221  0.00  0.00    +0.000 C 
ATOM     16  O   UNL     1       1.743   4.997  18.407  0.00  0.00    +0.000 OA
ATOM     17  H   UNL     1       3.603   6.572  20.491  0.00  0.00    +0.000 HD
BRANCH  14  21
ATOM     18  C   UNL     1       0.749  10.094  19.046  0.00  0.00    +0.000 A 
ATOM     19  C   UNL     1       1.506   9.495  18.047  0.00  0.00    +0.000 A 
ATOM     20  C   UNL     1       2.164   8.288  18.278  0.00  0.00    +0.000 A 
ATOM     21  C   UNL     1       2.116   7.656  19.524  0.00  0.00    +0.000 A 
ATOM     22  C   UNL     1       1.326   8.250  20.522  0.00  0.00    +0.000 A 
ATOM     23  C   UNL     1       0.652   9.463  20.287  0.00  0.00    +0.000 A 
BRANCH  18  25
ATOM     24  C   UNL     1      -0.056  12.204  19.759  0.00  0.00    +0.000 C 
ATOM     25  O   UNL     1       0.208  11.297  18.698  0.00  0.00    +0.000 OA
ENDBRANCH  18  25
ENDBRANCH  14  21
ENDBRANCH   1  15
BRANCH   1  26
ATOM     26  C   UNL     1       3.052   3.278  20.832  0.00  0.00    +0.000 C 
ATOM     27  N   UNL     1       2.660   2.593  21.815  0.00  0.00    +0.000 NA
ENDBRANCH   1  26
TORSDOF 6
ENDMDL
