MODEL 1
REMARK VINA RESULT:      -7.5      0.000      0.000
REMARK  Name = 
REMARK  15 active torsions:
REMARK  status: ('A' for Active; 'I' for Inactive)
REMARK    1  A    between atoms: C_1  and  C_2
REMARK    2  A    between atoms: C_2  and  C_3
REMARK    3  A    between atoms: N_5  and  C_6
REMARK    4  A    between atoms: C_10  and  C_11
REMARK    5  A    between atoms: N_13  and  C_14
REMARK    6  A    between atoms: C_14  and  C_15
REMARK    7  A    between atoms: N_17  and  C_18
REMARK    8  A    between atoms: C_18  and  C_19
REMARK    9  A    between atoms: C_19  and  O_20
REMARK   10  A    between atoms: O_20  and  C_21
REMARK   11  A    between atoms: C_23  and  C_24
REMARK   12  A    between atoms: C_24  and  O_25
REMARK   13  A    between atoms: C_26  and  O_27
REMARK   14  A    between atoms: C_28  and  O_29
REMARK   15  A    between atoms: C_30  and  O_31
REMARK                            x       y       z     vdW  Elec       q    Type
REMARK                         _______ _______ _______ _____ _____    ______ ____
ROOT
ATOM      1  C   UNL     1       1.883   8.584  18.993  0.00  0.00    +0.000 A 
ATOM      2  C   UNL     1       2.264   7.433  18.337  0.00  0.00    +0.000 A 
ATOM      3  N   UNL     1       2.095   6.451  19.265  0.00  0.00    +0.000 N 
ATOM      4  N   UNL     1       1.745   6.973  20.457  0.00  0.00    +0.000 NA
ATOM      5  N   UNL     1       1.586   8.279  20.295  0.00  0.00    +0.000 NA
ENDROOT
BRANCH   1   6
ATOM      6  C   UNL     1       1.739   9.964  18.472  0.00  0.00    +0.000 C 
BRANCH   6   9
ATOM      7  C   UNL     1      -0.647  10.602  18.421  0.00  0.00    +0.000 C 
ATOM      8  O   UNL     1      -0.654  11.001  19.583  0.00  0.00    +0.000 OA
ATOM      9  N   UNL     1       0.462  10.078  17.797  0.00  0.00    +0.000 N 
ATOM     10  H   UNL     1       0.485  10.039  16.787  0.00  0.00    +0.000 HD
BRANCH   7  15
ATOM     11  C   UNL     1      -4.140  11.530  17.273  0.00  0.00    +0.000 A 
ATOM     12  C   UNL     1      -4.251  10.735  16.131  0.00  0.00    +0.000 A 
ATOM     13  C   UNL     1      -3.212   9.895  15.733  0.00  0.00    +0.000 A 
ATOM     14  C   UNL     1      -2.035   9.852  16.471  0.00  0.00    +0.000 A 
ATOM     15  C   UNL     1      -1.888  10.673  17.595  0.00  0.00    +0.000 A 
ATOM     16  C   UNL     1      -2.942  11.512  17.996  0.00  0.00    +0.000 A 
BRANCH  11  19
ATOM     17  C   UNL     1      -6.449  11.923  18.136  0.00  0.00    +0.000 C 
ATOM     18  O   UNL     1      -6.791  10.749  18.255  0.00  0.00    +0.000 OA
ATOM     19  N   UNL     1      -5.195  12.362  17.723  0.00  0.00    +0.000 N 
ATOM     20  H   UNL     1      -4.977  13.342  17.866  0.00  0.00    +0.000 HD
BRANCH  17  22
ATOM     21  C   UNL     1      -6.653  14.336  18.786  0.00  0.00    +0.000 C 
ATOM     22  C   UNL     1      -7.407  13.054  18.446  0.00  0.00    +0.000 C 
ENDBRANCH  17  22
ENDBRANCH  11  19
ENDBRANCH   7  15
ENDBRANCH   6   9
ENDBRANCH   1   6
BRANCH   3  23
ATOM     23  C   UNL     1       2.307   5.024  19.150  0.00  0.00    +0.000 C 
BRANCH  23  24
ATOM     24  C   UNL     1       3.631   4.501  19.727  0.00  0.00    +0.000 C 
BRANCH  24  25
ATOM     25  O   UNL     1       4.406   3.584  18.953  0.00  0.00    +0.000 OA
BRANCH  25  26
ATOM     26  C   UNL     1       5.445   4.115  18.148  0.00  0.00    +0.000 C 
ATOM     27  O   UNL     1       6.119   5.117  18.920  0.00  0.00    +0.000 OA
ATOM     28  C   UNL     1       7.414   5.397  18.361  0.00  0.00    +0.000 C 
ATOM     29  C   UNL     1       7.218   6.082  16.992  0.00  0.00    +0.000 C 
ATOM     30  C   UNL     1       6.311   5.217  16.094  0.00  0.00    +0.000 C 
ATOM     31  C   UNL     1       5.026   4.740  16.805  0.00  0.00    +0.000 C 
BRANCH  29  32
ATOM     32  O   UNL     1       6.592   7.371  17.055  0.00  0.00    +0.000 OA
ATOM     33  H   UNL     1       7.091   7.916  17.692  0.00  0.00    +0.000 HD
ENDBRANCH  29  32
BRANCH  30  34
ATOM     34  O   UNL     1       5.941   5.935  14.906  0.00  0.00    +0.000 OA
ATOM     35  H   UNL     1       5.818   5.252  14.212  0.00  0.00    +0.000 HD
ENDBRANCH  30  34
BRANCH  31  36
ATOM     36  O   UNL     1       4.372   3.793  15.947  0.00  0.00    +0.000 OA
ATOM     37  H   UNL     1       3.747   3.308  16.526  0.00  0.00    +0.000 HD
ENDBRANCH  31  36
BRANCH  28  38
ATOM     38  C   UNL     1       8.199   6.176  19.418  0.00  0.00    +0.000 C 
BRANCH  38  39
ATOM     39  O   UNL     1       8.597   7.460  18.957  0.00  0.00    +0.000 OA
ATOM     40  H   UNL     1       8.034   7.663  18.189  0.00  0.00    +0.000 HD
ENDBRANCH  38  39
ENDBRANCH  28  38
ENDBRANCH  25  26
ENDBRANCH  24  25
ENDBRANCH  23  24
ENDBRANCH   3  23
TORSDOF 14
ENDMDL
MODEL 2
REMARK VINA RESULT:      -7.4      5.515      8.885
REMARK  Name = 
REMARK  15 active torsions:
REMARK  status: ('A' for Active; 'I' for Inactive)
REMARK    1  A    between atoms: C_1  and  C_2
REMARK    2  A    between atoms: C_2  and  C_3
REMARK    3  A    between atoms: N_5  and  C_6
REMARK    4  A    between atoms: C_10  and  C_11
REMARK    5  A    between atoms: N_13  and  C_14
REMARK    6  A    between atoms: C_14  and  C_15
REMARK    7  A    between atoms: N_17  and  C_18
REMARK    8  A    between atoms: C_18  and  C_19
REMARK    9  A    between atoms: C_19  and  O_20
REMARK   10  A    between atoms: O_20  and  C_21
REMARK   11  A    between atoms: C_23  and  C_24
REMARK   12  A    between atoms: C_24  and  O_25
REMARK   13  A    between atoms: C_26  and  O_27
REMARK   14  A    between atoms: C_28  and  O_29
REMARK   15  A    between atoms: C_30  and  O_31
REMARK                            x       y       z     vdW  Elec       q    Type
REMARK                         _______ _______ _______ _____ _____    ______ ____
ROOT
ATOM      1  C   UNL     1       7.363   7.082  17.669  0.00  0.00    +0.000 A 
ATOM      2  C   UNL     1       8.278   7.406  18.647  0.00  0.00    +0.000 A 
ATOM      3  N   UNL     1       8.392   8.759  18.559  0.00  0.00    +0.000 N 
ATOM      4  N   UNL     1       7.684   9.234  17.516  0.00  0.00    +0.000 NA
ATOM      5  N   UNL     1       7.027   8.216  16.978  0.00  0.00    +0.000 NA
ENDROOT
BRANCH   1   6
ATOM      6  C   UNL     1       6.742   5.774  17.354  0.00  0.00    +0.000 C 
BRANCH   6   9
ATOM      7  C   UNL     1       4.520   4.762  17.730  0.00  0.00    +0.000 C 
ATOM      8  O   UNL     1       4.602   4.011  16.761  0.00  0.00    +0.000 OA
ATOM      9  N   UNL     1       5.502   5.653  18.094  0.00  0.00    +0.000 N 
ATOM     10  H   UNL     1       5.506   6.024  19.035  0.00  0.00    +0.000 HD
BRANCH   7  15
ATOM     11  C   UNL     1       1.977   5.749  20.365  0.00  0.00    +0.000 A 
ATOM     12  C   UNL     1       1.107   4.659  20.299  0.00  0.00    +0.000 A 
ATOM     13  C   UNL     1       1.339   3.603  19.417  0.00  0.00    +0.000 A 
ATOM     14  C   UNL     1       2.444   3.635  18.575  0.00  0.00    +0.000 A 
ATOM     15  C   UNL     1       3.305   4.738  18.597  0.00  0.00    +0.000 A 
ATOM     16  C   UNL     1       3.070   5.796  19.492  0.00  0.00    +0.000 A 
BRANCH  11  19
ATOM     17  C   UNL     1       1.406   8.109  20.941  0.00  0.00    +0.000 C 
ATOM     18  O   UNL     1       1.091   8.490  19.815  0.00  0.00    +0.000 OA
ATOM     19  N   UNL     1       1.788   6.815  21.279  0.00  0.00    +0.000 N 
ATOM     20  H   UNL     1       1.820   6.584  22.265  0.00  0.00    +0.000 HD
BRANCH  17  22
ATOM     21  C   UNL     1      -0.013   9.314  22.619  0.00  0.00    +0.000 C 
ATOM     22  C   UNL     1       1.405   9.060  22.119  0.00  0.00    +0.000 C 
ENDBRANCH  17  22
ENDBRANCH  11  19
ENDBRANCH   7  15
ENDBRANCH   6   9
ENDBRANCH   1   6
BRANCH   3  23
ATOM     23  C   UNL     1       9.189   9.675  19.349  0.00  0.00    +0.000 C 
BRANCH  23  24
ATOM     24  C   UNL     1       9.697  10.921  18.610  0.00  0.00    +0.000 C 
BRANCH  24  25
ATOM     25  O   UNL     1      10.872  11.577  19.089  0.00  0.00    +0.000 OA
BRANCH  25  26
ATOM     26  C   UNL     1      11.029  12.952  18.783  0.00  0.00    +0.000 C 
ATOM     27  O   UNL     1       9.993  13.667  19.468  0.00  0.00    +0.000 OA
ATOM     28  C   UNL     1      10.322  15.064  19.562  0.00  0.00    +0.000 C 
ATOM     29  C   UNL     1      10.287  15.671  18.143  0.00  0.00    +0.000 C 
ATOM     30  C   UNL     1      11.202  14.863  17.201  0.00  0.00    +0.000 C 
ATOM     31  C   UNL     1      10.979  13.339  17.293  0.00  0.00    +0.000 C 
BRANCH  29  32
ATOM     32  O   UNL     1       8.993  15.670  17.526  0.00  0.00    +0.000 OA
ATOM     33  H   UNL     1       8.887  14.825  17.051  0.00  0.00    +0.000 HD
ENDBRANCH  29  32
BRANCH  30  34
ATOM     34  O   UNL     1      11.016  15.275  15.838  0.00  0.00    +0.000 OA
ATOM     35  H   UNL     1      10.327  15.974  15.865  0.00  0.00    +0.000 HD
ENDBRANCH  30  34
BRANCH  31  36
ATOM     36  O   UNL     1      12.010  12.693  16.531  0.00  0.00    +0.000 OA
ATOM     37  H   UNL     1      12.845  13.129  16.805  0.00  0.00    +0.000 HD
ENDBRANCH  31  36
BRANCH  28  38
ATOM     38  C   UNL     1       9.379  15.678  20.600  0.00  0.00    +0.000 C 
BRANCH  38  39
ATOM     39  O   UNL     1       8.012  15.510  20.252  0.00  0.00    +0.000 OA
ATOM     40  H   UNL     1       7.813  14.564  20.365  0.00  0.00    +0.000 HD
ENDBRANCH  38  39
ENDBRANCH  28  38
ENDBRANCH  25  26
ENDBRANCH  24  25
ENDBRANCH  23  24
ENDBRANCH   3  23
TORSDOF 14
ENDMDL
MODEL 3
REMARK VINA RESULT:      -7.4      2.023      3.524
REMARK  Name = 
REMARK  15 active torsions:
REMARK  status: ('A' for Active; 'I' for Inactive)
REMARK    1  A    between atoms: C_1  and  C_2
REMARK    2  A    between atoms: C_2  and  C_3
REMARK    3  A    between atoms: N_5  and  C_6
REMARK    4  A    between atoms: C_10  and  C_11
REMARK    5  A    between atoms: N_13  and  C_14
REMARK    6  A    between atoms: C_14  and  C_15
REMARK    7  A    between atoms: N_17  and  C_18
REMARK    8  A    between atoms: C_18  and  C_19
REMARK    9  A    between atoms: C_19  and  O_20
REMARK   10  A    between atoms: O_20  and  C_21
REMARK   11  A    between atoms: C_23  and  C_24
REMARK   12  A    between atoms: C_24  and  O_25
REMARK   13  A    between atoms: C_26  and  O_27
REMARK   14  A    between atoms: C_28  and  O_29
REMARK   15  A    between atoms: C_30  and  O_31
REMARK                            x       y       z     vdW  Elec       q    Type
REMARK                         _______ _______ _______ _____ _____    ______ ____
ROOT
ATOM      1  C   UNL     1       1.691   7.471  20.620  0.00  0.00    +0.000 A 
ATOM      2  C   UNL     1       1.349   6.136  20.633  0.00  0.00    +0.000 A 
ATOM      3  N   UNL     1       1.886   5.644  19.483  0.00  0.00    +0.000 N 
ATOM      4  N   UNL     1       2.426   6.634  18.745  0.00  0.00    +0.000 NA
ATOM      5  N   UNL     1       2.335   7.755  19.445  0.00  0.00    +0.000 NA
ENDROOT
BRANCH   1   6
ATOM      6  C   UNL     1       1.489   8.507  21.661  0.00  0.00    +0.000 C 
BRANCH   6   9
ATOM      7  C   UNL     1       0.375  10.673  21.247  0.00  0.00    +0.000 C 
ATOM      8  O   UNL     1       1.383  11.334  21.482  0.00  0.00    +0.000 OA
ATOM      9  N   UNL     1       0.327   9.300  21.313  0.00  0.00    +0.000 N 
ATOM     10  H   UNL     1      -0.422   8.810  20.841  0.00  0.00    +0.000 HD
BRANCH   7  15
ATOM     11  C   UNL     1      -2.489  11.982  19.134  0.00  0.00    +0.000 A 
ATOM     12  C   UNL     1      -3.202  12.705  20.093  0.00  0.00    +0.000 A 
ATOM     13  C   UNL     1      -2.761  12.780  21.414  0.00  0.00    +0.000 A 
ATOM     14  C   UNL     1      -1.602  12.116  21.796  0.00  0.00    +0.000 A 
ATOM     15  C   UNL     1      -0.896  11.353  20.859  0.00  0.00    +0.000 A 
ATOM     16  C   UNL     1      -1.341  11.286  19.528  0.00  0.00    +0.000 A 
BRANCH  11  19
ATOM     17  C   UNL     1      -3.784  10.999  17.241  0.00  0.00    +0.000 C 
ATOM     18  O   UNL     1      -4.419  10.164  17.880  0.00  0.00    +0.000 OA
ATOM     19  N   UNL     1      -2.891  11.921  17.777  0.00  0.00    +0.000 N 
ATOM     20  H   UNL     1      -2.595  12.683  17.177  0.00  0.00    +0.000 HD
BRANCH  17  22
ATOM     21  C   UNL     1      -2.901  10.227  15.025  0.00  0.00    +0.000 C 
ATOM     22  C   UNL     1      -3.923  11.107  15.736  0.00  0.00    +0.000 C 
ENDBRANCH  17  22
ENDBRANCH  11  19
ENDBRANCH   7  15
ENDBRANCH   6   9
ENDBRANCH   1   6
BRANCH   3  23
ATOM     23  C   UNL     1       1.878   4.294  18.961  0.00  0.00    +0.000 C 
BRANCH  23  24
ATOM     24  C   UNL     1       3.044   3.401  19.411  0.00  0.00    +0.000 C 
BRANCH  24  25
ATOM     25  O   UNL     1       4.044   3.039  18.459  0.00  0.00    +0.000 OA
BRANCH  25  26
ATOM     26  C   UNL     1       4.676   4.084  17.738  0.00  0.00    +0.000 C 
ATOM     27  O   UNL     1       5.176   3.524  16.518  0.00  0.00    +0.000 OA
ATOM     28  C   UNL     1       5.443   4.563  15.559  0.00  0.00    +0.000 C 
ATOM     29  C   UNL     1       6.631   5.406  16.070  0.00  0.00    +0.000 C 
ATOM     30  C   UNL     1       6.341   5.915  17.497  0.00  0.00    +0.000 C 
ATOM     31  C   UNL     1       5.834   4.810  18.447  0.00  0.00    +0.000 C 
BRANCH  29  32
ATOM     32  O   UNL     1       7.874   4.696  16.153  0.00  0.00    +0.000 OA
ATOM     33  H   UNL     1       8.490   5.093  15.510  0.00  0.00    +0.000 HD
ENDBRANCH  29  32
BRANCH  30  34
ATOM     34  O   UNL     1       7.515   6.513  18.069  0.00  0.00    +0.000 OA
ATOM     35  H   UNL     1       8.156   5.778  18.184  0.00  0.00    +0.000 HD
ENDBRANCH  30  34
BRANCH  31  36
ATOM     36  O   UNL     1       5.415   5.435  19.669  0.00  0.00    +0.000 OA
ATOM     37  H   UNL     1       6.123   6.077  19.887  0.00  0.00    +0.000 HD
ENDBRANCH  31  36
BRANCH  28  38
ATOM     38  C   UNL     1       5.612   3.883  14.198  0.00  0.00    +0.000 C 
BRANCH  38  39
ATOM     39  O   UNL     1       6.755   4.355  13.499  0.00  0.00    +0.000 OA
ATOM     40  H   UNL     1       7.189   5.001  14.084  0.00  0.00    +0.000 HD
ENDBRANCH  38  39
ENDBRANCH  28  38
ENDBRANCH  25  26
ENDBRANCH  24  25
ENDBRANCH  23  24
ENDBRANCH   3  23
TORSDOF 14
ENDMDL
MODEL 4
REMARK VINA RESULT:      -7.4      2.363      3.743
REMARK  Name = 
REMARK  15 active torsions:
REMARK  status: ('A' for Active; 'I' for Inactive)
REMARK    1  A    between atoms: C_1  and  C_2
REMARK    2  A    between atoms: C_2  and  C_3
REMARK    3  A    between atoms: N_5  and  C_6
REMARK    4  A    between atoms: C_10  and  C_11
REMARK    5  A    between atoms: N_13  and  C_14
REMARK    6  A    between atoms: C_14  and  C_15
REMARK    7  A    between atoms: N_17  and  C_18
REMARK    8  A    between atoms: C_18  and  C_19
REMARK    9  A    between atoms: C_19  and  O_20
REMARK   10  A    between atoms: O_20  and  C_21
REMARK   11  A    between atoms: C_23  and  C_24
REMARK   12  A    between atoms: C_24  and  O_25
REMARK   13  A    between atoms: C_26  and  O_27
REMARK   14  A    between atoms: C_28  and  O_29
REMARK   15  A    between atoms: C_30  and  O_31
REMARK                            x       y       z     vdW  Elec       q    Type
REMARK                         _______ _______ _______ _____ _____    ______ ____
ROOT
ATOM      1  C   UNL     1       1.859   6.155  20.325  0.00  0.00    +0.000 A 
ATOM      2  C   UNL     1       1.727   5.912  18.974  0.00  0.00    +0.000 A 
ATOM      3  N   UNL     1       1.404   4.592  18.904  0.00  0.00    +0.000 N 
ATOM      4  N   UNL     1       1.448   4.022  20.125  0.00  0.00    +0.000 NA
ATOM      5  N   UNL     1       1.701   4.978  21.008  0.00  0.00    +0.000 NA
ENDROOT
BRANCH   1   6
ATOM      6  C   UNL     1       2.089   7.435  21.035  0.00  0.00    +0.000 C 
BRANCH   6   9
ATOM      7  C   UNL     1       0.904   9.588  21.284  0.00  0.00    +0.000 C 
ATOM      8  O   UNL     1       1.616   9.972  22.208  0.00  0.00    +0.000 OA
ATOM      9  N   UNL     1       1.052   8.374  20.655  0.00  0.00    +0.000 N 
ATOM     10  H   UNL     1       0.641   8.239  19.741  0.00  0.00    +0.000 HD
BRANCH   7  15
ATOM     11  C   UNL     1      -1.468  11.339  18.897  0.00  0.00    +0.000 A 
ATOM     12  C   UNL     1      -2.170  12.152  19.789  0.00  0.00    +0.000 A 
ATOM     13  C   UNL     1      -1.879  12.147  21.153  0.00  0.00    +0.000 A 
ATOM     14  C   UNL     1      -0.884  11.311  21.645  0.00  0.00    +0.000 A 
ATOM     15  C   UNL     1      -0.197  10.457  20.774  0.00  0.00    +0.000 A 
ATOM     16  C   UNL     1      -0.490  10.472  19.399  0.00  0.00    +0.000 A 
BRANCH  11  19
ATOM     17  C   UNL     1      -2.789  10.736  16.867  0.00  0.00    +0.000 C 
ATOM     18  O   UNL     1      -3.723  10.169  17.430  0.00  0.00    +0.000 OA
ATOM     19  N   UNL     1      -1.715  11.352  17.503  0.00  0.00    +0.000 N 
ATOM     20  H   UNL     1      -1.129  11.957  16.939  0.00  0.00    +0.000 HD
BRANCH  17  22
ATOM     21  C   UNL     1      -3.712   9.865  14.706  0.00  0.00    +0.000 C 
ATOM     22  C   UNL     1      -2.719  10.822  15.357  0.00  0.00    +0.000 C 
ENDBRANCH  17  22
ENDBRANCH  11  19
ENDBRANCH   7  15
ENDBRANCH   6   9
ENDBRANCH   1   6
BRANCH   3  23
ATOM     23  C   UNL     1       1.115   3.769  17.749  0.00  0.00    +0.000 C 
BRANCH  23  24
ATOM     24  C   UNL     1       2.318   3.435  16.854  0.00  0.00    +0.000 C 
BRANCH  24  25
ATOM     25  O   UNL     1       3.562   3.097  17.468  0.00  0.00    +0.000 OA
BRANCH  25  26
ATOM     26  C   UNL     1       4.582   4.081  17.476  0.00  0.00    +0.000 C 
ATOM     27  O   UNL     1       5.434   3.825  16.352  0.00  0.00    +0.000 OA
ATOM     28  C   UNL     1       6.220   4.990  16.041  0.00  0.00    +0.000 C 
ATOM     29  C   UNL     1       7.220   5.227  17.193  0.00  0.00    +0.000 C 
ATOM     30  C   UNL     1       6.469   5.306  18.536  0.00  0.00    +0.000 C 
ATOM     31  C   UNL     1       5.459   4.156  18.739  0.00  0.00    +0.000 C 
BRANCH  29  32
ATOM     32  O   UNL     1       8.200   4.192  17.353  0.00  0.00    +0.000 OA
ATOM     33  H   UNL     1       7.772   3.441  17.804  0.00  0.00    +0.000 HD
ENDBRANCH  29  32
BRANCH  30  34
ATOM     34  O   UNL     1       7.394   5.307  19.635  0.00  0.00    +0.000 OA
ATOM     35  H   UNL     1       7.554   4.361  19.846  0.00  0.00    +0.000 HD
ENDBRANCH  30  34
BRANCH  31  36
ATOM     36  O   UNL     1       4.690   4.445  19.916  0.00  0.00    +0.000 OA
ATOM     37  H   UNL     1       4.205   5.272  19.711  0.00  0.00    +0.000 HD
ENDBRANCH  31  36
BRANCH  28  38
ATOM     38  C   UNL     1       6.810   4.772  14.646  0.00  0.00    +0.000 C 
BRANCH  38  39
ATOM     39  O   UNL     1       7.997   5.525  14.439  0.00  0.00    +0.000 OA
ATOM     40  H   UNL     1       8.000   6.225  15.116  0.00  0.00    +0.000 HD
ENDBRANCH  38  39
ENDBRANCH  28  38
ENDBRANCH  25  26
ENDBRANCH  24  25
ENDBRANCH  23  24
ENDBRANCH   3  23
TORSDOF 14
ENDMDL
MODEL 5
REMARK VINA RESULT:      -7.4      3.762      5.147
REMARK  Name = 
REMARK  15 active torsions:
REMARK  status: ('A' for Active; 'I' for Inactive)
REMARK    1  A    between atoms: C_1  and  C_2
REMARK    2  A    between atoms: C_2  and  C_3
REMARK    3  A    between atoms: N_5  and  C_6
REMARK    4  A    between atoms: C_10  and  C_11
REMARK    5  A    between atoms: N_13  and  C_14
REMARK    6  A    between atoms: C_14  and  C_15
REMARK    7  A    between atoms: N_17  and  C_18
REMARK    8  A    between atoms: C_18  and  C_19
REMARK    9  A    between atoms: C_19  and  O_20
REMARK   10  A    between atoms: O_20  and  C_21
REMARK   11  A    between atoms: C_23  and  C_24
REMARK   12  A    between atoms: C_24  and  O_25
REMARK   13  A    between atoms: C_26  and  O_27
REMARK   14  A    between atoms: C_28  and  O_29
REMARK   15  A    between atoms: C_30  and  O_31
REMARK                            x       y       z     vdW  Elec       q    Type
REMARK                         _______ _______ _______ _____ _____    ______ ____
ROOT
ATOM      1  C   UNL     1       1.375   8.600  20.077  0.00  0.00    +0.000 A 
ATOM      2  C   UNL     1       2.210   7.649  19.530  0.00  0.00    +0.000 A 
ATOM      3  N   UNL     1       2.465   8.112  18.276  0.00  0.00    +0.000 N 
ATOM      4  N   UNL     1       1.742   9.220  18.018  0.00  0.00    +0.000 NA
ATOM      5  N   UNL     1       1.089   9.543  19.125  0.00  0.00    +0.000 NA
ENDROOT
BRANCH   1   6
ATOM      6  C   UNL     1       0.849   8.712  21.457  0.00  0.00    +0.000 C 
BRANCH   6   9
ATOM      7  C   UNL     1      -0.287  10.447  22.800  0.00  0.00    +0.000 C 
ATOM      8  O   UNL     1      -0.077   9.879  23.869  0.00  0.00    +0.000 OA
ATOM      9  N   UNL     1       0.118   9.958  21.580  0.00  0.00    +0.000 N 
ATOM     10  H   UNL     1       0.174  10.588  20.791  0.00  0.00    +0.000 HD
BRANCH   7  15
ATOM     11  C   UNL     1      -3.044  13.022  23.192  0.00  0.00    +0.000 A 
ATOM     12  C   UNL     1      -2.428  14.140  22.628  0.00  0.00    +0.000 A 
ATOM     13  C   UNL     1      -1.133  14.069  22.115  0.00  0.00    +0.000 A 
ATOM     14  C   UNL     1      -0.430  12.872  22.173  0.00  0.00    +0.000 A 
ATOM     15  C   UNL     1      -1.015  11.749  22.772  0.00  0.00    +0.000 A 
ATOM     16  C   UNL     1      -2.322  11.825  23.282  0.00  0.00    +0.000 A 
BRANCH  11  19
ATOM     17  C   UNL     1      -5.511  12.730  22.955  0.00  0.00    +0.000 C 
ATOM     18  O   UNL     1      -5.524  12.283  21.810  0.00  0.00    +0.000 OA
ATOM     19  N   UNL     1      -4.372  13.055  23.684  0.00  0.00    +0.000 N 
ATOM     20  H   UNL     1      -4.488  13.214  24.679  0.00  0.00    +0.000 HD
BRANCH  17  22
ATOM     21  C   UNL     1      -7.916  12.068  23.214  0.00  0.00    +0.000 C 
ATOM     22  C   UNL     1      -6.798  12.978  23.714  0.00  0.00    +0.000 C 
ENDBRANCH  17  22
ENDBRANCH  11  19
ENDBRANCH   7  15
ENDBRANCH   6   9
ENDBRANCH   1   6
BRANCH   3  23
ATOM     23  C   UNL     1       3.302   7.554  17.235  0.00  0.00    +0.000 C 
BRANCH  23  24
ATOM     24  C   UNL     1       4.284   6.463  17.686  0.00  0.00    +0.000 C 
BRANCH  24  25
ATOM     25  O   UNL     1       4.295   5.214  16.994  0.00  0.00    +0.000 OA
BRANCH  25  26
ATOM     26  C   UNL     1       3.995   4.046  17.738  0.00  0.00    +0.000 C 
ATOM     27  O   UNL     1       2.623   4.134  18.143  0.00  0.00    +0.000 OA
ATOM     28  C   UNL     1       2.126   2.838  18.521  0.00  0.00    +0.000 C 
ATOM     29  C   UNL     1       2.845   2.396  19.814  0.00  0.00    +0.000 C 
ATOM     30  C   UNL     1       4.372   2.458  19.615  0.00  0.00    +0.000 C 
ATOM     31  C   UNL     1       4.853   3.785  18.990  0.00  0.00    +0.000 C 
BRANCH  29  32
ATOM     32  O   UNL     1       2.566   3.212  20.959  0.00  0.00    +0.000 OA
ATOM     33  H   UNL     1       3.246   3.026  21.633  0.00  0.00    +0.000 HD
ENDBRANCH  29  32
BRANCH  30  34
ATOM     34  O   UNL     1       5.054   2.262  20.863  0.00  0.00    +0.000 OA
ATOM     35  H   UNL     1       5.860   1.746  20.646  0.00  0.00    +0.000 HD
ENDBRANCH  30  34
BRANCH  31  36
ATOM     36  O   UNL     1       6.246   3.646  18.674  0.00  0.00    +0.000 OA
ATOM     37  H   UNL     1       6.480   4.457  18.175  0.00  0.00    +0.000 HD
ENDBRANCH  31  36
BRANCH  28  38
ATOM     38  C   UNL     1       0.600   2.945  18.581  0.00  0.00    +0.000 C 
BRANCH  38  39
ATOM     39  O   UNL     1       0.079   2.532  19.836  0.00  0.00    +0.000 OA
ATOM     40  H   UNL     1       0.827   2.537  20.460  0.00  0.00    +0.000 HD
ENDBRANCH  38  39
ENDBRANCH  28  38
ENDBRANCH  25  26
ENDBRANCH  24  25
ENDBRANCH  23  24
ENDBRANCH   3  23
TORSDOF 14
ENDMDL
MODEL 6
REMARK VINA RESULT:      -7.3      2.945      4.475
REMARK  Name = 
REMARK  15 active torsions:
REMARK  status: ('A' for Active; 'I' for Inactive)
REMARK    1  A    between atoms: C_1  and  C_2
REMARK    2  A    between atoms: C_2  and  C_3
REMARK    3  A    between atoms: N_5  and  C_6
REMARK    4  A    between atoms: C_10  and  C_11
REMARK    5  A    between atoms: N_13  and  C_14
REMARK    6  A    between atoms: C_14  and  C_15
REMARK    7  A    between atoms: N_17  and  C_18
REMARK    8  A    between atoms: C_18  and  C_19
REMARK    9  A    between atoms: C_19  and  O_20
REMARK   10  A    between atoms: O_20  and  C_21
REMARK   11  A    between atoms: C_23  and  C_24
REMARK   12  A    between atoms: C_24  and  O_25
REMARK   13  A    between atoms: C_26  and  O_27
REMARK   14  A    between atoms: C_28  and  O_29
REMARK   15  A    between atoms: C_30  and  O_31
REMARK                            x       y       z     vdW  Elec       q    Type
REMARK                         _______ _______ _______ _____ _____    ______ ____
ROOT
ATOM      1  C   UNL     1       1.944   6.477  20.274  0.00  0.00    +0.000 A 
ATOM      2  C   UNL     1       2.044   6.307  18.910  0.00  0.00    +0.000 A 
ATOM      3  N   UNL     1       1.830   4.976  18.724  0.00  0.00    +0.000 N 
ATOM      4  N   UNL     1       1.721   4.339  19.907  0.00  0.00    +0.000 NA
ATOM      5  N   UNL     1       1.763   5.254  20.865  0.00  0.00    +0.000 NA
ENDROOT
BRANCH   1   6
ATOM      6  C   UNL     1       1.969   7.724  21.074  0.00  0.00    +0.000 C 
BRANCH   6   9
ATOM      7  C   UNL     1       0.210   9.390  20.592  0.00  0.00    +0.000 C 
ATOM      8  O   UNL     1      -0.489   9.057  21.546  0.00  0.00    +0.000 OA
ATOM      9  N   UNL     1       1.412   8.801  20.280  0.00  0.00    +0.000 N 
ATOM     10  H   UNL     1       2.060   9.293  19.679  0.00  0.00    +0.000 HD
BRANCH   7  15
ATOM     11  C   UNL     1      -0.011  12.807  18.959  0.00  0.00    +0.000 A 
ATOM     12  C   UNL     1      -1.097  12.609  18.105  0.00  0.00    +0.000 A 
ATOM     13  C   UNL     1      -1.765  11.386  18.057  0.00  0.00    +0.000 A 
ATOM     14  C   UNL     1      -1.340  10.334  18.860  0.00  0.00    +0.000 A 
ATOM     15  C   UNL     1      -0.227  10.499  19.693  0.00  0.00    +0.000 A 
ATOM     16  C   UNL     1       0.437  11.736  19.742  0.00  0.00    +0.000 A 
BRANCH  11  19
ATOM     17  C   UNL     1       1.949  14.310  18.602  0.00  0.00    +0.000 C 
ATOM     18  O   UNL     1       2.655  13.527  17.969  0.00  0.00    +0.000 OA
ATOM     19  N   UNL     1       0.661  14.050  19.058  0.00  0.00    +0.000 N 
ATOM     20  H   UNL     1       0.115  14.842  19.380  0.00  0.00    +0.000 HD
BRANCH  17  22
ATOM     21  C   UNL     1       1.531  16.357  19.988  0.00  0.00    +0.000 C 
ATOM     22  C   UNL     1       2.441  15.697  18.957  0.00  0.00    +0.000 C 
ENDBRANCH  17  22
ENDBRANCH  11  19
ENDBRANCH   7  15
ENDBRANCH   6   9
ENDBRANCH   1   6
BRANCH   3  23
ATOM     23  C   UNL     1       1.785   4.207  17.498  0.00  0.00    +0.000 C 
BRANCH  23  24
ATOM     24  C   UNL     1       2.284   2.759  17.605  0.00  0.00    +0.000 C 
BRANCH  24  25
ATOM     25  O   UNL     1       3.686   2.503  17.513  0.00  0.00    +0.000 OA
BRANCH  25  26
ATOM     26  C   UNL     1       4.559   3.619  17.487  0.00  0.00    +0.000 C 
ATOM     27  O   UNL     1       5.438   3.452  16.367  0.00  0.00    +0.000 OA
ATOM     28  C   UNL     1       6.053   4.704  16.018  0.00  0.00    +0.000 C 
ATOM     29  C   UNL     1       7.011   5.113  17.158  0.00  0.00    +0.000 C 
ATOM     30  C   UNL     1       6.256   5.127  18.502  0.00  0.00    +0.000 C 
ATOM     31  C   UNL     1       5.417   3.854  18.744  0.00  0.00    +0.000 C 
BRANCH  29  32
ATOM     32  O   UNL     1       8.126   4.230  17.344  0.00  0.00    +0.000 OA
ATOM     33  H   UNL     1       7.777   3.329  17.474  0.00  0.00    +0.000 HD
ENDBRANCH  29  32
BRANCH  30  34
ATOM     34  O   UNL     1       7.173   5.290  19.596  0.00  0.00    +0.000 OA
ATOM     35  H   UNL     1       8.032   4.939  19.275  0.00  0.00    +0.000 HD
ENDBRANCH  30  34
BRANCH  31  36
ATOM     36  O   UNL     1       4.615   4.069  19.915  0.00  0.00    +0.000 OA
ATOM     37  H   UNL     1       3.832   4.568  19.604  0.00  0.00    +0.000 HD
ENDBRANCH  31  36
BRANCH  28  38
ATOM     38  C   UNL     1       6.668   4.529  14.628  0.00  0.00    +0.000 C 
BRANCH  38  39
ATOM     39  O   UNL     1       7.811   5.351  14.436  0.00  0.00    +0.000 OA
ATOM     40  H   UNL     1       8.492   5.022  15.048  0.00  0.00    +0.000 HD
ENDBRANCH  38  39
ENDBRANCH  28  38
ENDBRANCH  25  26
ENDBRANCH  24  25
ENDBRANCH  23  24
ENDBRANCH   3  23
TORSDOF 14
ENDMDL
MODEL 7
REMARK VINA RESULT:      -7.3      2.355     10.901
REMARK  Name = 
REMARK  15 active torsions:
REMARK  status: ('A' for Active; 'I' for Inactive)
REMARK    1  A    between atoms: C_1  and  C_2
REMARK    2  A    between atoms: C_2  and  C_3
REMARK    3  A    between atoms: N_5  and  C_6
REMARK    4  A    between atoms: C_10  and  C_11
REMARK    5  A    between atoms: N_13  and  C_14
REMARK    6  A    between atoms: C_14  and  C_15
REMARK    7  A    between atoms: N_17  and  C_18
REMARK    8  A    between atoms: C_18  and  C_19
REMARK    9  A    between atoms: C_19  and  O_20
REMARK   10  A    between atoms: O_20  and  C_21
REMARK   11  A    between atoms: C_23  and  C_24
REMARK   12  A    between atoms: C_24  and  O_25
REMARK   13  A    between atoms: C_26  and  O_27
REMARK   14  A    between atoms: C_28  and  O_29
REMARK   15  A    between atoms: C_30  and  O_31
REMARK                            x       y       z     vdW  Elec       q    Type
REMARK                         _______ _______ _______ _____ _____    ______ ____
ROOT
ATOM      1  C   UNL     1       1.584   7.802  20.538  0.00  0.00    +0.000 A 
ATOM      2  C   UNL     1       1.188   8.601  21.589  0.00  0.00    +0.000 A 
ATOM      3  N   UNL     1       0.886   9.792  21.005  0.00  0.00    +0.000 N 
ATOM      4  N   UNL     1       1.187   9.773  19.692  0.00  0.00    +0.000 NA
ATOM      5  N   UNL     1       1.592   8.547  19.389  0.00  0.00    +0.000 NA
ENDROOT
BRANCH   1   6
ATOM      6  C   UNL     1       1.925   6.360  20.525  0.00  0.00    +0.000 C 
BRANCH   6   9
ATOM      7  C   UNL     1       3.614   4.948  19.405  0.00  0.00    +0.000 C 
ATOM      8  O   UNL     1       2.983   3.908  19.574  0.00  0.00    +0.000 OA
ATOM      9  N   UNL     1       3.186   6.182  19.834  0.00  0.00    +0.000 N 
ATOM     10  H   UNL     1       3.591   7.014  19.424  0.00  0.00    +0.000 HD
BRANCH   7  15
ATOM     11  C   UNL     1       6.252   4.232  16.775  0.00  0.00    +0.000 A 
ATOM     12  C   UNL     1       7.381   4.768  17.396  0.00  0.00    +0.000 A 
ATOM     13  C   UNL     1       7.301   5.351  18.661  0.00  0.00    +0.000 A 
ATOM     14  C   UNL     1       6.077   5.417  19.316  0.00  0.00    +0.000 A 
ATOM     15  C   UNL     1       4.926   4.923  18.692  0.00  0.00    +0.000 A 
ATOM     16  C   UNL     1       5.014   4.331  17.421  0.00  0.00    +0.000 A 
BRANCH  11  19
ATOM     17  C   UNL     1       6.287   4.250  14.280  0.00  0.00    +0.000 C 
ATOM     18  O   UNL     1       6.302   5.468  14.115  0.00  0.00    +0.000 OA
ATOM     19  N   UNL     1       6.311   3.599  15.509  0.00  0.00    +0.000 N 
ATOM     20  H   UNL     1       6.505   2.604  15.503  0.00  0.00    +0.000 HD
BRANCH  17  22
ATOM     21  C   UNL     1       5.082   3.634  12.169  0.00  0.00    +0.000 C 
ATOM     22  C   UNL     1       6.242   3.300  13.101  0.00  0.00    +0.000 C 
ENDBRANCH  17  22
ENDBRANCH  11  19
ENDBRANCH   7  15
ENDBRANCH   6   9
ENDBRANCH   1   6
BRANCH   3  23
ATOM     23  C   UNL     1       0.388  11.015  21.600  0.00  0.00    +0.000 C 
BRANCH  23  24
ATOM     24  C   UNL     1      -1.098  11.316  21.354  0.00  0.00    +0.000 C 
BRANCH  24  25
ATOM     25  O   UNL     1      -1.455  12.515  20.667  0.00  0.00    +0.000 OA
BRANCH  25  26
ATOM     26  C   UNL     1      -2.160  12.390  19.444  0.00  0.00    +0.000 C 
ATOM     27  O   UNL     1      -3.485  11.939  19.755  0.00  0.00    +0.000 OA
ATOM     28  C   UNL     1      -4.373  12.189  18.652  0.00  0.00    +0.000 C 
ATOM     29  C   UNL     1      -3.961  11.278  17.475  0.00  0.00    +0.000 C 
ATOM     30  C   UNL     1      -2.468  11.482  17.149  0.00  0.00    +0.000 C 
ATOM     31  C   UNL     1      -1.559  11.435  18.395  0.00  0.00    +0.000 C 
BRANCH  29  32
ATOM     32  O   UNL     1      -4.119   9.875  17.725  0.00  0.00    +0.000 OA
ATOM     33  H   UNL     1      -4.774   9.769  18.439  0.00  0.00    +0.000 HD
ENDBRANCH  29  32
BRANCH  30  34
ATOM     34  O   UNL     1      -2.015  10.494  16.210  0.00  0.00    +0.000 OA
ATOM     35  H   UNL     1      -1.899  10.971  15.360  0.00  0.00    +0.000 HD
ENDBRANCH  30  34
BRANCH  31  36
ATOM     36  O   UNL     1      -0.239  11.832  17.995  0.00  0.00    +0.000 OA
ATOM     37  H   UNL     1       0.333  11.060  18.190  0.00  0.00    +0.000 HD
ENDBRANCH  31  36
BRANCH  28  38
ATOM     38  C   UNL     1      -5.800  12.030  19.182  0.00  0.00    +0.000 C 
BRANCH  38  39
ATOM     39  O   UNL     1      -6.217  10.672  19.211  0.00  0.00    +0.000 OA
ATOM     40  H   UNL     1      -6.298  10.429  20.151  0.00  0.00    +0.000 HD
ENDBRANCH  38  39
ENDBRANCH  28  38
ENDBRANCH  25  26
ENDBRANCH  24  25
ENDBRANCH  23  24
ENDBRANCH   3  23
TORSDOF 14
ENDMDL
MODEL 8
REMARK VINA RESULT:      -7.2      2.431     10.706
REMARK  Name = 
REMARK  15 active torsions:
REMARK  status: ('A' for Active; 'I' for Inactive)
REMARK    1  A    between atoms: C_1  and  C_2
REMARK    2  A    between atoms: C_2  and  C_3
REMARK    3  A    between atoms: N_5  and  C_6
REMARK    4  A    between atoms: C_10  and  C_11
REMARK    5  A    between atoms: N_13  and  C_14
REMARK    6  A    between atoms: C_14  and  C_15
REMARK    7  A    between atoms: N_17  and  C_18
REMARK    8  A    between atoms: C_18  and  C_19
REMARK    9  A    between atoms: C_19  and  O_20
REMARK   10  A    between atoms: O_20  and  C_21
REMARK   11  A    between atoms: C_23  and  C_24
REMARK   12  A    between atoms: C_24  and  O_25
REMARK   13  A    between atoms: C_26  and  O_27
REMARK   14  A    between atoms: C_28  and  O_29
REMARK   15  A    between atoms: C_30  and  O_31
REMARK                            x       y       z     vdW  Elec       q    Type
REMARK                         _______ _______ _______ _____ _____    ______ ____
ROOT
ATOM      1  C   UNL     1       1.236   8.091  21.090  0.00  0.00    +0.000 A 
ATOM      2  C   UNL     1       0.575   9.048  20.351  0.00  0.00    +0.000 A 
ATOM      3  N   UNL     1       0.821  10.210  21.015  0.00  0.00    +0.000 N 
ATOM      4  N   UNL     1       1.493   9.974  22.160  0.00  0.00    +0.000 NA
ATOM      5  N   UNL     1       1.777   8.680  22.202  0.00  0.00    +0.000 NA
ENDROOT
BRANCH   1   6
ATOM      6  C   UNL     1       1.434   6.650  20.806  0.00  0.00    +0.000 C 
BRANCH   6   9
ATOM      7  C   UNL     1       2.558   5.461  18.955  0.00  0.00    +0.000 C 
ATOM      8  O   UNL     1       1.710   4.574  18.895  0.00  0.00    +0.000 OA
ATOM      9  N   UNL     1       2.513   6.504  19.850  0.00  0.00    +0.000 N 
ATOM     10  H   UNL     1       3.061   7.334  19.665  0.00  0.00    +0.000 HD
BRANCH   7  15
ATOM     11  C   UNL     1       5.657   6.582  17.079  0.00  0.00    +0.000 A 
ATOM     12  C   UNL     1       5.829   5.505  16.208  0.00  0.00    +0.000 A 
ATOM     13  C   UNL     1       4.949   4.423  16.215  0.00  0.00    +0.000 A 
ATOM     14  C   UNL     1       3.887   4.401  17.110  0.00  0.00    +0.000 A 
ATOM     15  C   UNL     1       3.721   5.452  18.020  0.00  0.00    +0.000 A 
ATOM     16  C   UNL     1       4.607   6.542  18.004  0.00  0.00    +0.000 A 
BRANCH  11  19
ATOM     17  C   UNL     1       7.661   7.862  17.836  0.00  0.00    +0.000 C 
ATOM     18  O   UNL     1       8.148   7.004  18.569  0.00  0.00    +0.000 OA
ATOM     19  N   UNL     1       6.512   7.711  17.066  0.00  0.00    +0.000 N 
ATOM     20  H   UNL     1       6.336   8.412  16.355  0.00  0.00    +0.000 HD
BRANCH  17  22
ATOM     21  C   UNL     1       8.959   9.663  19.001  0.00  0.00    +0.000 C 
ATOM     22  C   UNL     1       8.300   9.228  17.696  0.00  0.00    +0.000 C 
ENDBRANCH  17  22
ENDBRANCH  11  19
ENDBRANCH   7  15
ENDBRANCH   6   9
ENDBRANCH   1   6
BRANCH   3  23
ATOM     23  C   UNL     1       0.409  11.562  20.702  0.00  0.00    +0.000 C 
BRANCH  23  24
ATOM     24  C   UNL     1      -1.042  11.914  21.061  0.00  0.00    +0.000 C 
BRANCH  24  25
ATOM     25  O   UNL     1      -1.826  12.650  20.123  0.00  0.00    +0.000 OA
BRANCH  25  26
ATOM     26  C   UNL     1      -2.854  11.956  19.436  0.00  0.00    +0.000 C 
ATOM     27  O   UNL     1      -2.513  11.948  18.044  0.00  0.00    +0.000 OA
ATOM     28  C   UNL     1      -3.253  10.928  17.350  0.00  0.00    +0.000 C 
ATOM     29  C   UNL     1      -4.745  11.326  17.343  0.00  0.00    +0.000 C 
ATOM     30  C   UNL     1      -5.226  11.594  18.782  0.00  0.00    +0.000 C 
ATOM     31  C   UNL     1      -4.281  12.517  19.580  0.00  0.00    +0.000 C 
BRANCH  29  32
ATOM     32  O   UNL     1      -5.039  12.518  16.603  0.00  0.00    +0.000 OA
ATOM     33  H   UNL     1      -5.754  12.991  17.068  0.00  0.00    +0.000 HD
ENDBRANCH  29  32
BRANCH  30  34
ATOM     34  O   UNL     1      -6.541  12.172  18.777  0.00  0.00    +0.000 OA
ATOM     35  H   UNL     1      -6.447  13.037  18.321  0.00  0.00    +0.000 HD
ENDBRANCH  30  34
BRANCH  31  36
ATOM     36  O   UNL     1      -4.723  12.530  20.946  0.00  0.00    +0.000 OA
ATOM     37  H   UNL     1      -3.985  12.140  21.460  0.00  0.00    +0.000 HD
ENDBRANCH  31  36
BRANCH  28  38
ATOM     38  C   UNL     1      -2.581  10.736  15.988  0.00  0.00    +0.000 C 
BRANCH  38  39
ATOM     39  O   UNL     1      -3.449  11.055  14.910  0.00  0.00    +0.000 OA
ATOM     40  H   UNL     1      -4.334  10.738  15.165  0.00  0.00    +0.000 HD
ENDBRANCH  38  39
ENDBRANCH  28  38
ENDBRANCH  25  26
ENDBRANCH  24  25
ENDBRANCH  23  24
ENDBRANCH   3  23
TORSDOF 14
ENDMDL
MODEL 9
REMARK VINA RESULT:      -7.1      3.086     10.589
REMARK  Name = 
REMARK  15 active torsions:
REMARK  status: ('A' for Active; 'I' for Inactive)
REMARK    1  A    between atoms: C_1  and  C_2
REMARK    2  A    between atoms: C_2  and  C_3
REMARK    3  A    between atoms: N_5  and  C_6
REMARK    4  A    between atoms: C_10  and  C_11
REMARK    5  A    between atoms: N_13  and  C_14
REMARK    6  A    between atoms: C_14  and  C_15
REMARK    7  A    between atoms: N_17  and  C_18
REMARK    8  A    between atoms: C_18  and  C_19
REMARK    9  A    between atoms: C_19  and  O_20
REMARK   10  A    between atoms: O_20  and  C_21
REMARK   11  A    between atoms: C_23  and  C_24
REMARK   12  A    between atoms: C_24  and  O_25
REMARK   13  A    between atoms: C_26  and  O_27
REMARK   14  A    between atoms: C_28  and  O_29
REMARK   15  A    between atoms: C_30  and  O_31
REMARK                            x       y       z     vdW  Elec       q    Type
REMARK                         _______ _______ _______ _____ _____    ______ ____
ROOT
ATOM      1  C   UNL     1      -1.041  11.137  22.893  0.00  0.00    +0.000 A 
ATOM      2  C   UNL     1      -2.134  11.901  23.242  0.00  0.00    +0.000 A 
ATOM      3  N   UNL     1      -1.878  13.118  22.690  0.00  0.00    +0.000 N 
ATOM      4  N   UNL     1      -0.650  13.144  22.134  0.00  0.00    +0.000 NA
ATOM      5  N   UNL     1      -0.138  11.925  22.230  0.00  0.00    +0.000 NA
ENDROOT
BRANCH   1   6
ATOM      6  C   UNL     1      -0.794   9.692  23.107  0.00  0.00    +0.000 C 
BRANCH   6   9
ATOM      7  C   UNL     1       1.110   8.970  21.708  0.00  0.00    +0.000 C 
ATOM      8  O   UNL     1       1.955   9.297  22.537  0.00  0.00    +0.000 OA
ATOM      9  N   UNL     1      -0.244   9.126  21.891  0.00  0.00    +0.000 N 
ATOM     10  H   UNL     1      -0.883   8.590  21.319  0.00  0.00    +0.000 HD
BRANCH   7  15
ATOM     11  C   UNL     1       2.464   6.473  19.194  0.00  0.00    +0.000 A 
ATOM     12  C   UNL     1       2.413   7.236  18.026  0.00  0.00    +0.000 A 
ATOM     13  C   UNL     1       1.954   8.552  18.044  0.00  0.00    +0.000 A 
ATOM     14  C   UNL     1       1.523   9.119  19.238  0.00  0.00    +0.000 A 
ATOM     15  C   UNL     1       1.527   8.357  20.412  0.00  0.00    +0.000 A 
ATOM     16  C   UNL     1       1.998   7.033  20.389  0.00  0.00    +0.000 A 
BRANCH  11  19
ATOM     17  C   UNL     1       4.305   4.792  19.293  0.00  0.00    +0.000 C 
ATOM     18  O   UNL     1       5.243   5.571  19.449  0.00  0.00    +0.000 OA
ATOM     19  N   UNL     1       2.963   5.147  19.213  0.00  0.00    +0.000 N 
ATOM     20  H   UNL     1       2.281   4.401  19.293  0.00  0.00    +0.000 HD
BRANCH  17  22
ATOM     21  C   UNL     1       3.421   2.512  19.847  0.00  0.00    +0.000 C 
ATOM     22  C   UNL     1       4.538   3.300  19.170  0.00  0.00    +0.000 C 
ENDBRANCH  17  22
ENDBRANCH  11  19
ENDBRANCH   7  15
ENDBRANCH   6   9
ENDBRANCH   1   6
BRANCH   3  23
ATOM     23  C   UNL     1      -2.678  14.325  22.696  0.00  0.00    +0.000 C 
BRANCH  23  24
ATOM     24  C   UNL     1      -3.619  14.504  21.495  0.00  0.00    +0.000 C 
BRANCH  24  25
ATOM     25  O   UNL     1      -4.763  13.656  21.382  0.00  0.00    +0.000 OA
BRANCH  25  26
ATOM     26  C   UNL     1      -4.708  12.597  20.442  0.00  0.00    +0.000 C 
ATOM     27  O   UNL     1      -3.563  12.819  19.609  0.00  0.00    +0.000 OA
ATOM     28  C   UNL     1      -3.194  11.608  18.927  0.00  0.00    +0.000 C 
ATOM     29  C   UNL     1      -4.304  11.259  17.912  0.00  0.00    +0.000 C 
ATOM     30  C   UNL     1      -5.669  11.197  18.625  0.00  0.00    +0.000 C 
ATOM     31  C   UNL     1      -5.939  12.415  19.534  0.00  0.00    +0.000 C 
BRANCH  29  32
ATOM     32  O   UNL     1      -4.459  12.209  16.850  0.00  0.00    +0.000 OA
ATOM     33  H   UNL     1      -4.356  13.102  17.228  0.00  0.00    +0.000 HD
ENDBRANCH  29  32
BRANCH  30  34
ATOM     34  O   UNL     1      -6.735  11.091  17.669  0.00  0.00    +0.000 OA
ATOM     35  H   UNL     1      -6.394  10.506  16.957  0.00  0.00    +0.000 HD
ENDBRANCH  30  34
BRANCH  31  36
ATOM     36  O   UNL     1      -7.132  12.150  20.286  0.00  0.00    +0.000 OA
ATOM     37  H   UNL     1      -6.984  12.565  21.162  0.00  0.00    +0.000 HD
ENDBRANCH  31  36
BRANCH  28  38
ATOM     38  C   UNL     1      -1.786  11.822  18.366  0.00  0.00    +0.000 C 
BRANCH  38  39
ATOM     39  O   UNL     1      -0.833  12.083  19.386  0.00  0.00    +0.000 OA
ATOM     40  H   UNL     1      -1.339  12.336  20.178  0.00  0.00    +0.000 HD
ENDBRANCH  38  39
ENDBRANCH  28  38
ENDBRANCH  25  26
ENDBRANCH  24  25
ENDBRANCH  23  24
ENDBRANCH   3  23
TORSDOF 14
ENDMDL
