MODEL 1
REMARK VINA RESULT:      -7.5      0.000      0.000
REMARK  Name = 
REMARK  9 active torsions:
REMARK  status: ('A' for Active; 'I' for Inactive)
REMARK    1  A    between atoms: C_1  and  O_2
REMARK    2  A    between atoms: O_2  and  C_3
REMARK    3  A    between atoms: C_5  and  N_6
REMARK    4  A    between atoms: C_7  and  C_9
REMARK    5  A    between atoms: C_12  and  C_13
REMARK    6  A    between atoms: C_13  and  C_14
REMARK    7  A    between atoms: C_13  and  C_15
REMARK    8  A    between atoms: C_13  and  C_16
REMARK    9  A    between atoms: C_20  and  C_21
REMARK                            x       y       z     vdW  Elec       q    Type
REMARK                         _______ _______ _______ _____ _____    ______ ____
ROOT
ATOM      1  C   UNL     1       0.049  11.124  20.729  0.00  0.00    +0.000 A 
ATOM      2  C   UNL     1       0.765  10.041  20.185  0.00  0.00    +0.000 A 
ATOM      3  C   UNL     1       1.039   8.887  20.908  0.00  0.00    +0.000 A 
ATOM      4  C   UNL     1       0.648   8.841  22.238  0.00  0.00    +0.000 A 
ATOM      5  C   UNL     1      -0.010   9.932  22.824  0.00  0.00    +0.000 A 
ATOM      6  C   UNL     1      -0.348  11.086  22.079  0.00  0.00    +0.000 A 
ENDROOT
BRANCH   6   7
ATOM      7  C   UNL     1      -1.129  12.140  22.722  0.00  0.00    +0.000 A 
ATOM      8  C   UNL     1      -2.445  12.352  23.070  0.00  0.00    +0.000 A 
ATOM      9  N   UNL     1      -2.590  13.555  23.724  0.00  0.00    +0.000 NA
ATOM     10  C   UNL     1      -1.369  14.032  23.748  0.00  0.00    +0.000 A 
ATOM     11  O   UNL     1      -0.428  13.244  23.162  0.00  0.00    +0.000 OA
ENDBRANCH   6   7
BRANCH   3  12
ATOM     12  N   UNL     1       1.663   7.763  20.321  0.00  0.00    +0.000 N 
ATOM     13  C   UNL     1       2.210   7.695  19.054  0.00  0.00    +0.000 C 
ATOM     14  O   UNL     1       2.337   8.636  18.281  0.00  0.00    +0.000 OA
ATOM     15  H   UNL     1       1.715   6.910  20.874  0.00  0.00    +0.000 HD
BRANCH  13  16
ATOM     16  C   UNL     1       2.686   6.381  18.672  0.00  0.00    +0.000 A 
ATOM     17  C   UNL     1       3.649   6.029  17.745  0.00  0.00    +0.000 A 
ATOM     18  C   UNL     1       3.736   4.623  17.763  0.00  0.00    +0.000 A 
ATOM     19  C   UNL     1       2.807   4.178  18.684  0.00  0.00    +0.000 A 
ATOM     20  O   UNL     1       2.168   5.252  19.248  0.00  0.00    +0.000 OA
BRANCH  19  21
ATOM     21  C   UNL     1       2.388   2.814  19.160  0.00  0.00    +0.000 C 
ATOM     22  C   UNL     1       2.542   2.698  20.688  0.00  0.00    +0.000 C 
ATOM     23  C   UNL     1       0.915   2.562  18.796  0.00  0.00    +0.000 C 
ATOM     24  C   UNL     1       3.269   1.742  18.498  0.00  0.00    +0.000 C 
ENDBRANCH  19  21
ENDBRANCH  13  16
ENDBRANCH   3  12
BRANCH   1  26
ATOM     25  C   UNL     1      -0.763  11.972  18.665  0.00  0.00    +0.000 C 
ATOM     26  O   UNL     1      -0.246  12.236  19.972  0.00  0.00    +0.000 OA
ENDBRANCH   1  26
TORSDOF 5
ENDMDL
MODEL 2
REMARK VINA RESULT:      -7.4      0.680      1.198
REMARK  Name = 
REMARK  9 active torsions:
REMARK  status: ('A' for Active; 'I' for Inactive)
REMARK    1  A    between atoms: C_1  and  O_2
REMARK    2  A    between atoms: O_2  and  C_3
REMARK    3  A    between atoms: C_5  and  N_6
REMARK    4  A    between atoms: C_7  and  C_9
REMARK    5  A    between atoms: C_12  and  C_13
REMARK    6  A    between atoms: C_13  and  C_14
REMARK    7  A    between atoms: C_13  and  C_15
REMARK    8  A    between atoms: C_13  and  C_16
REMARK    9  A    between atoms: C_20  and  C_21
REMARK                            x       y       z     vdW  Elec       q    Type
REMARK                         _______ _______ _______ _____ _____    ______ ____
ROOT
ATOM      1  C   UNL     1      -0.210  11.001  20.833  0.00  0.00    +0.000 A 
ATOM      2  C   UNL     1       0.548   9.942  20.300  0.00  0.00    +0.000 A 
ATOM      3  C   UNL     1       0.956   8.856  21.064  0.00  0.00    +0.000 A 
ATOM      4  C   UNL     1       0.659   8.862  22.419  0.00  0.00    +0.000 A 
ATOM      5  C   UNL     1      -0.039   9.936  22.989  0.00  0.00    +0.000 A 
ATOM      6  C   UNL     1      -0.513  11.016  22.207  0.00  0.00    +0.000 A 
ENDROOT
BRANCH   6   7
ATOM      7  C   UNL     1      -1.327  12.048  22.845  0.00  0.00    +0.000 A 
ATOM      8  C   UNL     1      -1.179  13.370  23.205  0.00  0.00    +0.000 A 
ATOM      9  N   UNL     1      -2.347  13.861  23.747  0.00  0.00    +0.000 NA
ATOM     10  C   UNL     1      -3.155  12.829  23.703  0.00  0.00    +0.000 A 
ATOM     11  O   UNL     1      -2.618  11.696  23.177  0.00  0.00    +0.000 OA
ENDBRANCH   6   7
BRANCH   3  12
ATOM     12  N   UNL     1       1.624   7.747  20.497  0.00  0.00    +0.000 N 
ATOM     13  C   UNL     1       2.169   7.676  19.229  0.00  0.00    +0.000 C 
ATOM     14  O   UNL     1       2.257   8.606  18.438  0.00  0.00    +0.000 OA
ATOM     15  H   UNL     1       1.712   6.908  21.066  0.00  0.00    +0.000 HD
BRANCH  13  16
ATOM     16  C   UNL     1       2.697   6.375  18.872  0.00  0.00    +0.000 A 
ATOM     17  C   UNL     1       3.744   6.051  18.030  0.00  0.00    +0.000 A 
ATOM     18  C   UNL     1       3.849   4.646  18.033  0.00  0.00    +0.000 A 
ATOM     19  C   UNL     1       2.849   4.174  18.860  0.00  0.00    +0.000 A 
ATOM     20  O   UNL     1       2.146   5.230  19.382  0.00  0.00    +0.000 OA
BRANCH  19  21
ATOM     21  C   UNL     1       2.409   2.797  19.276  0.00  0.00    +0.000 C 
ATOM     22  C   UNL     1       0.944   2.546  18.873  0.00  0.00    +0.000 C 
ATOM     23  C   UNL     1       3.293   1.738  18.596  0.00  0.00    +0.000 C 
ATOM     24  C   UNL     1       2.525   2.656  20.803  0.00  0.00    +0.000 C 
ENDBRANCH  19  21
ENDBRANCH  13  16
ENDBRANCH   3  12
BRANCH   1  26
ATOM     25  C   UNL     1      -1.762  11.757  19.201  0.00  0.00    +0.000 C 
ATOM     26  O   UNL     1      -0.638  12.042  20.039  0.00  0.00    +0.000 OA
ENDBRANCH   1  26
TORSDOF 5
ENDMDL
MODEL 3
REMARK VINA RESULT:      -7.4      0.772      1.239
REMARK  Name = 
REMARK  9 active torsions:
REMARK  status: ('A' for Active; 'I' for Inactive)
REMARK    1  A    between atoms: C_1  and  O_2
REMARK    2  A    between atoms: O_2  and  C_3
REMARK    3  A    between atoms: C_5  and  N_6
REMARK    4  A    between atoms: C_7  and  C_9
REMARK    5  A    between atoms: C_12  and  C_13
REMARK    6  A    between atoms: C_13  and  C_14
REMARK    7  A    between atoms: C_13  and  C_15
REMARK    8  A    between atoms: C_13  and  C_16
REMARK    9  A    between atoms: C_20  and  C_21
REMARK                            x       y       z     vdW  Elec       q    Type
REMARK                         _______ _______ _______ _____ _____    ______ ____
ROOT
ATOM      1  C   UNL     1      -0.453  11.068  20.999  0.00  0.00    +0.000 A 
ATOM      2  C   UNL     1       0.357  10.026  20.510  0.00  0.00    +0.000 A 
ATOM      3  C   UNL     1       0.763   8.960  21.302  0.00  0.00    +0.000 A 
ATOM      4  C   UNL     1       0.410   8.971  22.643  0.00  0.00    +0.000 A 
ATOM      5  C   UNL     1      -0.342  10.030  23.172  0.00  0.00    +0.000 A 
ATOM      6  C   UNL     1      -0.812  11.089  22.359  0.00  0.00    +0.000 A 
ENDROOT
BRANCH   6   7
ATOM      7  C   UNL     1      -1.681  12.103  22.951  0.00  0.00    +0.000 A 
ATOM      8  C   UNL     1      -2.996  12.196  23.354  0.00  0.00    +0.000 A 
ATOM      9  N   UNL     1      -3.250  13.431  23.907  0.00  0.00    +0.000 NA
ATOM     10  C   UNL     1      -2.094  14.044  23.820  0.00  0.00    +0.000 A 
ATOM     11  O   UNL     1      -1.095  13.315  23.253  0.00  0.00    +0.000 OA
ENDBRANCH   6   7
BRANCH   3  12
ATOM     12  N   UNL     1       1.484   7.865  20.776  0.00  0.00    +0.000 N 
ATOM     13  C   UNL     1       2.023   7.769  19.507  0.00  0.00    +0.000 C 
ATOM     14  O   UNL     1       2.055   8.667  18.676  0.00  0.00    +0.000 OA
ATOM     15  H   UNL     1       1.622   7.056  21.379  0.00  0.00    +0.000 HD
BRANCH  13  16
ATOM     16  C   UNL     1       2.617   6.483  19.199  0.00  0.00    +0.000 A 
ATOM     17  C   UNL     1       3.492   6.138  18.187  0.00  0.00    +0.000 A 
ATOM     18  C   UNL     1       3.765   4.764  18.337  0.00  0.00    +0.000 A 
ATOM     19  C   UNL     1       3.029   4.327  19.421  0.00  0.00    +0.000 A 
ATOM     20  O   UNL     1       2.330   5.378  19.956  0.00  0.00    +0.000 OA
BRANCH  19  21
ATOM     21  C   UNL     1       2.859   2.991  20.089  0.00  0.00    +0.000 C 
ATOM     22  C   UNL     1       1.916   2.086  19.272  0.00  0.00    +0.000 C 
ATOM     23  C   UNL     1       4.223   2.290  20.215  0.00  0.00    +0.000 C 
ATOM     24  C   UNL     1       2.254   3.186  21.490  0.00  0.00    +0.000 C 
ENDBRANCH  19  21
ENDBRANCH  13  16
ENDBRANCH   3  12
BRANCH   1  26
ATOM     25  C   UNL     1       0.164  12.825  19.524  0.00  0.00    +0.000 C 
ATOM     26  O   UNL     1      -0.876  12.089  20.176  0.00  0.00    +0.000 OA
ENDBRANCH   1  26
TORSDOF 5
ENDMDL
MODEL 4
REMARK VINA RESULT:      -7.3      0.952      1.066
REMARK  Name = 
REMARK  9 active torsions:
REMARK  status: ('A' for Active; 'I' for Inactive)
REMARK    1  A    between atoms: C_1  and  O_2
REMARK    2  A    between atoms: O_2  and  C_3
REMARK    3  A    between atoms: C_5  and  N_6
REMARK    4  A    between atoms: C_7  and  C_9
REMARK    5  A    between atoms: C_12  and  C_13
REMARK    6  A    between atoms: C_13  and  C_14
REMARK    7  A    between atoms: C_13  and  C_15
REMARK    8  A    between atoms: C_13  and  C_16
REMARK    9  A    between atoms: C_20  and  C_21
REMARK                            x       y       z     vdW  Elec       q    Type
REMARK                         _______ _______ _______ _____ _____    ______ ____
ROOT
ATOM      1  C   UNL     1      -0.301  11.384  21.069  0.00  0.00    +0.000 A 
ATOM      2  C   UNL     1       0.504  10.379  20.500  0.00  0.00    +0.000 A 
ATOM      3  C   UNL     1       0.770   9.178  21.146  0.00  0.00    +0.000 A 
ATOM      4  C   UNL     1       0.276   9.005  22.431  0.00  0.00    +0.000 A 
ATOM      5  C   UNL     1      -0.474  10.017  23.048  0.00  0.00    +0.000 A 
ATOM      6  C   UNL     1      -0.802  11.217  22.373  0.00  0.00    +0.000 A 
ENDROOT
BRANCH   6   7
ATOM      7  C   UNL     1      -1.678  12.183  23.033  0.00  0.00    +0.000 A 
ATOM      8  C   UNL     1      -1.616  13.507  23.410  0.00  0.00    +0.000 A 
ATOM      9  N   UNL     1      -2.808  13.911  23.970  0.00  0.00    +0.000 NA
ATOM     10  C   UNL     1      -3.546  12.827  23.918  0.00  0.00    +0.000 A 
ATOM     11  O   UNL     1      -2.939  11.740  23.371  0.00  0.00    +0.000 OA
ENDBRANCH   6   7
BRANCH   3  12
ATOM     12  N   UNL     1       1.488   8.133  20.524  0.00  0.00    +0.000 N 
ATOM     13  C   UNL     1       1.937   8.108  19.217  0.00  0.00    +0.000 C 
ATOM     14  O   UNL     1       1.879   9.040  18.426  0.00  0.00    +0.000 OA
ATOM     15  H   UNL     1       1.695   7.306  21.081  0.00  0.00    +0.000 HD
BRANCH  13  16
ATOM     16  C   UNL     1       2.550   6.859  18.813  0.00  0.00    +0.000 A 
ATOM     17  C   UNL     1       3.587   6.634  17.928  0.00  0.00    +0.000 A 
ATOM     18  C   UNL     1       3.801   5.242  17.898  0.00  0.00    +0.000 A 
ATOM     19  C   UNL     1       2.871   4.677  18.750  0.00  0.00    +0.000 A 
ATOM     20  O   UNL     1       2.109   5.665  19.319  0.00  0.00    +0.000 OA
BRANCH  19  21
ATOM     21  C   UNL     1       2.556   3.263  19.153  0.00  0.00    +0.000 C 
ATOM     22  C   UNL     1       3.727   2.645  19.940  0.00  0.00    +0.000 C 
ATOM     23  C   UNL     1       1.301   3.239  20.042  0.00  0.00    +0.000 C 
ATOM     24  C   UNL     1       2.309   2.410  17.897  0.00  0.00    +0.000 C 
ENDBRANCH  19  21
ENDBRANCH  13  16
ENDBRANCH   3  12
BRANCH   1  26
ATOM     25  C   UNL     1      -1.042  12.370  19.039  0.00  0.00    +0.000 C 
ATOM     26  O   UNL     1      -0.583  12.544  20.383  0.00  0.00    +0.000 OA
ENDBRANCH   1  26
TORSDOF 5
ENDMDL
MODEL 5
REMARK VINA RESULT:      -7.2      2.448      9.272
REMARK  Name = 
REMARK  9 active torsions:
REMARK  status: ('A' for Active; 'I' for Inactive)
REMARK    1  A    between atoms: C_1  and  O_2
REMARK    2  A    between atoms: O_2  and  C_3
REMARK    3  A    between atoms: C_5  and  N_6
REMARK    4  A    between atoms: C_7  and  C_9
REMARK    5  A    between atoms: C_12  and  C_13
REMARK    6  A    between atoms: C_13  and  C_14
REMARK    7  A    between atoms: C_13  and  C_15
REMARK    8  A    between atoms: C_13  and  C_16
REMARK    9  A    between atoms: C_20  and  C_21
REMARK                            x       y       z     vdW  Elec       q    Type
REMARK                         _______ _______ _______ _____ _____    ______ ____
ROOT
ATOM      1  C   UNL     1       4.101   5.182  18.896  0.00  0.00    +0.000 A 
ATOM      2  C   UNL     1       3.296   5.917  19.786  0.00  0.00    +0.000 A 
ATOM      3  C   UNL     1       2.737   7.144  19.451  0.00  0.00    +0.000 A 
ATOM      4  C   UNL     1       3.049   7.687  18.214  0.00  0.00    +0.000 A 
ATOM      5  C   UNL     1       3.902   7.007  17.332  0.00  0.00    +0.000 A 
ATOM      6  C   UNL     1       4.426   5.729  17.640  0.00  0.00    +0.000 A 
ENDROOT
BRANCH   6   7
ATOM      7  C   UNL     1       5.219   5.028  16.633  0.00  0.00    +0.000 A 
ATOM      8  C   UNL     1       5.001   4.076  15.661  0.00  0.00    +0.000 A 
ATOM      9  N   UNL     1       6.157   3.827  14.955  0.00  0.00    +0.000 NA
ATOM     10  C   UNL     1       7.031   4.625  15.519  0.00  0.00    +0.000 A 
ATOM     11  O   UNL     1       6.549   5.381  16.542  0.00  0.00    +0.000 OA
ENDBRANCH   6   7
BRANCH   3  12
ATOM     12  N   UNL     1       1.844   7.822  20.310  0.00  0.00    +0.000 N 
ATOM     13  C   UNL     1       1.156   8.986  20.028  0.00  0.00    +0.000 C 
ATOM     14  O   UNL     1       1.128   9.552  18.943  0.00  0.00    +0.000 OA
ATOM     15  H   UNL     1       1.688   7.428  21.236  0.00  0.00    +0.000 HD
BRANCH  13  16
ATOM     16  C   UNL     1       0.392   9.521  21.137  0.00  0.00    +0.000 A 
ATOM     17  C   UNL     1       0.200   9.002  22.403  0.00  0.00    +0.000 A 
ATOM     18  C   UNL     1      -0.618   9.915  23.097  0.00  0.00    +0.000 A 
ATOM     19  C   UNL     1      -0.905  10.941  22.217  0.00  0.00    +0.000 A 
ATOM     20  O   UNL     1      -0.282  10.707  21.019  0.00  0.00    +0.000 OA
BRANCH  19  21
ATOM     21  C   UNL     1      -1.725  12.198  22.319  0.00  0.00    +0.000 C 
ATOM     22  C   UNL     1      -2.803  12.060  23.412  0.00  0.00    +0.000 C 
ATOM     23  C   UNL     1      -0.817  13.388  22.674  0.00  0.00    +0.000 C 
ATOM     24  C   UNL     1      -2.425  12.471  20.977  0.00  0.00    +0.000 C 
ENDBRANCH  19  21
ENDBRANCH  13  16
ENDBRANCH   3  12
BRANCH   1  26
ATOM     25  C   UNL     1       3.632   2.978  19.644  0.00  0.00    +0.000 C 
ATOM     26  O   UNL     1       4.604   3.948  19.242  0.00  0.00    +0.000 OA
ENDBRANCH   1  26
TORSDOF 5
ENDMDL
MODEL 6
REMARK VINA RESULT:      -7.2      2.308      9.228
REMARK  Name = 
REMARK  9 active torsions:
REMARK  status: ('A' for Active; 'I' for Inactive)
REMARK    1  A    between atoms: C_1  and  O_2
REMARK    2  A    between atoms: O_2  and  C_3
REMARK    3  A    between atoms: C_5  and  N_6
REMARK    4  A    between atoms: C_7  and  C_9
REMARK    5  A    between atoms: C_12  and  C_13
REMARK    6  A    between atoms: C_13  and  C_14
REMARK    7  A    between atoms: C_13  and  C_15
REMARK    8  A    between atoms: C_13  and  C_16
REMARK    9  A    between atoms: C_20  and  C_21
REMARK                            x       y       z     vdW  Elec       q    Type
REMARK                         _______ _______ _______ _____ _____    ______ ____
ROOT
ATOM      1  C   UNL     1       3.588   5.204  18.904  0.00  0.00    +0.000 A 
ATOM      2  C   UNL     1       2.819   5.954  19.812  0.00  0.00    +0.000 A 
ATOM      3  C   UNL     1       2.412   7.256  19.552  0.00  0.00    +0.000 A 
ATOM      4  C   UNL     1       2.849   7.854  18.378  0.00  0.00    +0.000 A 
ATOM      5  C   UNL     1       3.671   7.151  17.485  0.00  0.00    +0.000 A 
ATOM      6  C   UNL     1       4.038   5.804  17.713  0.00  0.00    +0.000 A 
ENDROOT
BRANCH   6   7
ATOM      7  C   UNL     1       4.806   5.097  16.691  0.00  0.00    +0.000 A 
ATOM      8  C   UNL     1       5.083   3.787  16.363  0.00  0.00    +0.000 A 
ATOM      9  N   UNL     1       5.852   3.723  15.222  0.00  0.00    +0.000 NA
ATOM     10  C   UNL     1       6.018   4.983  14.900  0.00  0.00    +0.000 A 
ATOM     11  O   UNL     1       5.423   5.876  15.735  0.00  0.00    +0.000 OA
ENDBRANCH   6   7
BRANCH   3  12
ATOM     12  N   UNL     1       1.551   7.963  20.420  0.00  0.00    +0.000 N 
ATOM     13  C   UNL     1       0.895   9.147  20.143  0.00  0.00    +0.000 C 
ATOM     14  O   UNL     1       0.871   9.711  19.057  0.00  0.00    +0.000 OA
ATOM     15  H   UNL     1       1.395   7.575  21.349  0.00  0.00    +0.000 HD
BRANCH  13  16
ATOM     16  C   UNL     1       0.161   9.707  21.261  0.00  0.00    +0.000 A 
ATOM     17  C   UNL     1       0.006   9.217  22.544  0.00  0.00    +0.000 A 
ATOM     18  C   UNL     1      -0.794  10.146  23.239  0.00  0.00    +0.000 A 
ATOM     19  C   UNL     1      -1.108  11.150  22.343  0.00  0.00    +0.000 A 
ATOM     20  O   UNL     1      -0.518  10.888  21.133  0.00  0.00    +0.000 OA
BRANCH  19  21
ATOM     21  C   UNL     1      -1.928  12.407  22.439  0.00  0.00    +0.000 C 
ATOM     22  C   UNL     1      -2.557  12.755  21.076  0.00  0.00    +0.000 C 
ATOM     23  C   UNL     1      -3.058  12.219  23.466  0.00  0.00    +0.000 C 
ATOM     24  C   UNL     1      -1.031  13.578  22.874  0.00  0.00    +0.000 C 
ENDBRANCH  19  21
ENDBRANCH  13  16
ENDBRANCH   3  12
BRANCH   1  26
ATOM     25  C   UNL     1       2.863   3.046  19.581  0.00  0.00    +0.000 C 
ATOM     26  O   UNL     1       3.937   3.898  19.173  0.00  0.00    +0.000 OA
ENDBRANCH   1  26
TORSDOF 5
ENDMDL
MODEL 7
REMARK VINA RESULT:      -7.2      2.340      9.073
REMARK  Name = 
REMARK  9 active torsions:
REMARK  status: ('A' for Active; 'I' for Inactive)
REMARK    1  A    between atoms: C_1  and  O_2
REMARK    2  A    between atoms: O_2  and  C_3
REMARK    3  A    between atoms: C_5  and  N_6
REMARK    4  A    between atoms: C_7  and  C_9
REMARK    5  A    between atoms: C_12  and  C_13
REMARK    6  A    between atoms: C_13  and  C_14
REMARK    7  A    between atoms: C_13  and  C_15
REMARK    8  A    between atoms: C_13  and  C_16
REMARK    9  A    between atoms: C_20  and  C_21
REMARK                            x       y       z     vdW  Elec       q    Type
REMARK                         _______ _______ _______ _____ _____    ______ ____
ROOT
ATOM      1  C   UNL     1       2.501   6.848  19.646  0.00  0.00    +0.000 A 
ATOM      2  C   UNL     1       1.600   7.697  20.316  0.00  0.00    +0.000 A 
ATOM      3  C   UNL     1       1.098   8.857  19.740  0.00  0.00    +0.000 A 
ATOM      4  C   UNL     1       1.564   9.218  18.484  0.00  0.00    +0.000 A 
ATOM      5  C   UNL     1       2.511   8.424  17.822  0.00  0.00    +0.000 A 
ATOM      6  C   UNL     1       2.981   7.209  18.373  0.00  0.00    +0.000 A 
ENDROOT
BRANCH   6   7
ATOM      7  C   UNL     1       3.884   6.375  17.583  0.00  0.00    +0.000 A 
ATOM      8  C   UNL     1       5.115   6.513  16.978  0.00  0.00    +0.000 A 
ATOM      9  N   UNL     1       5.507   5.329  16.395  0.00  0.00    +0.000 NA
ATOM     10  C   UNL     1       4.510   4.519  16.660  0.00  0.00    +0.000 A 
ATOM     11  O   UNL     1       3.489   5.071  17.368  0.00  0.00    +0.000 OA
ENDBRANCH   6   7
BRANCH   3  12
ATOM     12  N   UNL     1       0.113   9.645  20.376  0.00  0.00    +0.000 N 
ATOM     13  C   UNL     1       0.330  10.785  21.126  0.00  0.00    +0.000 C 
ATOM     14  O   UNL     1       1.406  11.353  21.263  0.00  0.00    +0.000 OA
ATOM     15  H   UNL     1      -0.858   9.351  20.287  0.00  0.00    +0.000 HD
BRANCH  13  16
ATOM     16  C   UNL     1      -0.857  11.330  21.755  0.00  0.00    +0.000 A 
ATOM     17  C   UNL     1      -1.250  11.285  23.079  0.00  0.00    +0.000 A 
ATOM     18  C   UNL     1      -2.478  11.970  23.161  0.00  0.00    +0.000 A 
ATOM     19  C   UNL     1      -2.790  12.385  21.881  0.00  0.00    +0.000 A 
ATOM     20  O   UNL     1      -1.795  12.001  21.018  0.00  0.00    +0.000 OA
BRANCH  19  21
ATOM     21  C   UNL     1      -3.948  13.138  21.287  0.00  0.00    +0.000 C 
ATOM     22  C   UNL     1      -5.202  12.999  22.172  0.00  0.00    +0.000 C 
ATOM     23  C   UNL     1      -3.596  14.631  21.166  0.00  0.00    +0.000 C 
ATOM     24  C   UNL     1      -4.271  12.575  19.892  0.00  0.00    +0.000 C 
ENDBRANCH  19  21
ENDBRANCH  13  16
ENDBRANCH   3  12
BRANCH   1  26
ATOM     25  C   UNL     1       1.924   4.805  20.712  0.00  0.00    +0.000 C 
ATOM     26  O   UNL     1       2.946   5.681  20.227  0.00  0.00    +0.000 OA
ENDBRANCH   1  26
TORSDOF 5
ENDMDL
MODEL 8
REMARK VINA RESULT:      -7.2      2.102      3.479
REMARK  Name = 
REMARK  9 active torsions:
REMARK  status: ('A' for Active; 'I' for Inactive)
REMARK    1  A    between atoms: C_1  and  O_2
REMARK    2  A    between atoms: O_2  and  C_3
REMARK    3  A    between atoms: C_5  and  N_6
REMARK    4  A    between atoms: C_7  and  C_9
REMARK    5  A    between atoms: C_12  and  C_13
REMARK    6  A    between atoms: C_13  and  C_14
REMARK    7  A    between atoms: C_13  and  C_15
REMARK    8  A    between atoms: C_13  and  C_16
REMARK    9  A    between atoms: C_20  and  C_21
REMARK                            x       y       z     vdW  Elec       q    Type
REMARK                         _______ _______ _______ _____ _____    ______ ____
ROOT
ATOM      1  C   UNL     1       0.549  10.232  21.029  0.00  0.00    +0.000 A 
ATOM      2  C   UNL     1       1.274   9.067  20.714  0.00  0.00    +0.000 A 
ATOM      3  C   UNL     1       1.532   8.678  19.406  0.00  0.00    +0.000 A 
ATOM      4  C   UNL     1       0.988   9.436  18.380  0.00  0.00    +0.000 A 
ATOM      5  C   UNL     1       0.206  10.565  18.666  0.00  0.00    +0.000 A 
ATOM      6  C   UNL     1      -0.009  11.004  19.994  0.00  0.00    +0.000 A 
ENDROOT
BRANCH   6   7
ATOM      7  C   UNL     1      -0.742  12.249  20.218  0.00  0.00    +0.000 A 
ATOM      8  C   UNL     1      -0.460  13.598  20.226  0.00  0.00    +0.000 A 
ATOM      9  N   UNL     1      -1.602  14.333  20.457  0.00  0.00    +0.000 NA
ATOM     10  C   UNL     1      -2.529  13.414  20.585  0.00  0.00    +0.000 A 
ATOM     11  O   UNL     1      -2.095  12.132  20.458  0.00  0.00    +0.000 OA
ENDBRANCH   6   7
BRANCH   3  12
ATOM     12  N   UNL     1       2.351   7.568  19.100  0.00  0.00    +0.000 N 
ATOM     13  C   UNL     1       2.359   6.348  19.748  0.00  0.00    +0.000 C 
ATOM     14  O   UNL     1       1.575   6.001  20.621  0.00  0.00    +0.000 OA
ATOM     15  H   UNL     1       3.012   7.667  18.331  0.00  0.00    +0.000 HD
BRANCH  13  16
ATOM     16  C   UNL     1       3.383   5.429  19.293  0.00  0.00    +0.000 A 
ATOM     17  C   UNL     1       3.690   4.160  19.746  0.00  0.00    +0.000 A 
ATOM     18  C   UNL     1       4.764   3.698  18.961  0.00  0.00    +0.000 A 
ATOM     19  C   UNL     1       5.079   4.713  18.078  0.00  0.00    +0.000 A 
ATOM     20  O   UNL     1       4.230   5.772  18.273  0.00  0.00    +0.000 OA
BRANCH  19  21
ATOM     21  C   UNL     1       6.117   4.868  17.001  0.00  0.00    +0.000 C 
ATOM     22  C   UNL     1       7.529   4.610  17.563  0.00  0.00    +0.000 C 
ATOM     23  C   UNL     1       5.850   3.862  15.868  0.00  0.00    +0.000 C 
ATOM     24  C   UNL     1       6.070   6.298  16.438  0.00  0.00    +0.000 C 
ENDBRANCH  19  21
ENDBRANCH  13  16
ENDBRANCH   3  12
BRANCH   1  26
ATOM     25  C   UNL     1      -0.233   9.622  23.187  0.00  0.00    +0.000 C 
ATOM     26  O   UNL     1       0.349  10.615  22.337  0.00  0.00    +0.000 OA
ENDBRANCH   1  26
TORSDOF 5
ENDMDL
MODEL 9
REMARK VINA RESULT:      -7.2      2.996      9.477
REMARK  Name = 
REMARK  9 active torsions:
REMARK  status: ('A' for Active; 'I' for Inactive)
REMARK    1  A    between atoms: C_1  and  O_2
REMARK    2  A    between atoms: O_2  and  C_3
REMARK    3  A    between atoms: C_5  and  N_6
REMARK    4  A    between atoms: C_7  and  C_9
REMARK    5  A    between atoms: C_12  and  C_13
REMARK    6  A    between atoms: C_13  and  C_14
REMARK    7  A    between atoms: C_13  and  C_15
REMARK    8  A    between atoms: C_13  and  C_16
REMARK    9  A    between atoms: C_20  and  C_21
REMARK                            x       y       z     vdW  Elec       q    Type
REMARK                         _______ _______ _______ _____ _____    ______ ____
ROOT
ATOM      1  C   UNL     1       4.022   4.808  17.184  0.00  0.00    +0.000 A 
ATOM      2  C   UNL     1       3.267   5.452  18.182  0.00  0.00    +0.000 A 
ATOM      3  C   UNL     1       3.215   6.835  18.305  0.00  0.00    +0.000 A 
ATOM      4  C   UNL     1       3.997   7.596  17.450  0.00  0.00    +0.000 A 
ATOM      5  C   UNL     1       4.810   6.978  16.488  0.00  0.00    +0.000 A 
ATOM      6  C   UNL     1       4.821   5.574  16.315  0.00  0.00    +0.000 A 
ENDROOT
BRANCH   6   7
ATOM      7  C   UNL     1       5.607   5.002  15.224  0.00  0.00    +0.000 A 
ATOM      8  C   UNL     1       5.412   4.086  14.213  0.00  0.00    +0.000 A 
ATOM      9  N   UNL     1       6.538   3.981  13.426  0.00  0.00    +0.000 NA
ATOM     10  C   UNL     1       7.372   4.826  13.982  0.00  0.00    +0.000 A 
ATOM     11  O   UNL     1       6.892   5.480  15.073  0.00  0.00    +0.000 OA
ENDBRANCH   6   7
BRANCH   3  12
ATOM     12  N   UNL     1       2.370   7.475  19.240  0.00  0.00    +0.000 N 
ATOM     13  C   UNL     1       1.626   8.619  19.027  0.00  0.00    +0.000 C 
ATOM     14  O   UNL     1       1.497   9.196  17.956  0.00  0.00    +0.000 OA
ATOM     15  H   UNL     1       2.300   7.065  20.170  0.00  0.00    +0.000 HD
BRANCH  13  16
ATOM     16  C   UNL     1       0.936   9.117  20.200  0.00  0.00    +0.000 A 
ATOM     17  C   UNL     1       0.722   8.505  21.421  0.00  0.00    +0.000 A 
ATOM     18  C   UNL     1       0.003   9.421  22.214  0.00  0.00    +0.000 A 
ATOM     19  C   UNL     1      -0.209  10.542  21.435  0.00  0.00    +0.000 A 
ATOM     20  O   UNL     1       0.368  10.363  20.204  0.00  0.00    +0.000 OA
BRANCH  19  21
ATOM     21  C   UNL     1      -0.911  11.851  21.670  0.00  0.00    +0.000 C 
ATOM     22  C   UNL     1      -1.648  11.841  23.023  0.00  0.00    +0.000 C 
ATOM     23  C   UNL     1       0.112  13.000  21.677  0.00  0.00    +0.000 C 
ATOM     24  C   UNL     1      -1.943  12.092  20.555  0.00  0.00    +0.000 C 
ENDBRANCH  19  21
ENDBRANCH  13  16
ENDBRANCH   3  12
BRANCH   1  26
ATOM     25  C   UNL     1       2.864   2.774  17.589  0.00  0.00    +0.000 C 
ATOM     26  O   UNL     1       4.017   3.436  17.060  0.00  0.00    +0.000 OA
ENDBRANCH   1  26
TORSDOF 5
ENDMDL
