MODEL 1
REMARK VINA RESULT:      -8.8      0.000      0.000
REMARK  Name = 
REMARK  6 active torsions:
REMARK  status: ('A' for Active; 'I' for Inactive)
REMARK    1  A    between atoms: C_1  and  C_2
REMARK    2  A    between atoms: C_2  and  C_3
REMARK    3  A    between atoms: C_6  and  C_7
REMARK    4  A    between atoms: C_8  and  C_9
REMARK    5  A    between atoms: N_19  and  C_20
REMARK    6  A    between atoms: C_24  and  O_25
REMARK                            x       y       z     vdW  Elec       q    Type
REMARK                         _______ _______ _______ _____ _____    ______ ____
ROOT
ATOM      1  C   UNL     1       3.688   6.082  18.350  0.00  0.00    +0.000 A 
ATOM      2  N   UNL     1       4.584   6.622  17.582  0.00  0.00    +0.000 NA
ATOM      3  C   UNL     1       5.250   5.792  16.662  0.00  0.00    +0.000 A 
ATOM      4  C   UNL     1       6.388   6.264  16.007  0.00  0.00    +0.000 A 
ATOM      5  C   UNL     1       7.063   5.454  15.085  0.00  0.00    +0.000 A 
ATOM      6  C   UNL     1       6.591   4.174  14.792  0.00  0.00    +0.000 A 
ATOM      7  C   UNL     1       5.453   3.696  15.436  0.00  0.00    +0.000 A 
ATOM      8  C   UNL     1       4.802   4.504  16.376  0.00  0.00    +0.000 A 
ATOM      9  C   UNL     1       3.689   3.973  17.172  0.00  0.00    +0.000 A 
ATOM     10  O   UNL     1       3.156   2.918  16.835  0.00  0.00    +0.000 OA
ATOM     11  N   UNL     1       3.357   4.729  18.289  0.00  0.00    +0.000 N 
ENDROOT
BRANCH  11  12
ATOM     12  C   UNL     1       2.666   4.079  19.345  0.00  0.00    +0.000 A 
ATOM     13  C   UNL     1       1.261   4.099  19.361  0.00  0.00    +0.000 A 
ATOM     14  C   UNL     1       0.566   3.416  20.360  0.00  0.00    +0.000 A 
ATOM     15  C   UNL     1       1.269   2.677  21.313  0.00  0.00    +0.000 A 
ATOM     16  C   UNL     1       2.660   2.655  21.277  0.00  0.00    +0.000 A 
ATOM     17  C   UNL     1       3.368   3.377  20.323  0.00  0.00    +0.000 A 
BRANCH  16  18
ATOM     18  O   UNL     1       3.382   1.903  22.155  0.00  0.00    +0.000 OA
ATOM     19  H   UNL     1       3.013   1.005  22.172  0.00  0.00    +0.000 HD
ENDBRANCH  16  18
ENDBRANCH  11  12
BRANCH   1  21
ATOM     20  C   UNL     1       2.101   7.938  18.918  0.00  0.00    +0.000 C 
ATOM     21  C   UNL     1       2.864   6.903  19.298  0.00  0.00    +0.000 C 
BRANCH  20  25
ATOM     22  C   UNL     1      -0.174  10.210  21.781  0.00  0.00    +0.000 A 
ATOM     23  C   UNL     1       0.516   9.050  22.148  0.00  0.00    +0.000 A 
ATOM     24  C   UNL     1       1.251   8.330  21.202  0.00  0.00    +0.000 A 
ATOM     25  C   UNL     1       1.309   8.745  19.866  0.00  0.00    +0.000 A 
ATOM     26  C   UNL     1       0.627   9.916  19.506  0.00  0.00    +0.000 A 
ATOM     27  C   UNL     1      -0.113  10.638  20.450  0.00  0.00    +0.000 A 
BRANCH  22  29
ATOM     28  C   UNL     1      -0.864  12.509  22.479  0.00  0.00    +0.000 C 
ATOM     29  C   UNL     1      -0.915  11.023  22.811  0.00  0.00    +0.000 C 
ENDBRANCH  22  29
ENDBRANCH  20  25
ENDBRANCH   1  21
TORSDOF 5
ENDMDL
MODEL 2
REMARK VINA RESULT:      -8.6      0.460      1.069
REMARK  Name = 
REMARK  6 active torsions:
REMARK  status: ('A' for Active; 'I' for Inactive)
REMARK    1  A    between atoms: C_1  and  C_2
REMARK    2  A    between atoms: C_2  and  C_3
REMARK    3  A    between atoms: C_6  and  C_7
REMARK    4  A    between atoms: C_8  and  C_9
REMARK    5  A    between atoms: N_19  and  C_20
REMARK    6  A    between atoms: C_24  and  O_25
REMARK                            x       y       z     vdW  Elec       q    Type
REMARK                         _______ _______ _______ _____ _____    ______ ____
ROOT
ATOM      1  C   UNL     1       3.715   6.069  18.054  0.00  0.00    +0.000 A 
ATOM      2  N   UNL     1       4.616   6.556  17.257  0.00  0.00    +0.000 NA
ATOM      3  C   UNL     1       5.293   5.666  16.405  0.00  0.00    +0.000 A 
ATOM      4  C   UNL     1       6.435   6.095  15.728  0.00  0.00    +0.000 A 
ATOM      5  C   UNL     1       7.121   5.224  14.870  0.00  0.00    +0.000 A 
ATOM      6  C   UNL     1       6.655   3.925  14.665  0.00  0.00    +0.000 A 
ATOM      7  C   UNL     1       5.513   3.490  15.331  0.00  0.00    +0.000 A 
ATOM      8  C   UNL     1       4.851   4.360  16.206  0.00  0.00    +0.000 A 
ATOM      9  C   UNL     1       3.732   3.883  17.028  0.00  0.00    +0.000 A 
ATOM     10  O   UNL     1       3.206   2.805  16.761  0.00  0.00    +0.000 OA
ATOM     11  N   UNL     1       3.388   4.714  18.086  0.00  0.00    +0.000 N 
ENDROOT
BRANCH  11  12
ATOM     12  C   UNL     1       2.690   4.138  19.179  0.00  0.00    +0.000 A 
ATOM     13  C   UNL     1       1.288   4.219  19.218  0.00  0.00    +0.000 A 
ATOM     14  C   UNL     1       0.583   3.608  20.255  0.00  0.00    +0.000 A 
ATOM     15  C   UNL     1       1.271   2.878  21.227  0.00  0.00    +0.000 A 
ATOM     16  C   UNL     1       2.659   2.795  21.168  0.00  0.00    +0.000 A 
ATOM     17  C   UNL     1       3.379   3.447  20.173  0.00  0.00    +0.000 A 
BRANCH  16  18
ATOM     18  O   UNL     1       3.364   2.049  22.064  0.00  0.00    +0.000 OA
ATOM     19  H   UNL     1       3.576   2.603  22.833  0.00  0.00    +0.000 HD
ENDBRANCH  16  18
ENDBRANCH  11  12
BRANCH   1  21
ATOM     20  C   UNL     1       2.212   8.028  18.493  0.00  0.00    +0.000 C 
ATOM     21  C   UNL     1       2.880   6.952  18.935  0.00  0.00    +0.000 C 
BRANCH  20  25
ATOM     22  C   UNL     1      -0.150  10.640  20.967  0.00  0.00    +0.000 A 
ATOM     23  C   UNL     1       0.124  10.948  19.632  0.00  0.00    +0.000 A 
ATOM     24  C   UNL     1       0.892  10.083  18.845  0.00  0.00    +0.000 A 
ATOM     25  C   UNL     1       1.409   8.895  19.376  0.00  0.00    +0.000 A 
ATOM     26  C   UNL     1       1.119   8.584  20.713  0.00  0.00    +0.000 A 
ATOM     27  C   UNL     1       0.354   9.450  21.503  0.00  0.00    +0.000 A 
BRANCH  22  29
ATOM     28  C   UNL     1      -1.295  10.934  23.171  0.00  0.00    +0.000 C 
ATOM     29  C   UNL     1      -1.030  11.539  21.799  0.00  0.00    +0.000 C 
ENDBRANCH  22  29
ENDBRANCH  20  25
ENDBRANCH   1  21
TORSDOF 5
ENDMDL
MODEL 3
REMARK VINA RESULT:      -7.8      1.115      1.402
REMARK  Name = 
REMARK  6 active torsions:
REMARK  status: ('A' for Active; 'I' for Inactive)
REMARK    1  A    between atoms: C_1  and  C_2
REMARK    2  A    between atoms: C_2  and  C_3
REMARK    3  A    between atoms: C_6  and  C_7
REMARK    4  A    between atoms: C_8  and  C_9
REMARK    5  A    between atoms: N_19  and  C_20
REMARK    6  A    between atoms: C_24  and  O_25
REMARK                            x       y       z     vdW  Elec       q    Type
REMARK                         _______ _______ _______ _____ _____    ______ ____
ROOT
ATOM      1  C   UNL     1       3.724   6.236  17.846  0.00  0.00    +0.000 A 
ATOM      2  N   UNL     1       4.631   6.727  17.059  0.00  0.00    +0.000 NA
ATOM      3  C   UNL     1       5.364   5.832  16.259  0.00  0.00    +0.000 A 
ATOM      4  C   UNL     1       6.511   6.278  15.600  0.00  0.00    +0.000 A 
ATOM      5  C   UNL     1       7.252   5.403  14.795  0.00  0.00    +0.000 A 
ATOM      6  C   UNL     1       6.838   4.081  14.623  0.00  0.00    +0.000 A 
ATOM      7  C   UNL     1       5.692   3.629  15.271  0.00  0.00    +0.000 A 
ATOM      8  C   UNL     1       4.975   4.505  16.095  0.00  0.00    +0.000 A 
ATOM      9  C   UNL     1       3.849   4.017  16.900  0.00  0.00    +0.000 A 
ATOM     10  O   UNL     1       3.369   2.912  16.657  0.00  0.00    +0.000 OA
ATOM     11  N   UNL     1       3.444   4.872  17.917  0.00  0.00    +0.000 N 
ENDROOT
BRANCH  11  12
ATOM     12  C   UNL     1       2.733   4.309  19.010  0.00  0.00    +0.000 A 
ATOM     13  C   UNL     1       3.139   4.610  20.320  0.00  0.00    +0.000 A 
ATOM     14  C   UNL     1       2.417   4.112  21.405  0.00  0.00    +0.000 A 
ATOM     15  C   UNL     1       1.266   3.352  21.183  0.00  0.00    +0.000 A 
ATOM     16  C   UNL     1       0.869   3.073  19.879  0.00  0.00    +0.000 A 
ATOM     17  C   UNL     1       1.611   3.514  18.789  0.00  0.00    +0.000 A 
BRANCH  16  18
ATOM     18  O   UNL     1      -0.277   2.382  19.618  0.00  0.00    +0.000 OA
ATOM     19  H   UNL     1      -0.354   1.655  20.257  0.00  0.00    +0.000 HD
ENDBRANCH  16  18
ENDBRANCH  11  12
BRANCH   1  21
ATOM     20  C   UNL     1       2.192   8.191  18.184  0.00  0.00    +0.000 C 
ATOM     21  C   UNL     1       2.832   7.119  18.670  0.00  0.00    +0.000 C 
BRANCH  20  25
ATOM     22  C   UNL     1      -0.286  10.648  20.705  0.00  0.00    +0.000 A 
ATOM     23  C   UNL     1       0.407   9.544  21.212  0.00  0.00    +0.000 A 
ATOM     24  C   UNL     1       1.210   8.762  20.375  0.00  0.00    +0.000 A 
ATOM     25  C   UNL     1       1.332   9.059  19.012  0.00  0.00    +0.000 A 
ATOM     26  C   UNL     1       0.645  10.174  18.511  0.00  0.00    +0.000 A 
ATOM     27  C   UNL     1      -0.162  10.956  19.346  0.00  0.00    +0.000 A 
BRANCH  22  29
ATOM     28  C   UNL     1      -1.172  10.951  23.023  0.00  0.00    +0.000 C 
ATOM     29  C   UNL     1      -1.101  11.529  21.617  0.00  0.00    +0.000 C 
ENDBRANCH  22  29
ENDBRANCH  20  25
ENDBRANCH   1  21
TORSDOF 5
ENDMDL
MODEL 4
REMARK VINA RESULT:      -7.3      1.753      7.543
REMARK  Name = 
REMARK  6 active torsions:
REMARK  status: ('A' for Active; 'I' for Inactive)
REMARK    1  A    between atoms: C_1  and  C_2
REMARK    2  A    between atoms: C_2  and  C_3
REMARK    3  A    between atoms: C_6  and  C_7
REMARK    4  A    between atoms: C_8  and  C_9
REMARK    5  A    between atoms: N_19  and  C_20
REMARK    6  A    between atoms: C_24  and  O_25
REMARK                            x       y       z     vdW  Elec       q    Type
REMARK                         _______ _______ _______ _____ _____    ______ ____
ROOT
ATOM      1  C   UNL     1       2.665   6.667  18.130  0.00  0.00    +0.000 A 
ATOM      2  N   UNL     1       2.332   7.921  18.094  0.00  0.00    +0.000 NA
ATOM      3  C   UNL     1       1.705   8.470  19.227  0.00  0.00    +0.000 A 
ATOM      4  C   UNL     1       1.101   9.725  19.141  0.00  0.00    +0.000 A 
ATOM      5  C   UNL     1       0.475  10.290  20.260  0.00  0.00    +0.000 A 
ATOM      6  C   UNL     1       0.470   9.615  21.481  0.00  0.00    +0.000 A 
ATOM      7  C   UNL     1       1.075   8.366  21.579  0.00  0.00    +0.000 A 
ATOM      8  C   UNL     1       1.673   7.798  20.447  0.00  0.00    +0.000 A 
ATOM      9  C   UNL     1       2.190   6.425  20.486  0.00  0.00    +0.000 A 
ATOM     10  O   UNL     1       2.340   5.868  21.572  0.00  0.00    +0.000 OA
ATOM     11  N   UNL     1       2.438   5.858  19.243  0.00  0.00    +0.000 N 
ENDROOT
BRANCH  11  12
ATOM     12  C   UNL     1       2.462   4.441  19.155  0.00  0.00    +0.000 A 
ATOM     13  C   UNL     1       1.329   3.764  18.674  0.00  0.00    +0.000 A 
ATOM     14  C   UNL     1       1.357   2.377  18.528  0.00  0.00    +0.000 A 
ATOM     15  C   UNL     1       2.527   1.671  18.818  0.00  0.00    +0.000 A 
ATOM     16  C   UNL     1       3.646   2.357  19.282  0.00  0.00    +0.000 A 
ATOM     17  C   UNL     1       3.615   3.732  19.487  0.00  0.00    +0.000 A 
BRANCH  16  18
ATOM     18  O   UNL     1       4.823   1.714  19.524  0.00  0.00    +0.000 OA
ATOM     19  H   UNL     1       5.040   1.161  18.756  0.00  0.00    +0.000 HD
ENDBRANCH  16  18
ENDBRANCH  11  12
BRANCH   1  21
ATOM     20  C   UNL     1       4.744   6.110  16.846  0.00  0.00    +0.000 C 
ATOM     21  C   UNL     1       3.416   6.018  17.005  0.00  0.00    +0.000 C 
BRANCH  20  25
ATOM     22  C   UNL     1       6.737   4.206  13.539  0.00  0.00    +0.000 A 
ATOM     23  C   UNL     1       5.390   3.959  13.822  0.00  0.00    +0.000 A 
ATOM     24  C   UNL     1       4.762   4.592  14.900  0.00  0.00    +0.000 A 
ATOM     25  C   UNL     1       5.465   5.478  15.724  0.00  0.00    +0.000 A 
ATOM     26  C   UNL     1       6.813   5.732  15.428  0.00  0.00    +0.000 A 
ATOM     27  C   UNL     1       7.445   5.098  14.352  0.00  0.00    +0.000 A 
BRANCH  22  29
ATOM     28  C   UNL     1       6.455   2.612  11.634  0.00  0.00    +0.000 C 
ATOM     29  C   UNL     1       7.399   3.574  12.341  0.00  0.00    +0.000 C 
ENDBRANCH  22  29
ENDBRANCH  20  25
ENDBRANCH   1  21
TORSDOF 5
ENDMDL
MODEL 5
REMARK VINA RESULT:      -7.2      1.827      7.647
REMARK  Name = 
REMARK  6 active torsions:
REMARK  status: ('A' for Active; 'I' for Inactive)
REMARK    1  A    between atoms: C_1  and  C_2
REMARK    2  A    between atoms: C_2  and  C_3
REMARK    3  A    between atoms: C_6  and  C_7
REMARK    4  A    between atoms: C_8  and  C_9
REMARK    5  A    between atoms: N_19  and  C_20
REMARK    6  A    between atoms: C_24  and  O_25
REMARK                            x       y       z     vdW  Elec       q    Type
REMARK                         _______ _______ _______ _____ _____    ______ ____
ROOT
ATOM      1  C   UNL     1       2.707   6.740  18.054  0.00  0.00    +0.000 A 
ATOM      2  N   UNL     1       2.380   7.995  18.075  0.00  0.00    +0.000 NA
ATOM      3  C   UNL     1       1.762   8.496  19.235  0.00  0.00    +0.000 A 
ATOM      4  C   UNL     1       1.164   9.756  19.208  0.00  0.00    +0.000 A 
ATOM      5  C   UNL     1       0.547  10.274  20.355  0.00  0.00    +0.000 A 
ATOM      6  C   UNL     1       0.545   9.545  21.544  0.00  0.00    +0.000 A 
ATOM      7  C   UNL     1       1.144   8.289  21.583  0.00  0.00    +0.000 A 
ATOM      8  C   UNL     1       1.734   7.770  20.424  0.00  0.00    +0.000 A 
ATOM      9  C   UNL     1       2.244   6.394  20.399  0.00  0.00    +0.000 A 
ATOM     10  O   UNL     1       2.396   5.789  21.458  0.00  0.00    +0.000 OA
ATOM     11  N   UNL     1       2.482   5.882  19.130  0.00  0.00    +0.000 N 
ENDROOT
BRANCH  11  12
ATOM     12  C   UNL     1       2.499   4.471  18.979  0.00  0.00    +0.000 A 
ATOM     13  C   UNL     1       3.681   3.765  19.259  0.00  0.00    +0.000 A 
ATOM     14  C   UNL     1       3.698   2.372  19.171  0.00  0.00    +0.000 A 
ATOM     15  C   UNL     1       2.527   1.683  18.851  0.00  0.00    +0.000 A 
ATOM     16  C   UNL     1       1.360   2.395  18.589  0.00  0.00    +0.000 A 
ATOM     17  C   UNL     1       1.342   3.785  18.616  0.00  0.00    +0.000 A 
BRANCH  16  18
ATOM     18  O   UNL     1       0.184   1.759  18.326  0.00  0.00    +0.000 OA
ATOM     19  H   UNL     1       0.279   1.258  17.500  0.00  0.00    +0.000 HD
ENDBRANCH  16  18
ENDBRANCH  11  12
BRANCH   1  21
ATOM     20  C   UNL     1       4.782   6.001  16.857  0.00  0.00    +0.000 C 
ATOM     21  C   UNL     1       3.449   6.138  16.896  0.00  0.00    +0.000 C 
BRANCH  20  25
ATOM     22  C   UNL     1       6.757   4.252  13.455  0.00  0.00    +0.000 A 
ATOM     23  C   UNL     1       5.405   4.012  13.719  0.00  0.00    +0.000 A 
ATOM     24  C   UNL     1       4.783   4.594  14.829  0.00  0.00    +0.000 A 
ATOM     25  C   UNL     1       5.498   5.421  15.704  0.00  0.00    +0.000 A 
ATOM     26  C   UNL     1       6.850   5.669  15.427  0.00  0.00    +0.000 A 
ATOM     27  C   UNL     1       7.476   5.085  14.319  0.00  0.00    +0.000 A 
BRANCH  22  29
ATOM     28  C   UNL     1       6.585   2.545  11.637  0.00  0.00    +0.000 C 
ATOM     29  C   UNL     1       7.414   3.678  12.226  0.00  0.00    +0.000 C 
ENDBRANCH  22  29
ENDBRANCH  20  25
ENDBRANCH   1  21
TORSDOF 5
ENDMDL
MODEL 6
REMARK VINA RESULT:      -7.0      4.656     10.367
REMARK  Name = 
REMARK  6 active torsions:
REMARK  status: ('A' for Active; 'I' for Inactive)
REMARK    1  A    between atoms: C_1  and  C_2
REMARK    2  A    between atoms: C_2  and  C_3
REMARK    3  A    between atoms: C_6  and  C_7
REMARK    4  A    between atoms: C_8  and  C_9
REMARK    5  A    between atoms: N_19  and  C_20
REMARK    6  A    between atoms: C_24  and  O_25
REMARK                            x       y       z     vdW  Elec       q    Type
REMARK                         _______ _______ _______ _____ _____    ______ ____
ROOT
ATOM      1  C   UNL     1      -0.505  11.748  21.584  0.00  0.00    +0.000 A 
ATOM      2  N   UNL     1      -1.444  11.424  22.419  0.00  0.00    +0.000 NA
ATOM      3  C   UNL     1      -2.360  12.421  22.801  0.00  0.00    +0.000 A 
ATOM      4  C   UNL     1      -3.215  12.195  23.880  0.00  0.00    +0.000 A 
ATOM      5  C   UNL     1      -4.138  13.174  24.273  0.00  0.00    +0.000 A 
ATOM      6  C   UNL     1      -4.229  14.377  23.573  0.00  0.00    +0.000 A 
ATOM      7  C   UNL     1      -3.384  14.610  22.491  0.00  0.00    +0.000 A 
ATOM      8  C   UNL     1      -2.448  13.636  22.125  0.00  0.00    +0.000 A 
ATOM      9  C   UNL     1      -1.452  13.914  21.083  0.00  0.00    +0.000 A 
ATOM     10  O   UNL     1      -1.601  14.890  20.351  0.00  0.00    +0.000 OA
ATOM     11  N   UNL     1      -0.381  13.029  21.047  0.00  0.00    +0.000 N 
ENDROOT
BRANCH  11  12
ATOM     12  C   UNL     1       0.823  13.473  20.441  0.00  0.00    +0.000 A 
ATOM     13  C   UNL     1       1.772  14.157  21.219  0.00  0.00    +0.000 A 
ATOM     14  C   UNL     1       2.985  14.550  20.652  0.00  0.00    +0.000 A 
ATOM     15  C   UNL     1       3.269  14.222  19.325  0.00  0.00    +0.000 A 
ATOM     16  C   UNL     1       2.325  13.533  18.570  0.00  0.00    +0.000 A 
ATOM     17  C   UNL     1       1.089  13.185  19.104  0.00  0.00    +0.000 A 
BRANCH  16  18
ATOM     18  O   UNL     1       2.585  13.146  17.289  0.00  0.00    +0.000 OA
ATOM     19  H   UNL     1       2.301  13.853  16.687  0.00  0.00    +0.000 HD
ENDBRANCH  16  18
ENDBRANCH  11  12
BRANCH   1  21
ATOM     20  C   UNL     1       0.183   9.896  20.042  0.00  0.00    +0.000 C 
ATOM     21  C   UNL     1       0.462  10.732  21.052  0.00  0.00    +0.000 C 
BRANCH  20  25
ATOM     22  C   UNL     1       2.988   7.034  18.470  0.00  0.00    +0.000 A 
ATOM     23  C   UNL     1       2.571   8.137  17.720  0.00  0.00    +0.000 A 
ATOM     24  C   UNL     1       1.661   9.056  18.253  0.00  0.00    +0.000 A 
ATOM     25  C   UNL     1       1.142   8.891  19.542  0.00  0.00    +0.000 A 
ATOM     26  C   UNL     1       1.574   7.789  20.295  0.00  0.00    +0.000 A 
ATOM     27  C   UNL     1       2.482   6.866  19.764  0.00  0.00    +0.000 A 
BRANCH  22  29
ATOM     28  C   UNL     1       4.795   6.702  16.774  0.00  0.00    +0.000 C 
ATOM     29  C   UNL     1       4.017   6.076  17.923  0.00  0.00    +0.000 C 
ENDBRANCH  22  29
ENDBRANCH  20  25
ENDBRANCH   1  21
TORSDOF 5
ENDMDL
MODEL 7
REMARK VINA RESULT:      -7.0      3.541      6.742
REMARK  Name = 
REMARK  6 active torsions:
REMARK  status: ('A' for Active; 'I' for Inactive)
REMARK    1  A    between atoms: C_1  and  C_2
REMARK    2  A    between atoms: C_2  and  C_3
REMARK    3  A    between atoms: C_6  and  C_7
REMARK    4  A    between atoms: C_8  and  C_9
REMARK    5  A    between atoms: N_19  and  C_20
REMARK    6  A    between atoms: C_24  and  O_25
REMARK                            x       y       z     vdW  Elec       q    Type
REMARK                         _______ _______ _______ _____ _____    ______ ____
ROOT
ATOM      1  C   UNL     1       0.851   9.289  20.737  0.00  0.00    +0.000 A 
ATOM      2  N   UNL     1       1.250   8.165  21.249  0.00  0.00    +0.000 NA
ATOM      3  C   UNL     1       1.792   7.201  20.380  0.00  0.00    +0.000 A 
ATOM      4  C   UNL     1       1.989   5.896  20.835  0.00  0.00    +0.000 A 
ATOM      5  C   UNL     1       2.533   4.923  19.987  0.00  0.00    +0.000 A 
ATOM      6  C   UNL     1       2.907   5.253  18.683  0.00  0.00    +0.000 A 
ATOM      7  C   UNL     1       2.720   6.553  18.222  0.00  0.00    +0.000 A 
ATOM      8  C   UNL     1       2.150   7.511  19.070  0.00  0.00    +0.000 A 
ATOM      9  C   UNL     1       1.811   8.847  18.565  0.00  0.00    +0.000 A 
ATOM     10  O   UNL     1       2.262   9.214  17.483  0.00  0.00    +0.000 OA
ATOM     11  N   UNL     1       0.953   9.578  19.377  0.00  0.00    +0.000 N 
ENDROOT
BRANCH  11  12
ATOM     12  C   UNL     1       0.205  10.623  18.775  0.00  0.00    +0.000 A 
ATOM     13  C   UNL     1      -1.026  10.324  18.168  0.00  0.00    +0.000 A 
ATOM     14  C   UNL     1      -1.801  11.349  17.623  0.00  0.00    +0.000 A 
ATOM     15  C   UNL     1      -1.370  12.674  17.723  0.00  0.00    +0.000 A 
ATOM     16  C   UNL     1      -0.154  12.956  18.339  0.00  0.00    +0.000 A 
ATOM     17  C   UNL     1       0.655  11.940  18.836  0.00  0.00    +0.000 A 
BRANCH  16  18
ATOM     18  O   UNL     1       0.276  14.238  18.506  0.00  0.00    +0.000 OA
ATOM     19  H   UNL     1       1.180  14.220  18.861  0.00  0.00    +0.000 HD
ENDBRANCH  16  18
ENDBRANCH  11  12
BRANCH   1  21
ATOM     20  C   UNL     1      -0.958  10.696  21.752  0.00  0.00    +0.000 C 
ATOM     21  C   UNL     1       0.342  10.410  21.596  0.00  0.00    +0.000 C 
BRANCH  20  25
ATOM     22  C   UNL     1      -2.262  14.022  24.154  0.00  0.00    +0.000 A 
ATOM     23  C   UNL     1      -1.069  14.068  23.427  0.00  0.00    +0.000 A 
ATOM     24  C   UNL     1      -0.666  12.976  22.650  0.00  0.00    +0.000 A 
ATOM     25  C   UNL     1      -1.441  11.812  22.588  0.00  0.00    +0.000 A 
ATOM     26  C   UNL     1      -2.644  11.777  23.309  0.00  0.00    +0.000 A 
ATOM     27  C   UNL     1      -3.048  12.866  24.089  0.00  0.00    +0.000 A 
BRANCH  22  29
ATOM     28  C   UNL     1      -1.649  15.708  25.895  0.00  0.00    +0.000 C 
ATOM     29  C   UNL     1      -2.730  15.220  24.940  0.00  0.00    +0.000 C 
ENDBRANCH  22  29
ENDBRANCH  20  25
ENDBRANCH   1  21
TORSDOF 5
ENDMDL
MODEL 8
REMARK VINA RESULT:      -7.0      7.550     10.779
REMARK  Name = 
REMARK  6 active torsions:
REMARK  status: ('A' for Active; 'I' for Inactive)
REMARK    1  A    between atoms: C_1  and  C_2
REMARK    2  A    between atoms: C_2  and  C_3
REMARK    3  A    between atoms: C_6  and  C_7
REMARK    4  A    between atoms: C_8  and  C_9
REMARK    5  A    between atoms: N_19  and  C_20
REMARK    6  A    between atoms: C_24  and  O_25
REMARK                            x       y       z     vdW  Elec       q    Type
REMARK                         _______ _______ _______ _____ _____    ______ ____
ROOT
ATOM      1  C   UNL     1       3.574  14.884  18.106  0.00  0.00    +0.000 A 
ATOM      2  N   UNL     1       4.778  14.402  18.061  0.00  0.00    +0.000 NA
ATOM      3  C   UNL     1       5.847  15.271  18.344  0.00  0.00    +0.000 A 
ATOM      4  C   UNL     1       7.153  14.872  18.056  0.00  0.00    +0.000 A 
ATOM      5  C   UNL     1       8.232  15.722  18.335  0.00  0.00    +0.000 A 
ATOM      6  C   UNL     1       8.014  16.967  18.925  0.00  0.00    +0.000 A 
ATOM      7  C   UNL     1       6.716  17.371  19.222  0.00  0.00    +0.000 A 
ATOM      8  C   UNL     1       5.643  16.525  18.914  0.00  0.00    +0.000 A 
ATOM      9  C   UNL     1       4.259  16.984  19.082  0.00  0.00    +0.000 A 
ATOM     10  O   UNL     1       4.037  18.001  19.736  0.00  0.00    +0.000 OA
ATOM     11  N   UNL     1       3.304  16.212  18.434  0.00  0.00    +0.000 N 
ENDROOT
BRANCH  11  12
ATOM     12  C   UNL     1       2.056  16.819  18.134  0.00  0.00    +0.000 A 
ATOM     13  C   UNL     1       1.969  17.705  17.047  0.00  0.00    +0.000 A 
ATOM     14  C   UNL     1       0.738  18.265  16.703  0.00  0.00    +0.000 A 
ATOM     15  C   UNL     1      -0.411  17.908  17.413  0.00  0.00    +0.000 A 
ATOM     16  C   UNL     1      -0.310  17.018  18.479  0.00  0.00    +0.000 A 
ATOM     17  C   UNL     1       0.918  16.496  18.869  0.00  0.00    +0.000 A 
BRANCH  16  18
ATOM     18  O   UNL     1      -1.413  16.602  19.162  0.00  0.00    +0.000 OA
ATOM     19  H   UNL     1      -1.978  16.091  18.560  0.00  0.00    +0.000 HD
ENDBRANCH  16  18
ENDBRANCH  11  12
BRANCH   1  21
ATOM     20  C   UNL     1       1.988  13.058  18.768  0.00  0.00    +0.000 C 
ATOM     21  C   UNL     1       2.367  14.013  17.907  0.00  0.00    +0.000 C 
BRANCH  20  25
ATOM     22  C   UNL     1      -1.528  10.664  18.109  0.00  0.00    +0.000 A 
ATOM     23  C   UNL     1      -1.579  12.061  18.082  0.00  0.00    +0.000 A 
ATOM     24  C   UNL     1      -0.423  12.818  18.296  0.00  0.00    +0.000 A 
ATOM     25  C   UNL     1       0.808  12.200  18.548  0.00  0.00    +0.000 A 
ATOM     26  C   UNL     1       0.855  10.798  18.561  0.00  0.00    +0.000 A 
ATOM     27  C   UNL     1      -0.300  10.037  18.351  0.00  0.00    +0.000 A 
BRANCH  22  29
ATOM     28  C   UNL     1      -3.040   9.788  16.321  0.00  0.00    +0.000 C 
ATOM     29  C   UNL     1      -2.759   9.844  17.816  0.00  0.00    +0.000 C 
ENDBRANCH  22  29
ENDBRANCH  20  25
ENDBRANCH   1  21
TORSDOF 5
ENDMDL
MODEL 9
REMARK VINA RESULT:      -6.9      3.499      6.884
REMARK  Name = 
REMARK  6 active torsions:
REMARK  status: ('A' for Active; 'I' for Inactive)
REMARK    1  A    between atoms: C_1  and  C_2
REMARK    2  A    between atoms: C_2  and  C_3
REMARK    3  A    between atoms: C_6  and  C_7
REMARK    4  A    between atoms: C_8  and  C_9
REMARK    5  A    between atoms: N_19  and  C_20
REMARK    6  A    between atoms: C_24  and  O_25
REMARK                            x       y       z     vdW  Elec       q    Type
REMARK                         _______ _______ _______ _____ _____    ______ ____
ROOT
ATOM      1  C   UNL     1       0.784   9.381  20.836  0.00  0.00    +0.000 A 
ATOM      2  N   UNL     1       1.093   8.199  21.272  0.00  0.00    +0.000 NA
ATOM      3  C   UNL     1       1.652   7.285  20.360  0.00  0.00    +0.000 A 
ATOM      4  C   UNL     1       1.757   5.939  20.711  0.00  0.00    +0.000 A 
ATOM      5  C   UNL     1       2.315   5.014  19.818  0.00  0.00    +0.000 A 
ATOM      6  C   UNL     1       2.794   5.433  18.577  0.00  0.00    +0.000 A 
ATOM      7  C   UNL     1       2.700   6.775  18.220  0.00  0.00    +0.000 A 
ATOM      8  C   UNL     1       2.115   7.686  19.109  0.00  0.00    +0.000 A 
ATOM      9  C   UNL     1       1.873   9.075  18.702  0.00  0.00    +0.000 A 
ATOM     10  O   UNL     1       2.416   9.509  17.688  0.00  0.00    +0.000 OA
ATOM     11  N   UNL     1       0.994   9.778  19.516  0.00  0.00    +0.000 N 
ENDROOT
BRANCH  11  12
ATOM     12  C   UNL     1       0.339  10.908  18.960  0.00  0.00    +0.000 A 
ATOM     13  C   UNL     1       0.961  12.165  19.028  0.00  0.00    +0.000 A 
ATOM     14  C   UNL     1       0.357  13.275  18.436  0.00  0.00    +0.000 A 
ATOM     15  C   UNL     1      -0.843  13.122  17.738  0.00  0.00    +0.000 A 
ATOM     16  C   UNL     1      -1.441  11.867  17.667  0.00  0.00    +0.000 A 
ATOM     17  C   UNL     1      -0.880  10.764  18.301  0.00  0.00    +0.000 A 
BRANCH  16  18
ATOM     18  O   UNL     1      -2.583  11.665  16.951  0.00  0.00    +0.000 OA
ATOM     19  H   UNL     1      -3.269  12.265  17.282  0.00  0.00    +0.000 HD
ENDBRANCH  16  18
ENDBRANCH  11  12
BRANCH   1  21
ATOM     20  C   UNL     1      -0.983  10.933  21.704  0.00  0.00    +0.000 C 
ATOM     21  C   UNL     1       0.266  10.450  21.754  0.00  0.00    +0.000 C 
BRANCH  20  25
ATOM     22  C   UNL     1      -2.303  14.107  24.296  0.00  0.00    +0.000 A 
ATOM     23  C   UNL     1      -1.115  14.205  23.564  0.00  0.00    +0.000 A 
ATOM     24  C   UNL     1      -0.708  13.162  22.726  0.00  0.00    +0.000 A 
ATOM     25  C   UNL     1      -1.471  11.996  22.604  0.00  0.00    +0.000 A 
ATOM     26  C   UNL     1      -2.668  11.907  23.331  0.00  0.00    +0.000 A 
ATOM     27  C   UNL     1      -3.077  12.948  24.173  0.00  0.00    +0.000 A 
BRANCH  22  29
ATOM     28  C   UNL     1      -1.653  15.785  26.031  0.00  0.00    +0.000 C 
ATOM     29  C   UNL     1      -2.777  15.254  25.151  0.00  0.00    +0.000 C 
ENDBRANCH  22  29
ENDBRANCH  20  25
ENDBRANCH   1  21
TORSDOF 5
ENDMDL
