MODEL 1
REMARK VINA RESULT:      -8.2      0.000      0.000
REMARK  Name = 
REMARK  1 active torsions:
REMARK  status: ('A' for Active; 'I' for Inactive)
REMARK    1  A    between atoms: C_7  and  C_8
REMARK                            x       y       z     vdW  Elec       q    Type
REMARK                         _______ _______ _______ _____ _____    ______ ____
ROOT
ATOM      1  N   UNL     1       7.916   5.327  13.517  0.00  0.00    +0.000 N 
ATOM      2  C   UNL     1       7.129   5.011  14.556  0.00  0.00    +0.000 A 
ATOM      3  N   UNL     1       7.444   5.275  15.798  0.00  0.00    +0.000 NA
ATOM      4  C   UNL     1       6.420   4.879  16.643  0.00  0.00    +0.000 A 
ATOM      5  C   UNL     1       6.395   5.033  18.043  0.00  0.00    +0.000 A 
ATOM      6  C   UNL     1       5.282   4.596  18.773  0.00  0.00    +0.000 A 
ATOM      7  C   UNL     1       4.194   4.002  18.127  0.00  0.00    +0.000 A 
ATOM      8  C   UNL     1       4.204   3.836  16.734  0.00  0.00    +0.000 A 
ATOM      9  C   UNL     1       5.326   4.282  16.014  0.00  0.00    +0.000 A 
ATOM     10  S   UNL     1       5.623   4.226  14.320  0.00  0.00    +0.000 S 
ATOM     11  H   UNL     1       8.872   5.600  13.718  0.00  0.00    +0.000 HD
ATOM     12  H   UNL     1       7.755   4.906  12.612  0.00  0.00    +0.000 HD
ENDROOT
BRANCH   7  13
ATOM     13  C   UNL     1       3.019   3.571  18.902  0.00  0.00    +0.000 A 
ATOM     14  C   UNL     1       1.779   3.152  18.264  0.00  0.00    +0.000 A 
ATOM     15  C   UNL     1       0.736   2.761  19.008  0.00  0.00    +0.000 A 
ATOM     16  N   UNL     1       0.830   2.753  20.373  0.00  0.00    +0.000 N 
ATOM     17  C   UNL     1       1.956   3.129  21.069  0.00  0.00    +0.000 A 
ATOM     18  O   UNL     1       2.017   3.111  22.291  0.00  0.00    +0.000 OA
ATOM     19  C   UNL     1       3.113   3.562  20.243  0.00  0.00    +0.000 A 
ATOM     20  H   UNL     1       0.043   2.457  20.940  0.00  0.00    +0.000 HD
ENDBRANCH   7  13
TORSDOF 1
ENDMDL
MODEL 2
REMARK VINA RESULT:      -8.1      1.261      1.663
REMARK  Name = 
REMARK  1 active torsions:
REMARK  status: ('A' for Active; 'I' for Inactive)
REMARK    1  A    between atoms: C_7  and  C_8
REMARK                            x       y       z     vdW  Elec       q    Type
REMARK                         _______ _______ _______ _____ _____    ______ ____
ROOT
ATOM      1  N   UNL     1       8.082   5.437  13.498  0.00  0.00    +0.000 N 
ATOM      2  C   UNL     1       7.240   5.248  14.524  0.00  0.00    +0.000 A 
ATOM      3  N   UNL     1       7.363   5.862  15.673  0.00  0.00    +0.000 NA
ATOM      4  C   UNL     1       6.324   5.506  16.517  0.00  0.00    +0.000 A 
ATOM      5  C   UNL     1       6.112   5.992  17.822  0.00  0.00    +0.000 A 
ATOM      6  C   UNL     1       5.005   5.553  18.559  0.00  0.00    +0.000 A 
ATOM      7  C   UNL     1       4.107   4.631  18.015  0.00  0.00    +0.000 A 
ATOM      8  C   UNL     1       4.304   4.132  16.719  0.00  0.00    +0.000 A 
ATOM      9  C   UNL     1       5.418   4.584  15.989  0.00  0.00    +0.000 A 
ATOM     10  S   UNL     1       5.914   4.169  14.395  0.00  0.00    +0.000 S 
ATOM     11  H   UNL     1       8.953   5.920  13.689  0.00  0.00    +0.000 HD
ATOM     12  H   UNL     1       8.096   4.785  12.726  0.00  0.00    +0.000 HD
ENDROOT
BRANCH   7  13
ATOM     13  C   UNL     1       2.932   4.197  18.790  0.00  0.00    +0.000 A 
ATOM     14  C   UNL     1       2.631   4.734  20.109  0.00  0.00    +0.000 A 
ATOM     15  C   UNL     1       1.548   4.316  20.777  0.00  0.00    +0.000 A 
ATOM     16  N   UNL     1       0.718   3.381  20.222  0.00  0.00    +0.000 N 
ATOM     17  C   UNL     1       0.915   2.815  18.985  0.00  0.00    +0.000 A 
ATOM     18  O   UNL     1       0.156   1.981  18.508  0.00  0.00    +0.000 OA
ATOM     19  C   UNL     1       2.116   3.279  18.243  0.00  0.00    +0.000 A 
ATOM     20  H   UNL     1      -0.104   3.062  20.724  0.00  0.00    +0.000 HD
ENDBRANCH   7  13
TORSDOF 1
ENDMDL
MODEL 3
REMARK VINA RESULT:      -7.2      2.997      6.651
REMARK  Name = 
REMARK  1 active torsions:
REMARK  status: ('A' for Active; 'I' for Inactive)
REMARK    1  A    between atoms: C_7  and  C_8
REMARK                            x       y       z     vdW  Elec       q    Type
REMARK                         _______ _______ _______ _____ _____    ______ ____
ROOT
ATOM      1  N   UNL     1       0.802   2.255  22.395  0.00  0.00    +0.000 N 
ATOM      2  C   UNL     1       1.502   2.640  21.317  0.00  0.00    +0.000 A 
ATOM      3  N   UNL     1       0.942   2.996  20.190  0.00  0.00    +0.000 NA
ATOM      4  C   UNL     1       1.910   3.389  19.281  0.00  0.00    +0.000 A 
ATOM      5  C   UNL     1       1.677   3.864  17.975  0.00  0.00    +0.000 A 
ATOM      6  C   UNL     1       2.756   4.242  17.166  0.00  0.00    +0.000 A 
ATOM      7  C   UNL     1       4.068   4.149  17.640  0.00  0.00    +0.000 A 
ATOM      8  C   UNL     1       4.320   3.674  18.936  0.00  0.00    +0.000 A 
ATOM      9  C   UNL     1       3.226   3.302  19.737  0.00  0.00    +0.000 A 
ATOM     10  S   UNL     1       3.215   2.700  21.349  0.00  0.00    +0.000 S 
ATOM     11  H   UNL     1      -0.181   2.043  22.263  0.00  0.00    +0.000 HD
ATOM     12  H   UNL     1       1.263   1.773  23.153  0.00  0.00    +0.000 HD
ENDROOT
BRANCH   7  13
ATOM     13  C   UNL     1       5.193   4.575  16.790  0.00  0.00    +0.000 A 
ATOM     14  C   UNL     1       5.493   3.930  15.520  0.00  0.00    +0.000 A 
ATOM     15  C   UNL     1       6.522   4.353  14.775  0.00  0.00    +0.000 A 
ATOM     16  N   UNL     1       7.298   5.396  15.205  0.00  0.00    +0.000 N 
ATOM     17  C   UNL     1       7.096   6.069  16.386  0.00  0.00    +0.000 A 
ATOM     18  O   UNL     1       7.802   7.001  16.748  0.00  0.00    +0.000 OA
ATOM     19  C   UNL     1       5.953   5.599  17.212  0.00  0.00    +0.000 A 
ATOM     20  H   UNL     1       8.078   5.720  14.643  0.00  0.00    +0.000 HD
ENDBRANCH   7  13
TORSDOF 1
ENDMDL
MODEL 4
REMARK VINA RESULT:      -7.2      3.170      6.788
REMARK  Name = 
REMARK  1 active torsions:
REMARK  status: ('A' for Active; 'I' for Inactive)
REMARK    1  A    between atoms: C_7  and  C_8
REMARK                            x       y       z     vdW  Elec       q    Type
REMARK                         _______ _______ _______ _____ _____    ______ ____
ROOT
ATOM      1  N   UNL     1       0.861   2.349  22.508  0.00  0.00    +0.000 N 
ATOM      2  C   UNL     1       1.546   2.789  21.442  0.00  0.00    +0.000 A 
ATOM      3  N   UNL     1       1.012   3.529  20.505  0.00  0.00    +0.000 NA
ATOM      4  C   UNL     1       1.970   3.870  19.564  0.00  0.00    +0.000 A 
ATOM      5  C   UNL     1       1.767   4.681  18.431  0.00  0.00    +0.000 A 
ATOM      6  C   UNL     1       2.836   4.957  17.568  0.00  0.00    +0.000 A 
ATOM      7  C   UNL     1       4.106   4.429  17.818  0.00  0.00    +0.000 A 
ATOM      8  C   UNL     1       4.326   3.615  18.939  0.00  0.00    +0.000 A 
ATOM      9  C   UNL     1       3.245   3.350  19.797  0.00  0.00    +0.000 A 
ATOM     10  S   UNL     1       3.205   2.409  21.237  0.00  0.00    +0.000 S 
ATOM     11  H   UNL     1      -0.150   2.427  22.481  0.00  0.00    +0.000 HD
ATOM     12  H   UNL     1       1.233   1.602  23.077  0.00  0.00    +0.000 HD
ENDROOT
BRANCH   7  13
ATOM     13  C   UNL     1       5.228   4.747  16.918  0.00  0.00    +0.000 A 
ATOM     14  C   UNL     1       6.281   5.680  17.291  0.00  0.00    +0.000 A 
ATOM     15  C   UNL     1       7.287   5.936  16.445  0.00  0.00    +0.000 A 
ATOM     16  N   UNL     1       7.331   5.319  15.224  0.00  0.00    +0.000 N 
ATOM     17  C   UNL     1       6.387   4.423  14.780  0.00  0.00    +0.000 A 
ATOM     18  O   UNL     1       6.448   3.883  13.684  0.00  0.00    +0.000 OA
ATOM     19  C   UNL     1       5.271   4.140  15.720  0.00  0.00    +0.000 A 
ATOM     20  H   UNL     1       8.092   5.509  14.580  0.00  0.00    +0.000 HD
ENDBRANCH   7  13
TORSDOF 1
ENDMDL
MODEL 5
REMARK VINA RESULT:      -7.1      3.536      6.729
REMARK  Name = 
REMARK  1 active torsions:
REMARK  status: ('A' for Active; 'I' for Inactive)
REMARK    1  A    between atoms: C_7  and  C_8
REMARK                            x       y       z     vdW  Elec       q    Type
REMARK                         _______ _______ _______ _____ _____    ______ ____
ROOT
ATOM      1  N   UNL     1       2.291   3.557  21.237  0.00  0.00    +0.000 N 
ATOM      2  C   UNL     1       2.887   3.852  20.072  0.00  0.00    +0.000 A 
ATOM      3  N   UNL     1       3.124   5.078  19.680  0.00  0.00    +0.000 NA
ATOM      4  C   UNL     1       3.792   5.069  18.467  0.00  0.00    +0.000 A 
ATOM      5  C   UNL     1       4.236   6.202  17.757  0.00  0.00    +0.000 A 
ATOM      6  C   UNL     1       4.916   6.042  16.542  0.00  0.00    +0.000 A 
ATOM      7  C   UNL     1       5.155   4.767  16.022  0.00  0.00    +0.000 A 
ATOM      8  C   UNL     1       4.716   3.627  16.712  0.00  0.00    +0.000 A 
ATOM      9  C   UNL     1       4.038   3.803  17.932  0.00  0.00    +0.000 A 
ATOM     10  S   UNL     1       3.396   2.616  18.999  0.00  0.00    +0.000 S 
ATOM     11  H   UNL     1       1.832   4.313  21.733  0.00  0.00    +0.000 HD
ATOM     12  H   UNL     1       1.920   2.631  21.396  0.00  0.00    +0.000 HD
ENDROOT
BRANCH   7  13
ATOM     13  C   UNL     1       5.893   4.611  14.757  0.00  0.00    +0.000 A 
ATOM     14  C   UNL     1       5.457   3.697  13.711  0.00  0.00    +0.000 A 
ATOM     15  C   UNL     1       6.156   3.591  12.574  0.00  0.00    +0.000 A 
ATOM     16  N   UNL     1       7.284   4.343  12.388  0.00  0.00    +0.000 N 
ATOM     17  C   UNL     1       7.776   5.233  13.313  0.00  0.00    +0.000 A 
ATOM     18  O   UNL     1       8.787   5.897  13.123  0.00  0.00    +0.000 OA
ATOM     19  C   UNL     1       7.000   5.351  14.575  0.00  0.00    +0.000 A 
ATOM     20  H   UNL     1       7.815   4.267  11.527  0.00  0.00    +0.000 HD
ENDBRANCH   7  13
TORSDOF 1
ENDMDL
MODEL 6
REMARK VINA RESULT:      -7.0      1.431      1.542
REMARK  Name = 
REMARK  1 active torsions:
REMARK  status: ('A' for Active; 'I' for Inactive)
REMARK    1  A    between atoms: C_7  and  C_8
REMARK                            x       y       z     vdW  Elec       q    Type
REMARK                         _______ _______ _______ _____ _____    ______ ____
ROOT
ATOM      1  N   UNL     1       7.711   5.244  12.964  0.00  0.00    +0.000 N 
ATOM      2  C   UNL     1       7.136   5.056  14.161  0.00  0.00    +0.000 A 
ATOM      3  N   UNL     1       7.703   5.397  15.289  0.00  0.00    +0.000 NA
ATOM      4  C   UNL     1       6.853   5.129  16.349  0.00  0.00    +0.000 A 
ATOM      5  C   UNL     1       7.115   5.393  17.709  0.00  0.00    +0.000 A 
ATOM      6  C   UNL     1       6.152   5.081  18.678  0.00  0.00    +0.000 A 
ATOM      7  C   UNL     1       4.933   4.505  18.311  0.00  0.00    +0.000 A 
ATOM      8  C   UNL     1       4.657   4.231  16.964  0.00  0.00    +0.000 A 
ATOM      9  C   UNL     1       5.630   4.552  16.002  0.00  0.00    +0.000 A 
ATOM     10  S   UNL     1       5.581   4.347  14.294  0.00  0.00    +0.000 S 
ATOM     11  H   UNL     1       8.699   5.473  12.950  0.00  0.00    +0.000 HD
ATOM     12  H   UNL     1       7.355   4.764  12.149  0.00  0.00    +0.000 HD
ENDROOT
BRANCH   7  13
ATOM     13  C   UNL     1       3.919   4.206  19.337  0.00  0.00    +0.000 A 
ATOM     14  C   UNL     1       3.848   2.915  20.005  0.00  0.00    +0.000 A 
ATOM     15  C   UNL     1       2.913   2.687  20.937  0.00  0.00    +0.000 A 
ATOM     16  N   UNL     1       2.018   3.670  21.266  0.00  0.00    +0.000 N 
ATOM     17  C   UNL     1       2.004   4.920  20.694  0.00  0.00    +0.000 A 
ATOM     18  O   UNL     1       1.195   5.783  21.006  0.00  0.00    +0.000 OA
ATOM     19  C   UNL     1       3.042   5.172  19.660  0.00  0.00    +0.000 A 
ATOM     20  H   UNL     1       1.309   3.502  21.972  0.00  0.00    +0.000 HD
ENDBRANCH   7  13
TORSDOF 1
ENDMDL
MODEL 7
REMARK VINA RESULT:      -7.0      4.673      5.492
REMARK  Name = 
REMARK  1 active torsions:
REMARK  status: ('A' for Active; 'I' for Inactive)
REMARK    1  A    between atoms: C_7  and  C_8
REMARK                            x       y       z     vdW  Elec       q    Type
REMARK                         _______ _______ _______ _____ _____    ______ ____
ROOT
ATOM      1  N   UNL     1       3.867   0.911  18.473  0.00  0.00    +0.000 N 
ATOM      2  C   UNL     1       3.591   2.211  18.652  0.00  0.00    +0.000 A 
ATOM      3  N   UNL     1       3.953   3.142  17.807  0.00  0.00    +0.000 NA
ATOM      4  C   UNL     1       3.486   4.376  18.229  0.00  0.00    +0.000 A 
ATOM      5  C   UNL     1       3.657   5.602  17.556  0.00  0.00    +0.000 A 
ATOM      6  C   UNL     1       3.114   6.776  18.095  0.00  0.00    +0.000 A 
ATOM      7  C   UNL     1       2.406   6.746  19.300  0.00  0.00    +0.000 A 
ATOM      8  C   UNL     1       2.229   5.535  19.986  0.00  0.00    +0.000 A 
ATOM      9  C   UNL     1       2.776   4.365  19.432  0.00  0.00    +0.000 A 
ATOM     10  S   UNL     1       2.719   2.751  20.026  0.00  0.00    +0.000 S 
ATOM     11  H   UNL     1       4.550   0.671  17.763  0.00  0.00    +0.000 HD
ATOM     12  H   UNL     1       3.780   0.264  19.244  0.00  0.00    +0.000 HD
ENDROOT
BRANCH   7  13
ATOM     13  C   UNL     1       1.818   7.982  19.842  0.00  0.00    +0.000 A 
ATOM     14  C   UNL     1       1.432   9.097  18.990  0.00  0.00    +0.000 A 
ATOM     15  C   UNL     1       0.894  10.201  19.525  0.00  0.00    +0.000 A 
ATOM     16  N   UNL     1       0.705  10.286  20.877  0.00  0.00    +0.000 N 
ATOM     17  C   UNL     1       1.035   9.289  21.765  0.00  0.00    +0.000 A 
ATOM     18  O   UNL     1       0.854   9.388  22.971  0.00  0.00    +0.000 OA
ATOM     19  C   UNL     1       1.631   8.064  21.171  0.00  0.00    +0.000 A 
ATOM     20  H   UNL     1       0.297  11.120  21.287  0.00  0.00    +0.000 HD
ENDBRANCH   7  13
TORSDOF 1
ENDMDL
MODEL 8
REMARK VINA RESULT:      -6.9      4.747      5.413
REMARK  Name = 
REMARK  1 active torsions:
REMARK  status: ('A' for Active; 'I' for Inactive)
REMARK    1  A    between atoms: C_7  and  C_8
REMARK                            x       y       z     vdW  Elec       q    Type
REMARK                         _______ _______ _______ _____ _____    ______ ____
ROOT
ATOM      1  N   UNL     1       0.981  11.877  18.444  0.00  0.00    +0.000 N 
ATOM      2  C   UNL     1       1.356  10.596  18.576  0.00  0.00    +0.000 A 
ATOM      3  N   UNL     1       2.120   9.982  17.710  0.00  0.00    +0.000 NA
ATOM      4  C   UNL     1       2.377   8.689  18.135  0.00  0.00    +0.000 A 
ATOM      5  C   UNL     1       3.187   7.744  17.474  0.00  0.00    +0.000 A 
ATOM      6  C   UNL     1       3.372   6.472  18.030  0.00  0.00    +0.000 A 
ATOM      7  C   UNL     1       2.755   6.125  19.236  0.00  0.00    +0.000 A 
ATOM      8  C   UNL     1       1.942   7.051  19.906  0.00  0.00    +0.000 A 
ATOM      9  C   UNL     1       1.769   8.325  19.338  0.00  0.00    +0.000 A 
ATOM     10  S   UNL     1       0.852   9.660  19.920  0.00  0.00    +0.000 S 
ATOM     11  H   UNL     1       1.132  12.320  17.544  0.00  0.00    +0.000 HD
ATOM     12  H   UNL     1       0.216  12.241  18.995  0.00  0.00    +0.000 HD
ENDROOT
BRANCH   7  13
ATOM     13  C   UNL     1       2.978   4.794  19.824  0.00  0.00    +0.000 A 
ATOM     14  C   UNL     1       4.059   3.923  19.386  0.00  0.00    +0.000 A 
ATOM     15  C   UNL     1       4.230   2.721  19.953  0.00  0.00    +0.000 A 
ATOM     16  N   UNL     1       3.387   2.306  20.948  0.00  0.00    +0.000 N 
ATOM     17  C   UNL     1       2.340   3.053  21.431  0.00  0.00    +0.000 A 
ATOM     18  O   UNL     1       1.601   2.661  22.324  0.00  0.00    +0.000 OA
ATOM     19  C   UNL     1       2.151   4.387  20.803  0.00  0.00    +0.000 A 
ATOM     20  H   UNL     1       3.514   1.397  21.381  0.00  0.00    +0.000 HD
ENDBRANCH   7  13
TORSDOF 1
ENDMDL
MODEL 9
REMARK VINA RESULT:      -6.9      5.308      6.745
REMARK  Name = 
REMARK  1 active torsions:
REMARK  status: ('A' for Active; 'I' for Inactive)
REMARK    1  A    between atoms: C_7  and  C_8
REMARK                            x       y       z     vdW  Elec       q    Type
REMARK                         _______ _______ _______ _____ _____    ______ ____
ROOT
ATOM      1  N   UNL     1      -0.323  11.237  21.563  0.00  0.00    +0.000 N 
ATOM      2  C   UNL     1       0.327  10.287  20.876  0.00  0.00    +0.000 A 
ATOM      3  N   UNL     1       0.669  10.419  19.620  0.00  0.00    +0.000 NA
ATOM      4  C   UNL     1       1.369   9.302  19.196  0.00  0.00    +0.000 A 
ATOM      5  C   UNL     1       1.919   9.105  17.914  0.00  0.00    +0.000 A 
ATOM      6  C   UNL     1       2.620   7.926  17.629  0.00  0.00    +0.000 A 
ATOM      7  C   UNL     1       2.775   6.936  18.604  0.00  0.00    +0.000 A 
ATOM      8  C   UNL     1       2.230   7.112  19.884  0.00  0.00    +0.000 A 
ATOM      9  C   UNL     1       1.533   8.302  20.157  0.00  0.00    +0.000 A 
ATOM     10  S   UNL     1       0.771   8.805  21.615  0.00  0.00    +0.000 S 
ATOM     11  H   UNL     1      -0.737  11.997  21.035  0.00  0.00    +0.000 HD
ATOM     12  H   UNL     1      -0.769  11.012  22.442  0.00  0.00    +0.000 HD
ENDROOT
BRANCH   7  13
ATOM     13  C   UNL     1       3.536   5.712  18.299  0.00  0.00    +0.000 A 
ATOM     14  C   UNL     1       2.928   4.563  17.644  0.00  0.00    +0.000 A 
ATOM     15  C   UNL     1       3.658   3.472  17.380  0.00  0.00    +0.000 A 
ATOM     16  N   UNL     1       4.982   3.432  17.726  0.00  0.00    +0.000 N 
ATOM     17  C   UNL     1       5.647   4.463  18.345  0.00  0.00    +0.000 A 
ATOM     18  O   UNL     1       6.833   4.405  18.642  0.00  0.00    +0.000 OA
ATOM     19  C   UNL     1       4.836   5.674  18.637  0.00  0.00    +0.000 A 
ATOM     20  H   UNL     1       5.540   2.608  17.527  0.00  0.00    +0.000 HD
ENDBRANCH   7  13
TORSDOF 1
ENDMDL
