MODEL 1
REMARK VINA RESULT:      -7.5      0.000      0.000
REMARK  Name = 
REMARK  16 active torsions:
REMARK  status: ('A' for Active; 'I' for Inactive)
REMARK    1  A    between atoms: C_2  and  C_3
REMARK    2  A    between atoms: C_3  and  O_4
REMARK    3  A    between atoms: O_4  and  C_5
REMARK    4  A    between atoms: C_8  and  C_9
REMARK    5  A    between atoms: C_9  and  N_10
REMARK    6  A    between atoms: N_10  and  C_11
REMARK    7  A    between atoms: C_11  and  C_12
REMARK    8  A    between atoms: C_12  and  C_13
REMARK    9  A    between atoms: C_13  and  N_14
REMARK   10  A    between atoms: C_15  and  C_17
REMARK   11  A    between atoms: C_19  and  C_20
REMARK   12  A    between atoms: C_19  and  C_21
REMARK   13  A    between atoms: C_23  and  C_24
REMARK   14  A    between atoms: C_23  and  C_25
REMARK   15  A    between atoms: C_27  and  O_28
REMARK   16  A    between atoms: O_28  and  C_29
REMARK                            x       y       z     vdW  Elec       q    Type
REMARK                         _______ _______ _______ _____ _____    ______ ____
ROOT
ATOM      1  C   UNL     1       7.709   7.158  18.234  0.00  0.00    +0.000 C 
ENDROOT
BRANCH   1   2
ATOM      2  N   UNL     1       8.631   8.209  18.675  0.00  0.00    +0.000 NA
ATOM      3  H   UNL     1       8.606   8.294  19.690  0.00  0.00    +0.000 HD
BRANCH   2   4
ATOM      4  C   UNL     1       8.260   9.514  18.124  0.00  0.00    +0.000 C 
BRANCH   4   8
ATOM      5  C   UNL     1      10.930  12.650  19.581  0.00  0.00    +0.000 A 
ATOM      6  C   UNL     1      10.328  11.717  20.457  0.00  0.00    +0.000 A 
ATOM      7  C   UNL     1       9.452  10.717  20.009  0.00  0.00    +0.000 A 
ATOM      8  C   UNL     1       9.164  10.605  18.653  0.00  0.00    +0.000 A 
ATOM      9  C   UNL     1       9.753  11.531  17.782  0.00  0.00    +0.000 A 
ATOM     10  C   UNL     1      10.636  12.552  18.214  0.00  0.00    +0.000 A 
BRANCH  10  11
ATOM     11  O   UNL     1      10.993  13.307  17.135  0.00  0.00    +0.000 OA
ATOM     12  C   UNL     1      12.286  13.276  16.572  0.00  0.00    +0.000 C 
ENDBRANCH  10  11
BRANCH   5  13
ATOM     13  O   UNL     1      11.741  13.508  20.278  0.00  0.00    +0.000 OA
BRANCH  13  14
ATOM     14  C   UNL     1      11.709  14.888  19.963  0.00  0.00    +0.000 C 
BRANCH  14  16
ATOM     15  C   UNL     1      10.253  15.288  21.957  0.00  0.00    +0.000 C 
ATOM     16  C   UNL     1      10.599  15.581  20.697  0.00  0.00    +0.000 C 
ENDBRANCH  14  16
ENDBRANCH  13  14
ENDBRANCH   5  13
ENDBRANCH   4   8
ENDBRANCH   2   4
ENDBRANCH   1   2
BRANCH   1  17
ATOM     17  C   UNL     1       8.029   5.814  18.899  0.00  0.00    +0.000 C 
BRANCH  17  18
ATOM     18  C   UNL     1       7.534   4.624  18.083  0.00  0.00    +0.000 C 
BRANCH  18  19
ATOM     19  N   UNL     1       6.274   4.106  18.573  0.00  0.00    +0.000 N 
ATOM     20  C   UNL     1       5.075   4.422  17.986  0.00  0.00    +0.000 C 
ATOM     21  O   UNL     1       4.971   5.107  16.976  0.00  0.00    +0.000 OA
ATOM     22  H   UNL     1       6.285   3.589  19.439  0.00  0.00    +0.000 HD
BRANCH  20  23
ATOM     23  C   UNL     1       3.889   3.943  18.730  0.00  0.00    +0.000 C 
ATOM     24  C   UNL     1       3.413   4.430  19.886  0.00  0.00    +0.000 C 
ATOM     25  C   UNL     1       2.182   3.700  20.306  0.00  0.00    +0.000 C 
ATOM     26  C   UNL     1       1.036   4.678  20.589  0.00  0.00    +0.000 C 
ATOM     27  C   UNL     1       2.442   2.835  21.545  0.00  0.00    +0.000 C 
ATOM     28  N   UNL     1       1.850   2.825  19.150  0.00  0.00    +0.000 NA
ATOM     29  C   UNL     1       3.059   2.787  18.257  0.00  0.00    +0.000 C 
ATOM     30  C   UNL     1       3.765   1.439  18.477  0.00  0.00    +0.000 C 
ATOM     31  C   UNL     1       2.610   2.902  16.798  0.00  0.00    +0.000 C 
ATOM     32  H   UNL     1       1.091   3.263  18.627  0.00  0.00    +0.000 HD
ENDBRANCH  20  23
ENDBRANCH  18  19
ENDBRANCH  17  18
ENDBRANCH   1  17
TORSDOF 11
ENDMDL
MODEL 2
REMARK VINA RESULT:      -7.1      5.095      7.934
REMARK  Name = 
REMARK  16 active torsions:
REMARK  status: ('A' for Active; 'I' for Inactive)
REMARK    1  A    between atoms: C_2  and  C_3
REMARK    2  A    between atoms: C_3  and  O_4
REMARK    3  A    between atoms: O_4  and  C_5
REMARK    4  A    between atoms: C_8  and  C_9
REMARK    5  A    between atoms: C_9  and  N_10
REMARK    6  A    between atoms: N_10  and  C_11
REMARK    7  A    between atoms: C_11  and  C_12
REMARK    8  A    between atoms: C_12  and  C_13
REMARK    9  A    between atoms: C_13  and  N_14
REMARK   10  A    between atoms: C_15  and  C_17
REMARK   11  A    between atoms: C_19  and  C_20
REMARK   12  A    between atoms: C_19  and  C_21
REMARK   13  A    between atoms: C_23  and  C_24
REMARK   14  A    between atoms: C_23  and  C_25
REMARK   15  A    between atoms: C_27  and  O_28
REMARK   16  A    between atoms: O_28  and  C_29
REMARK                            x       y       z     vdW  Elec       q    Type
REMARK                         _______ _______ _______ _____ _____    ______ ____
ROOT
ATOM      1  C   UNL     1       1.017   3.515  19.709  0.00  0.00    +0.000 C 
ENDROOT
BRANCH   1   2
ATOM      2  N   UNL     1       1.099   4.659  20.624  0.00  0.00    +0.000 NA
ATOM      3  H   UNL     1       0.335   5.308  20.442  0.00  0.00    +0.000 HD
BRANCH   2   4
ATOM      4  C   UNL     1       2.348   5.401  20.443  0.00  0.00    +0.000 C 
BRANCH   4   8
ATOM      5  C   UNL     1       1.492   9.418  18.952  0.00  0.00    +0.000 A 
ATOM      6  C   UNL     1       2.182   8.463  18.169  0.00  0.00    +0.000 A 
ATOM      7  C   UNL     1       2.484   7.177  18.640  0.00  0.00    +0.000 A 
ATOM      8  C   UNL     1       2.082   6.793  19.914  0.00  0.00    +0.000 A 
ATOM      9  C   UNL     1       1.403   7.737  20.696  0.00  0.00    +0.000 A 
ATOM     10  C   UNL     1       1.093   9.044  20.243  0.00  0.00    +0.000 A 
BRANCH  10  11
ATOM     11  O   UNL     1       0.476   9.723  21.252  0.00  0.00    +0.000 OA
ATOM     12  C   UNL     1      -0.091   9.081  22.373  0.00  0.00    +0.000 C 
ENDBRANCH  10  11
BRANCH   5  13
ATOM     13  O   UNL     1       1.325  10.583  18.250  0.00  0.00    +0.000 OA
BRANCH  13  14
ATOM     14  C   UNL     1       0.690  11.679  18.883  0.00  0.00    +0.000 C 
BRANCH  14  16
ATOM     15  C   UNL     1       1.927  13.052  20.570  0.00  0.00    +0.000 C 
ATOM     16  C   UNL     1       1.693  12.716  19.294  0.00  0.00    +0.000 C 
ENDBRANCH  14  16
ENDBRANCH  13  14
ENDBRANCH   5  13
ENDBRANCH   4   8
ENDBRANCH   2   4
ENDBRANCH   1   2
BRANCH   1  17
ATOM     17  C   UNL     1       2.070   2.451  20.043  0.00  0.00    +0.000 C 
BRANCH  17  18
ATOM     18  C   UNL     1       2.960   2.114  18.851  0.00  0.00    +0.000 C 
BRANCH  18  19
ATOM     19  N   UNL     1       4.012   3.090  18.656  0.00  0.00    +0.000 N 
ATOM     20  C   UNL     1       3.977   4.009  17.639  0.00  0.00    +0.000 C 
ATOM     21  O   UNL     1       3.043   4.126  16.857  0.00  0.00    +0.000 OA
ATOM     22  H   UNL     1       4.840   3.005  19.226  0.00  0.00    +0.000 HD
BRANCH  20  23
ATOM     23  C   UNL     1       5.219   4.802  17.495  0.00  0.00    +0.000 C 
ATOM     24  C   UNL     1       5.796   5.571  18.431  0.00  0.00    +0.000 C 
ATOM     25  C   UNL     1       7.052   6.188  17.915  0.00  0.00    +0.000 C 
ATOM     26  C   UNL     1       8.227   5.910  18.859  0.00  0.00    +0.000 C 
ATOM     27  C   UNL     1       6.891   7.701  17.720  0.00  0.00    +0.000 C 
ATOM     28  N   UNL     1       7.276   5.539  16.595  0.00  0.00    +0.000 NA
ATOM     29  C   UNL     1       5.995   4.852  16.213  0.00  0.00    +0.000 C 
ATOM     30  C   UNL     1       5.298   5.713  15.147  0.00  0.00    +0.000 C 
ATOM     31  C   UNL     1       6.319   3.473  15.630  0.00  0.00    +0.000 C 
ATOM     32  H   UNL     1       7.992   4.821  16.711  0.00  0.00    +0.000 HD
ENDBRANCH  20  23
ENDBRANCH  18  19
ENDBRANCH  17  18
ENDBRANCH   1  17
TORSDOF 11
ENDMDL
MODEL 3
REMARK VINA RESULT:      -7.0      5.666      8.314
REMARK  Name = 
REMARK  16 active torsions:
REMARK  status: ('A' for Active; 'I' for Inactive)
REMARK    1  A    between atoms: C_2  and  C_3
REMARK    2  A    between atoms: C_3  and  O_4
REMARK    3  A    between atoms: O_4  and  C_5
REMARK    4  A    between atoms: C_8  and  C_9
REMARK    5  A    between atoms: C_9  and  N_10
REMARK    6  A    between atoms: N_10  and  C_11
REMARK    7  A    between atoms: C_11  and  C_12
REMARK    8  A    between atoms: C_12  and  C_13
REMARK    9  A    between atoms: C_13  and  N_14
REMARK   10  A    between atoms: C_15  and  C_17
REMARK   11  A    between atoms: C_19  and  C_20
REMARK   12  A    between atoms: C_19  and  C_21
REMARK   13  A    between atoms: C_23  and  C_24
REMARK   14  A    between atoms: C_23  and  C_25
REMARK   15  A    between atoms: C_27  and  O_28
REMARK   16  A    between atoms: O_28  and  C_29
REMARK                            x       y       z     vdW  Elec       q    Type
REMARK                         _______ _______ _______ _____ _____    ______ ____
ROOT
ATOM      1  C   UNL     1       2.506   3.763  21.334  0.00  0.00    +0.000 C 
ENDROOT
BRANCH   1   2
ATOM      2  N   UNL     1       2.462   5.228  21.352  0.00  0.00    +0.000 NA
ATOM      3  H   UNL     1       1.615   5.547  21.821  0.00  0.00    +0.000 HD
BRANCH   2   4
ATOM      4  C   UNL     1       2.437   5.781  19.995  0.00  0.00    +0.000 C 
BRANCH   4   8
ATOM      5  C   UNL     1       0.704   9.791  20.011  0.00  0.00    +0.000 A 
ATOM      6  C   UNL     1       1.485   9.321  18.930  0.00  0.00    +0.000 A 
ATOM      7  C   UNL     1       2.066   8.044  18.918  0.00  0.00    +0.000 A 
ATOM      8  C   UNL     1       1.865   7.181  19.989  0.00  0.00    +0.000 A 
ATOM      9  C   UNL     1       1.097   7.645  21.065  0.00  0.00    +0.000 A 
ATOM     10  C   UNL     1       0.506   8.932  21.102  0.00  0.00    +0.000 A 
BRANCH  10  11
ATOM     11  O   UNL     1      -0.130   9.089  22.298  0.00  0.00    +0.000 OA
ATOM     12  C   UNL     1      -0.445  10.353  22.839  0.00  0.00    +0.000 C 
ENDBRANCH  10  11
BRANCH   5  13
ATOM     13  O   UNL     1       0.256  11.062  19.762  0.00  0.00    +0.000 OA
BRANCH  13  14
ATOM     14  C   UNL     1       1.184  12.044  19.338  0.00  0.00    +0.000 C 
BRANCH  14  16
ATOM     15  C   UNL     1      -0.716  13.651  19.080  0.00  0.00    +0.000 C 
ATOM     16  C   UNL     1       0.570  13.412  19.369  0.00  0.00    +0.000 C 
ENDBRANCH  14  16
ENDBRANCH  13  14
ENDBRANCH   5  13
ENDBRANCH   4   8
ENDBRANCH   2   4
ENDBRANCH   1   2
BRANCH   1  17
ATOM     17  C   UNL     1       2.526   3.217  19.901  0.00  0.00    +0.000 C 
BRANCH  17  18
ATOM     18  C   UNL     1       3.862   2.577  19.536  0.00  0.00    +0.000 C 
BRANCH  18  19
ATOM     19  N   UNL     1       4.385   3.073  18.281  0.00  0.00    +0.000 N 
ATOM     20  C   UNL     1       5.382   4.014  18.224  0.00  0.00    +0.000 C 
ATOM     21  O   UNL     1       5.951   4.463  19.210  0.00  0.00    +0.000 OA
ATOM     22  H   UNL     1       3.915   2.791  17.434  0.00  0.00    +0.000 HD
BRANCH  20  23
ATOM     23  C   UNL     1       5.660   4.524  16.863  0.00  0.00    +0.000 C 
ATOM     24  C   UNL     1       5.954   3.796  15.775  0.00  0.00    +0.000 C 
ATOM     25  C   UNL     1       6.140   4.671  14.582  0.00  0.00    +0.000 C 
ATOM     26  C   UNL     1       5.260   4.202  13.417  0.00  0.00    +0.000 C 
ATOM     27  C   UNL     1       7.608   4.707  14.139  0.00  0.00    +0.000 C 
ATOM     28  N   UNL     1       5.726   6.025  15.039  0.00  0.00    +0.000 NA
ATOM     29  C   UNL     1       5.662   5.988  16.540  0.00  0.00    +0.000 C 
ATOM     30  C   UNL     1       6.914   6.698  17.083  0.00  0.00    +0.000 C 
ATOM     31  C   UNL     1       4.406   6.729  17.008  0.00  0.00    +0.000 C 
ATOM     32  H   UNL     1       4.784   6.204  14.691  0.00  0.00    +0.000 HD
ENDBRANCH  20  23
ENDBRANCH  18  19
ENDBRANCH  17  18
ENDBRANCH   1  17
TORSDOF 11
ENDMDL
MODEL 4
REMARK VINA RESULT:      -6.8      5.470      7.966
REMARK  Name = 
REMARK  16 active torsions:
REMARK  status: ('A' for Active; 'I' for Inactive)
REMARK    1  A    between atoms: C_2  and  C_3
REMARK    2  A    between atoms: C_3  and  O_4
REMARK    3  A    between atoms: O_4  and  C_5
REMARK    4  A    between atoms: C_8  and  C_9
REMARK    5  A    between atoms: C_9  and  N_10
REMARK    6  A    between atoms: N_10  and  C_11
REMARK    7  A    between atoms: C_11  and  C_12
REMARK    8  A    between atoms: C_12  and  C_13
REMARK    9  A    between atoms: C_13  and  N_14
REMARK   10  A    between atoms: C_15  and  C_17
REMARK   11  A    between atoms: C_19  and  C_20
REMARK   12  A    between atoms: C_19  and  C_21
REMARK   13  A    between atoms: C_23  and  C_24
REMARK   14  A    between atoms: C_23  and  C_25
REMARK   15  A    between atoms: C_27  and  O_28
REMARK   16  A    between atoms: O_28  and  C_29
REMARK                            x       y       z     vdW  Elec       q    Type
REMARK                         _______ _______ _______ _____ _____    ______ ____
ROOT
ATOM      1  C   UNL     1       2.076   3.612  19.271  0.00  0.00    +0.000 C 
ENDROOT
BRANCH   1   2
ATOM      2  N   UNL     1       1.869   5.036  18.984  0.00  0.00    +0.000 NA
ATOM      3  H   UNL     1       2.278   5.274  18.082  0.00  0.00    +0.000 HD
BRANCH   2   4
ATOM      4  C   UNL     1       2.513   5.885  19.988  0.00  0.00    +0.000 C 
BRANCH   4   8
ATOM      5  C   UNL     1       0.531   9.764  20.323  0.00  0.00    +0.000 A 
ATOM      6  C   UNL     1       0.414   8.777  21.330  0.00  0.00    +0.000 A 
ATOM      7  C   UNL     1       1.026   7.520  21.229  0.00  0.00    +0.000 A 
ATOM      8  C   UNL     1       1.800   7.213  20.115  0.00  0.00    +0.000 A 
ATOM      9  C   UNL     1       1.914   8.185  19.113  0.00  0.00    +0.000 A 
ATOM     10  C   UNL     1       1.300   9.459  19.191  0.00  0.00    +0.000 A 
BRANCH  10  11
ATOM     11  O   UNL     1       1.564  10.145  18.042  0.00  0.00    +0.000 OA
ATOM     12  C   UNL     1       2.313  11.340  18.017  0.00  0.00    +0.000 C 
ENDBRANCH  10  11
BRANCH   5  13
ATOM     13  O   UNL     1      -0.157  10.895  20.678  0.00  0.00    +0.000 OA
BRANCH  13  14
ATOM     14  C   UNL     1       0.571  12.047  21.061  0.00  0.00    +0.000 C 
BRANCH  14  16
ATOM     15  C   UNL     1      -0.808  14.126  20.872  0.00  0.00    +0.000 C 
ATOM     16  C   UNL     1       0.069  13.264  20.341  0.00  0.00    +0.000 C 
ENDBRANCH  14  16
ENDBRANCH  13  14
ENDBRANCH   5  13
ENDBRANCH   4   8
ENDBRANCH   2   4
ENDBRANCH   1   2
BRANCH   1  17
ATOM     17  C   UNL     1       3.118   3.407  20.377  0.00  0.00    +0.000 C 
BRANCH  17  18
ATOM     18  C   UNL     1       4.370   2.693  19.877  0.00  0.00    +0.000 C 
BRANCH  18  19
ATOM     19  N   UNL     1       4.800   3.179  18.582  0.00  0.00    +0.000 N 
ATOM     20  C   UNL     1       5.651   4.246  18.447  0.00  0.00    +0.000 C 
ATOM     21  O   UNL     1       6.163   4.833  19.391  0.00  0.00    +0.000 OA
ATOM     22  H   UNL     1       4.364   2.780  17.764  0.00  0.00    +0.000 HD
BRANCH  20  23
ATOM     23  C   UNL     1       5.835   4.703  17.052  0.00  0.00    +0.000 C 
ATOM     24  C   UNL     1       6.124   3.942  15.986  0.00  0.00    +0.000 C 
ATOM     25  C   UNL     1       6.201   4.766  14.746  0.00  0.00    +0.000 C 
ATOM     26  C   UNL     1       5.300   4.189  13.648  0.00  0.00    +0.000 C 
ATOM     27  C   UNL     1       7.643   4.868  14.232  0.00  0.00    +0.000 C 
ATOM     28  N   UNL     1       5.726   6.114  15.158  0.00  0.00    +0.000 NA
ATOM     29  C   UNL     1       5.732   6.148  16.661  0.00  0.00    +0.000 C 
ATOM     30  C   UNL     1       6.961   6.957  17.109  0.00  0.00    +0.000 C 
ATOM     31  C   UNL     1       4.455   6.834  17.154  0.00  0.00    +0.000 C 
ATOM     32  H   UNL     1       4.759   6.219  14.849  0.00  0.00    +0.000 HD
ENDBRANCH  20  23
ENDBRANCH  18  19
ENDBRANCH  17  18
ENDBRANCH   1  17
TORSDOF 11
ENDMDL
MODEL 5
REMARK VINA RESULT:      -6.8      2.433     10.655
REMARK  Name = 
REMARK  16 active torsions:
REMARK  status: ('A' for Active; 'I' for Inactive)
REMARK    1  A    between atoms: C_2  and  C_3
REMARK    2  A    between atoms: C_3  and  O_4
REMARK    3  A    between atoms: O_4  and  C_5
REMARK    4  A    between atoms: C_8  and  C_9
REMARK    5  A    between atoms: C_9  and  N_10
REMARK    6  A    between atoms: N_10  and  C_11
REMARK    7  A    between atoms: C_11  and  C_12
REMARK    8  A    between atoms: C_12  and  C_13
REMARK    9  A    between atoms: C_13  and  N_14
REMARK   10  A    between atoms: C_15  and  C_17
REMARK   11  A    between atoms: C_19  and  C_20
REMARK   12  A    between atoms: C_19  and  C_21
REMARK   13  A    between atoms: C_23  and  C_24
REMARK   14  A    between atoms: C_23  and  C_25
REMARK   15  A    between atoms: C_27  and  O_28
REMARK   16  A    between atoms: O_28  and  C_29
REMARK                            x       y       z     vdW  Elec       q    Type
REMARK                         _______ _______ _______ _____ _____    ______ ____
ROOT
ATOM      1  C   UNL     1       7.297   6.699  18.177  0.00  0.00    +0.000 C 
ENDROOT
BRANCH   1   2
ATOM      2  N   UNL     1       7.336   6.147  16.819  0.00  0.00    +0.000 NA
ATOM      3  H   UNL     1       8.113   6.551  16.300  0.00  0.00    +0.000 HD
BRANCH   2   4
ATOM      4  C   UNL     1       6.112   6.460  16.078  0.00  0.00    +0.000 C 
BRANCH   4   8
ATOM      5  C   UNL     1       2.594   5.107  18.288  0.00  0.00    +0.000 A 
ATOM      6  C   UNL     1       3.456   4.199  17.630  0.00  0.00    +0.000 A 
ATOM      7  C   UNL     1       4.578   4.617  16.899  0.00  0.00    +0.000 A 
ATOM      8  C   UNL     1       4.888   5.970  16.819  0.00  0.00    +0.000 A 
ATOM      9  C   UNL     1       4.033   6.874  17.464  0.00  0.00    +0.000 A 
ATOM     10  C   UNL     1       2.892   6.474  18.203  0.00  0.00    +0.000 A 
BRANCH  10  11
ATOM     11  O   UNL     1       2.253   7.589  18.660  0.00  0.00    +0.000 OA
ATOM     12  C   UNL     1       2.042   8.733  17.863  0.00  0.00    +0.000 C 
ENDBRANCH  10  11
BRANCH   5  13
ATOM     13  O   UNL     1       1.587   4.433  18.929  0.00  0.00    +0.000 OA
BRANCH  13  14
ATOM     14  C   UNL     1       1.351   4.698  20.299  0.00  0.00    +0.000 C 
BRANCH  14  16
ATOM     15  C   UNL     1       1.726   2.622  21.645  0.00  0.00    +0.000 C 
ATOM     16  C   UNL     1       2.171   3.793  21.170  0.00  0.00    +0.000 C 
ENDBRANCH  14  16
ENDBRANCH  13  14
ENDBRANCH   5  13
ENDBRANCH   4   8
ENDBRANCH   2   4
ENDBRANCH   1   2
BRANCH   1  17
ATOM     17  C   UNL     1       8.392   7.752  18.389  0.00  0.00    +0.000 C 
BRANCH  17  18
ATOM     18  C   UNL     1       8.075   9.073  17.696  0.00  0.00    +0.000 C 
BRANCH  18  19
ATOM     19  N   UNL     1       8.680  10.205  18.366  0.00  0.00    +0.000 N 
ATOM     20  C   UNL     1       8.481  11.495  17.946  0.00  0.00    +0.000 C 
ATOM     21  O   UNL     1       7.740  11.805  17.023  0.00  0.00    +0.000 OA
ATOM     22  H   UNL     1       9.352  10.013  19.093  0.00  0.00    +0.000 HD
BRANCH  20  23
ATOM     23  C   UNL     1       9.318  12.497  18.644  0.00  0.00    +0.000 C 
ATOM     24  C   UNL     1       8.921  13.354  19.597  0.00  0.00    +0.000 C 
ATOM     25  C   UNL     1      10.063  14.185  20.076  0.00  0.00    +0.000 C 
ATOM     26  C   UNL     1      10.186  14.119  21.603  0.00  0.00    +0.000 C 
ATOM     27  C   UNL     1       9.915  15.646  19.632  0.00  0.00    +0.000 C 
ATOM     28  N   UNL     1      11.262  13.589  19.428  0.00  0.00    +0.000 NA
ATOM     29  C   UNL     1      10.772  12.686  18.331  0.00  0.00    +0.000 C 
ATOM     30  C   UNL     1      10.987  13.411  16.992  0.00  0.00    +0.000 C 
ATOM     31  C   UNL     1      11.584  11.387  18.349  0.00  0.00    +0.000 C 
ATOM     32  H   UNL     1      11.741  13.010  20.118  0.00  0.00    +0.000 HD
ENDBRANCH  20  23
ENDBRANCH  18  19
ENDBRANCH  17  18
ENDBRANCH   1  17
TORSDOF 11
ENDMDL
MODEL 6
REMARK VINA RESULT:      -6.7      5.753      8.292
REMARK  Name = 
REMARK  16 active torsions:
REMARK  status: ('A' for Active; 'I' for Inactive)
REMARK    1  A    between atoms: C_2  and  C_3
REMARK    2  A    between atoms: C_3  and  O_4
REMARK    3  A    between atoms: O_4  and  C_5
REMARK    4  A    between atoms: C_8  and  C_9
REMARK    5  A    between atoms: C_9  and  N_10
REMARK    6  A    between atoms: N_10  and  C_11
REMARK    7  A    between atoms: C_11  and  C_12
REMARK    8  A    between atoms: C_12  and  C_13
REMARK    9  A    between atoms: C_13  and  N_14
REMARK   10  A    between atoms: C_15  and  C_17
REMARK   11  A    between atoms: C_19  and  C_20
REMARK   12  A    between atoms: C_19  and  C_21
REMARK   13  A    between atoms: C_23  and  C_24
REMARK   14  A    between atoms: C_23  and  C_25
REMARK   15  A    between atoms: C_27  and  O_28
REMARK   16  A    between atoms: O_28  and  C_29
REMARK                            x       y       z     vdW  Elec       q    Type
REMARK                         _______ _______ _______ _____ _____    ______ ____
ROOT
ATOM      1  C   UNL     1       1.673   5.186  20.490  0.00  0.00    +0.000 C 
ENDROOT
BRANCH   1   2
ATOM      2  N   UNL     1       1.822   6.605  20.829  0.00  0.00    +0.000 NA
ATOM      3  H   UNL     1       0.963   6.957  21.247  0.00  0.00    +0.000 HD
BRANCH   2   4
ATOM      4  C   UNL     1       2.087   7.416  19.639  0.00  0.00    +0.000 C 
BRANCH   4   8
ATOM      5  C   UNL     1       0.226  11.345  20.069  0.00  0.00    +0.000 A 
ATOM      6  C   UNL     1       0.640  10.850  18.811  0.00  0.00    +0.000 A 
ATOM      7  C   UNL     1       1.257   9.600  18.658  0.00  0.00    +0.000 A 
ATOM      8  C   UNL     1       1.465   8.788  19.767  0.00  0.00    +0.000 A 
ATOM      9  C   UNL     1       1.062   9.277  21.017  0.00  0.00    +0.000 A 
ATOM     10  C   UNL     1       0.441  10.539  21.196  0.00  0.00    +0.000 A 
BRANCH  10  11
ATOM     11  O   UNL     1       0.220  10.733  22.528  0.00  0.00    +0.000 OA
ATOM     12  C   UNL     1      -0.805  10.075  23.238  0.00  0.00    +0.000 C 
ENDBRANCH  10  11
BRANCH   5  13
ATOM     13  O   UNL     1      -0.351  12.581  19.932  0.00  0.00    +0.000 OA
BRANCH  13  14
ATOM     14  C   UNL     1       0.486  13.715  19.792  0.00  0.00    +0.000 C 
BRANCH  14  16
ATOM     15  C   UNL     1      -0.338  15.865  18.815  0.00  0.00    +0.000 C 
ATOM     16  C   UNL     1       0.025  14.585  18.661  0.00  0.00    +0.000 C 
ENDBRANCH  14  16
ENDBRANCH  13  14
ENDBRANCH   5  13
ENDBRANCH   4   8
ENDBRANCH   2   4
ENDBRANCH   1   2
BRANCH   1  17
ATOM     17  C   UNL     1       2.985   4.418  20.692  0.00  0.00    +0.000 C 
BRANCH  17  18
ATOM     18  C   UNL     1       3.129   3.242  19.731  0.00  0.00    +0.000 C 
BRANCH  18  19
ATOM     19  N   UNL     1       3.716   3.634  18.467  0.00  0.00    +0.000 N 
ATOM     20  C   UNL     1       5.020   4.047  18.363  0.00  0.00    +0.000 C 
ATOM     21  O   UNL     1       5.807   4.061  19.300  0.00  0.00    +0.000 OA
ATOM     22  H   UNL     1       3.104   3.706  17.668  0.00  0.00    +0.000 HD
BRANCH  20  23
ATOM     23  C   UNL     1       5.386   4.572  17.029  0.00  0.00    +0.000 C 
ATOM     24  C   UNL     1       5.713   3.855  15.943  0.00  0.00    +0.000 C 
ATOM     25  C   UNL     1       5.991   4.746  14.779  0.00  0.00    +0.000 C 
ATOM     26  C   UNL     1       5.158   4.330  13.561  0.00  0.00    +0.000 C 
ATOM     27  C   UNL     1       7.481   4.739  14.414  0.00  0.00    +0.000 C 
ATOM     28  N   UNL     1       5.600   6.104  15.241  0.00  0.00    +0.000 NA
ATOM     29  C   UNL     1       5.455   6.042  16.736  0.00  0.00    +0.000 C 
ATOM     30  C   UNL     1       6.700   6.698  17.358  0.00  0.00    +0.000 C 
ATOM     31  C   UNL     1       4.202   6.817  17.154  0.00  0.00    +0.000 C 
ATOM     32  H   UNL     1       4.683   6.322  14.849  0.00  0.00    +0.000 HD
ENDBRANCH  20  23
ENDBRANCH  18  19
ENDBRANCH  17  18
ENDBRANCH   1  17
TORSDOF 11
ENDMDL
MODEL 7
REMARK VINA RESULT:      -6.7      2.595     10.971
REMARK  Name = 
REMARK  16 active torsions:
REMARK  status: ('A' for Active; 'I' for Inactive)
REMARK    1  A    between atoms: C_2  and  C_3
REMARK    2  A    between atoms: C_3  and  O_4
REMARK    3  A    between atoms: O_4  and  C_5
REMARK    4  A    between atoms: C_8  and  C_9
REMARK    5  A    between atoms: C_9  and  N_10
REMARK    6  A    between atoms: N_10  and  C_11
REMARK    7  A    between atoms: C_11  and  C_12
REMARK    8  A    between atoms: C_12  and  C_13
REMARK    9  A    between atoms: C_13  and  N_14
REMARK   10  A    between atoms: C_15  and  C_17
REMARK   11  A    between atoms: C_19  and  C_20
REMARK   12  A    between atoms: C_19  and  C_21
REMARK   13  A    between atoms: C_23  and  C_24
REMARK   14  A    between atoms: C_23  and  C_25
REMARK   15  A    between atoms: C_27  and  O_28
REMARK   16  A    between atoms: O_28  and  C_29
REMARK                            x       y       z     vdW  Elec       q    Type
REMARK                         _______ _______ _______ _____ _____    ______ ____
ROOT
ATOM      1  C   UNL     1       7.782   7.164  17.944  0.00  0.00    +0.000 C 
ENDROOT
BRANCH   1   2
ATOM      2  N   UNL     1       7.368   6.373  16.781  0.00  0.00    +0.000 NA
ATOM      3  H   UNL     1       7.892   6.662  15.957  0.00  0.00    +0.000 HD
BRANCH   2   4
ATOM      4  C   UNL     1       5.948   6.565  16.479  0.00  0.00    +0.000 C 
BRANCH   4   8
ATOM      5  C   UNL     1       3.441   4.989  19.692  0.00  0.00    +0.000 A 
ATOM      6  C   UNL     1       3.153   6.219  19.056  0.00  0.00    +0.000 A 
ATOM      7  C   UNL     1       3.958   6.749  18.038  0.00  0.00    +0.000 A 
ATOM      8  C   UNL     1       5.079   6.050  17.604  0.00  0.00    +0.000 A 
ATOM      9  C   UNL     1       5.373   4.834  18.236  0.00  0.00    +0.000 A 
ATOM     10  C   UNL     1       4.576   4.282  19.270  0.00  0.00    +0.000 A 
BRANCH  10  11
ATOM     11  O   UNL     1       5.157   3.125  19.700  0.00  0.00    +0.000 OA
ATOM     12  C   UNL     1       4.442   1.918  19.849  0.00  0.00    +0.000 C 
ENDBRANCH  10  11
BRANCH   5  13
ATOM     13  O   UNL     1       2.494   4.706  20.641  0.00  0.00    +0.000 OA
BRANCH  13  14
ATOM     14  C   UNL     1       1.157   4.487  20.229  0.00  0.00    +0.000 C 
BRANCH  14  16
ATOM     15  C   UNL     1       0.651   2.266  19.194  0.00  0.00    +0.000 C 
ATOM     16  C   UNL     1       1.100   3.524  19.081  0.00  0.00    +0.000 C 
ENDBRANCH  14  16
ENDBRANCH  13  14
ENDBRANCH   5  13
ENDBRANCH   4   8
ENDBRANCH   2   4
ENDBRANCH   1   2
BRANCH   1  17
ATOM     17  C   UNL     1       7.721   8.668  17.652  0.00  0.00    +0.000 C 
BRANCH  17  18
ATOM     18  C   UNL     1       8.872   9.437  18.295  0.00  0.00    +0.000 C 
BRANCH  18  19
ATOM     19  N   UNL     1       8.568  10.842  18.464  0.00  0.00    +0.000 N 
ATOM     20  C   UNL     1       9.524  11.818  18.336  0.00  0.00    +0.000 C 
ATOM     21  O   UNL     1      10.683  11.597  18.012  0.00  0.00    +0.000 OA
ATOM     22  H   UNL     1       7.646  11.086  18.795  0.00  0.00    +0.000 HD
BRANCH  20  23
ATOM     23  C   UNL     1       9.064  13.172  18.717  0.00  0.00    +0.000 C 
ATOM     24  C   UNL     1       8.208  13.952  18.040  0.00  0.00    +0.000 C 
ATOM     25  C   UNL     1       7.971  15.236  18.761  0.00  0.00    +0.000 C 
ATOM     26  C   UNL     1       6.471  15.487  18.954  0.00  0.00    +0.000 C 
ATOM     27  C   UNL     1       8.602  16.419  18.015  0.00  0.00    +0.000 C 
ATOM     28  N   UNL     1       8.646  15.061  20.074  0.00  0.00    +0.000 NA
ATOM     29  C   UNL     1       9.548  13.864  19.956  0.00  0.00    +0.000 C 
ATOM     30  C   UNL     1      10.991  14.374  19.809  0.00  0.00    +0.000 C 
ATOM     31  C   UNL     1       9.428  13.017  21.227  0.00  0.00    +0.000 C 
ATOM     32  H   UNL     1       7.934  14.846  20.772  0.00  0.00    +0.000 HD
ENDBRANCH  20  23
ENDBRANCH  18  19
ENDBRANCH  17  18
ENDBRANCH   1  17
TORSDOF 11
ENDMDL
MODEL 8
REMARK VINA RESULT:      -6.7      5.667      9.538
REMARK  Name = 
REMARK  16 active torsions:
REMARK  status: ('A' for Active; 'I' for Inactive)
REMARK    1  A    between atoms: C_2  and  C_3
REMARK    2  A    between atoms: C_3  and  O_4
REMARK    3  A    between atoms: O_4  and  C_5
REMARK    4  A    between atoms: C_8  and  C_9
REMARK    5  A    between atoms: C_9  and  N_10
REMARK    6  A    between atoms: N_10  and  C_11
REMARK    7  A    between atoms: C_11  and  C_12
REMARK    8  A    between atoms: C_12  and  C_13
REMARK    9  A    between atoms: C_13  and  N_14
REMARK   10  A    between atoms: C_15  and  C_17
REMARK   11  A    between atoms: C_19  and  C_20
REMARK   12  A    between atoms: C_19  and  C_21
REMARK   13  A    between atoms: C_23  and  C_24
REMARK   14  A    between atoms: C_23  and  C_25
REMARK   15  A    between atoms: C_27  and  O_28
REMARK   16  A    between atoms: O_28  and  C_29
REMARK                            x       y       z     vdW  Elec       q    Type
REMARK                         _______ _______ _______ _____ _____    ______ ____
ROOT
ATOM      1  C   UNL     1       2.463   6.477  18.338  0.00  0.00    +0.000 C 
ENDROOT
BRANCH   1   2
ATOM      2  N   UNL     1       2.382   5.403  19.332  0.00  0.00    +0.000 NA
ATOM      3  H   UNL     1       1.892   5.730  20.163  0.00  0.00    +0.000 HD
BRANCH   2   4
ATOM      4  C   UNL     1       3.713   4.967  19.761  0.00  0.00    +0.000 C 
BRANCH   4   8
ATOM      5  C   UNL     1       6.368   4.481  16.324  0.00  0.00    +0.000 A 
ATOM      6  C   UNL     1       5.174   3.733  16.456  0.00  0.00    +0.000 A 
ATOM      7  C   UNL     1       4.322   3.862  17.563  0.00  0.00    +0.000 A 
ATOM      8  C   UNL     1       4.628   4.766  18.573  0.00  0.00    +0.000 A 
ATOM      9  C   UNL     1       5.812   5.505  18.449  0.00  0.00    +0.000 A 
ATOM     10  C   UNL     1       6.691   5.388  17.344  0.00  0.00    +0.000 A 
BRANCH  10  11
ATOM     11  O   UNL     1       7.766   6.201  17.550  0.00  0.00    +0.000 OA
ATOM     12  C   UNL     1       7.671   7.608  17.568  0.00  0.00    +0.000 C 
ENDBRANCH  10  11
BRANCH   5  13
ATOM     13  O   UNL     1       7.003   4.166  15.152  0.00  0.00    +0.000 OA
BRANCH  13  14
ATOM     14  C   UNL     1       6.511   4.707  13.939  0.00  0.00    +0.000 C 
BRANCH  14  16
ATOM     15  C   UNL     1       6.820   3.383  11.839  0.00  0.00    +0.000 C 
ATOM     16  C   UNL     1       6.148   3.618  12.974  0.00  0.00    +0.000 C 
ENDBRANCH  14  16
ENDBRANCH  13  14
ENDBRANCH   5  13
ENDBRANCH   4   8
ENDBRANCH   2   4
ENDBRANCH   1   2
BRANCH   1  17
ATOM     17  C   UNL     1       2.197   7.849  18.969  0.00  0.00    +0.000 C 
BRANCH  17  18
ATOM     18  C   UNL     1       2.338   8.992  17.968  0.00  0.00    +0.000 C 
BRANCH  18  19
ATOM     19  N   UNL     1       1.095   9.707  17.772  0.00  0.00    +0.000 N 
ATOM     20  C   UNL     1       0.289  10.075  18.819  0.00  0.00    +0.000 C 
ATOM     21  O   UNL     1       0.574   9.890  19.995  0.00  0.00    +0.000 OA
ATOM     22  H   UNL     1       0.772   9.833  16.824  0.00  0.00    +0.000 HD
BRANCH  20  23
ATOM     23  C   UNL     1      -1.017  10.639  18.412  0.00  0.00    +0.000 C 
ATOM     24  C   UNL     1      -1.955  10.038  17.664  0.00  0.00    +0.000 C 
ATOM     25  C   UNL     1      -3.147  10.919  17.495  0.00  0.00    +0.000 C 
ATOM     26  C   UNL     1      -4.432  10.183  17.892  0.00  0.00    +0.000 C 
ATOM     27  C   UNL     1      -3.266  11.425  16.051  0.00  0.00    +0.000 C 
ATOM     28  N   UNL     1      -2.899  12.069  18.404  0.00  0.00    +0.000 NA
ATOM     29  C   UNL     1      -1.448  12.023  18.795  0.00  0.00    +0.000 C 
ATOM     30  C   UNL     1      -0.709  13.104  17.988  0.00  0.00    +0.000 C 
ATOM     31  C   UNL     1      -1.321  12.320  20.292  0.00  0.00    +0.000 C 
ATOM     32  H   UNL     1      -3.453  11.931  19.250  0.00  0.00    +0.000 HD
ENDBRANCH  20  23
ENDBRANCH  18  19
ENDBRANCH  17  18
ENDBRANCH   1  17
TORSDOF 11
ENDMDL
MODEL 9
REMARK VINA RESULT:      -6.7      5.553      9.482
REMARK  Name = 
REMARK  16 active torsions:
REMARK  status: ('A' for Active; 'I' for Inactive)
REMARK    1  A    between atoms: C_2  and  C_3
REMARK    2  A    between atoms: C_3  and  O_4
REMARK    3  A    between atoms: O_4  and  C_5
REMARK    4  A    between atoms: C_8  and  C_9
REMARK    5  A    between atoms: C_9  and  N_10
REMARK    6  A    between atoms: N_10  and  C_11
REMARK    7  A    between atoms: C_11  and  C_12
REMARK    8  A    between atoms: C_12  and  C_13
REMARK    9  A    between atoms: C_13  and  N_14
REMARK   10  A    between atoms: C_15  and  C_17
REMARK   11  A    between atoms: C_19  and  C_20
REMARK   12  A    between atoms: C_19  and  C_21
REMARK   13  A    between atoms: C_23  and  C_24
REMARK   14  A    between atoms: C_23  and  C_25
REMARK   15  A    between atoms: C_27  and  O_28
REMARK   16  A    between atoms: O_28  and  C_29
REMARK                            x       y       z     vdW  Elec       q    Type
REMARK                         _______ _______ _______ _____ _____    ______ ____
ROOT
ATOM      1  C   UNL     1       2.557   5.147  20.717  0.00  0.00    +0.000 C 
ENDROOT
BRANCH   1   2
ATOM      2  N   UNL     1       1.928   3.884  20.318  0.00  0.00    +0.000 NA
ATOM      3  H   UNL     1       1.471   3.453  21.119  0.00  0.00    +0.000 HD
BRANCH   2   4
ATOM      4  C   UNL     1       2.918   2.926  19.819  0.00  0.00    +0.000 C 
BRANCH   4   8
ATOM      5  C   UNL     1       5.425   4.771  16.754  0.00  0.00    +0.000 A 
ATOM      6  C   UNL     1       4.089   4.388  16.493  0.00  0.00    +0.000 A 
ATOM      7  C   UNL     1       3.277   3.776  17.459  0.00  0.00    +0.000 A 
ATOM      8  C   UNL     1       3.774   3.543  18.736  0.00  0.00    +0.000 A 
ATOM      9  C   UNL     1       5.100   3.916  18.998  0.00  0.00    +0.000 A 
ATOM     10  C   UNL     1       5.939   4.530  18.036  0.00  0.00    +0.000 A 
BRANCH  10  11
ATOM     11  O   UNL     1       7.172   4.720  18.587  0.00  0.00    +0.000 OA
ATOM     12  C   UNL     1       7.723   5.999  18.813  0.00  0.00    +0.000 C 
ENDBRANCH  10  11
BRANCH   5  13
ATOM     13  O   UNL     1       5.983   5.350  15.644  0.00  0.00    +0.000 OA
BRANCH  13  14
ATOM     14  C   UNL     1       6.817   4.566  14.810  0.00  0.00    +0.000 C 
BRANCH  14  16
ATOM     15  C   UNL     1       6.477   3.612  12.522  0.00  0.00    +0.000 C 
ATOM     16  C   UNL     1       6.014   3.866  13.753  0.00  0.00    +0.000 C 
ENDBRANCH  14  16
ENDBRANCH  13  14
ENDBRANCH   5  13
ENDBRANCH   4   8
ENDBRANCH   2   4
ENDBRANCH   1   2
BRANCH   1  17
ATOM     17  C   UNL     1       1.620   6.339  20.488  0.00  0.00    +0.000 C 
BRANCH  17  18
ATOM     18  C   UNL     1       2.179   7.339  19.480  0.00  0.00    +0.000 C 
BRANCH  18  19
ATOM     19  N   UNL     1       1.572   8.647  19.608  0.00  0.00    +0.000 N 
ATOM     20  C   UNL     1       1.591   9.565  18.589  0.00  0.00    +0.000 C 
ATOM     21  O   UNL     1       2.058   9.342  17.480  0.00  0.00    +0.000 OA
ATOM     22  H   UNL     1       1.228   8.916  20.518  0.00  0.00    +0.000 HD
BRANCH  20  23
ATOM     23  C   UNL     1       1.079  10.901  18.966  0.00  0.00    +0.000 C 
ATOM     24  C   UNL     1       1.799  12.019  19.142  0.00  0.00    +0.000 C 
ATOM     25  C   UNL     1       0.919  13.172  19.490  0.00  0.00    +0.000 C 
ATOM     26  C   UNL     1       1.177  14.359  18.555  0.00  0.00    +0.000 C 
ATOM     27  C   UNL     1       1.120  13.608  20.947  0.00  0.00    +0.000 C 
ATOM     28  N   UNL     1      -0.465  12.657  19.313  0.00  0.00    +0.000 NA
ATOM     29  C   UNL     1      -0.375  11.159  19.227  0.00  0.00    +0.000 C 
ATOM     30  C   UNL     1      -0.833  10.582  20.577  0.00  0.00    +0.000 C 
ATOM     31  C   UNL     1      -1.302  10.663  18.113  0.00  0.00    +0.000 C 
ATOM     32  H   UNL     1      -0.819  13.000  18.419  0.00  0.00    +0.000 HD
ENDBRANCH  20  23
ENDBRANCH  18  19
ENDBRANCH  17  18
ENDBRANCH   1  17
TORSDOF 11
ENDMDL
