MODEL 1
REMARK VINA RESULT:      -8.8      0.000      0.000
REMARK  Name = 
REMARK  3 active torsions:
REMARK  status: ('A' for Active; 'I' for Inactive)
REMARK    1  A    between atoms: C_2  and  C_10
REMARK    2  A    between atoms: N_3  and  C_4
REMARK    3  A    between atoms: C_12  and  N_13
REMARK                            x       y       z     vdW  Elec       q    Type
REMARK                         _______ _______ _______ _____ _____    ______ ____
ROOT
ATOM      1  C   UNL     1       3.198   6.551  17.810  0.00  0.00    +0.000 A 
ATOM      2  C   UNL     1       2.186   5.596  17.820  0.00  0.00    +0.000 A 
ATOM      3  C   UNL     1       2.653   4.331  18.025  0.00  0.00    +0.000 A 
ATOM      4  N   UNL     1       3.432   3.895  17.057  0.00  0.00    +0.000 NA
ATOM      5  C   UNL     1       4.446   4.717  16.813  0.00  0.00    +0.000 A 
ATOM      6  C   UNL     1       5.549   3.998  16.386  0.00  0.00    +0.000 A 
ATOM      7  C   UNL     1       6.800   4.564  16.447  0.00  0.00    +0.000 A 
ATOM      8  C   UNL     1       6.905   5.906  16.815  0.00  0.00    +0.000 A 
ATOM      9  C   UNL     1       5.765   6.672  17.185  0.00  0.00    +0.000 A 
ATOM     10  C   UNL     1       4.474   6.077  17.261  0.00  0.00    +0.000 A 
ENDROOT
BRANCH   3  11
ATOM     11  N   UNL     1       3.013   3.984  19.361  0.00  0.00    +0.000 N 
ATOM     12  C   UNL     1       1.785   4.043  20.174  0.00  0.00    +0.000 C 
ATOM     13  C   UNL     1       2.212   3.820  21.635  0.00  0.00    +0.000 C 
ATOM     14  O   UNL     1       2.768   2.504  21.823  0.00  0.00    +0.000 OA
ATOM     15  C   UNL     1       3.937   2.339  21.009  0.00  0.00    +0.000 C 
ATOM     16  C   UNL     1       3.633   2.625  19.538  0.00  0.00    +0.000 C 
ENDBRANCH   3  11
BRANCH   1  18
ATOM     17  O   UNL     1       2.579   8.813  17.975  0.00  0.00    +0.000 OA
ATOM     18  C   UNL     1       2.629   7.742  18.587  0.00  0.00    +0.000 C 
ATOM     19  N   UNL     1       2.053   7.594  19.853  0.00  0.00    +0.000 N 
ATOM     20  H   UNL     1       2.250   6.736  20.349  0.00  0.00    +0.000 HD
BRANCH  19  21
ATOM     21  C   UNL     1       1.208   8.546  20.527  0.00  0.00    +0.000 A 
ATOM     22  C   UNL     1       0.404   9.514  19.901  0.00  0.00    +0.000 A 
ATOM     23  C   UNL     1      -0.368  10.444  20.658  0.00  0.00    +0.000 A 
ATOM     24  C   UNL     1      -0.331  10.424  22.045  0.00  0.00    +0.000 A 
ATOM     25  C   UNL     1       0.440   9.459  22.684  0.00  0.00    +0.000 A 
ATOM     26  C   UNL     1       1.194   8.529  21.926  0.00  0.00    +0.000 A 
ENDBRANCH  19  21
ENDBRANCH   1  18
TORSDOF 3
ENDMDL
MODEL 2
REMARK VINA RESULT:      -8.6      1.408      1.771
REMARK  Name = 
REMARK  3 active torsions:
REMARK  status: ('A' for Active; 'I' for Inactive)
REMARK    1  A    between atoms: C_2  and  C_10
REMARK    2  A    between atoms: N_3  and  C_4
REMARK    3  A    between atoms: C_12  and  N_13
REMARK                            x       y       z     vdW  Elec       q    Type
REMARK                         _______ _______ _______ _____ _____    ______ ____
ROOT
ATOM      1  C   UNL     1       3.139   6.338  17.800  0.00  0.00    +0.000 A 
ATOM      2  C   UNL     1       2.240   5.279  17.730  0.00  0.00    +0.000 A 
ATOM      3  C   UNL     1       2.824   4.072  17.980  0.00  0.00    +0.000 A 
ATOM      4  N   UNL     1       3.725   3.728  17.084  0.00  0.00    +0.000 NA
ATOM      5  C   UNL     1       4.659   4.656  16.921  0.00  0.00    +0.000 A 
ATOM      6  C   UNL     1       5.866   4.063  16.593  0.00  0.00    +0.000 A 
ATOM      7  C   UNL     1       7.038   4.763  16.756  0.00  0.00    +0.000 A 
ATOM      8  C   UNL     1       6.965   6.107  17.123  0.00  0.00    +0.000 A 
ATOM      9  C   UNL     1       5.721   6.742  17.392  0.00  0.00    +0.000 A 
ATOM     10  C   UNL     1       4.501   6.009  17.363  0.00  0.00    +0.000 A 
ENDROOT
BRANCH   3  11
ATOM     11  N   UNL     1       3.105   3.761  19.343  0.00  0.00    +0.000 N 
ATOM     12  C   UNL     1       1.855   3.947  20.102  0.00  0.00    +0.000 C 
ATOM     13  C   UNL     1       2.208   3.761  21.587  0.00  0.00    +0.000 C 
ATOM     14  O   UNL     1       2.657   2.418  21.855  0.00  0.00    +0.000 OA
ATOM     15  C   UNL     1       3.840   2.131  21.098  0.00  0.00    +0.000 C 
ATOM     16  C   UNL     1       3.615   2.370  19.604  0.00  0.00    +0.000 C 
ENDBRANCH   3  11
BRANCH   1  18
ATOM     17  O   UNL     1       2.399   7.420  19.753  0.00  0.00    +0.000 OA
ATOM     18  C   UNL     1       2.380   7.457  18.519  0.00  0.00    +0.000 C 
ATOM     19  N   UNL     1       1.833   8.544  17.829  0.00  0.00    +0.000 N 
ATOM     20  H   UNL     1       1.728   8.446  16.829  0.00  0.00    +0.000 HD
BRANCH  19  21
ATOM     21  C   UNL     1       1.398   9.792  18.400  0.00  0.00    +0.000 A 
ATOM     22  C   UNL     1       0.215   9.987  19.135  0.00  0.00    +0.000 A 
ATOM     23  C   UNL     1      -0.153  11.275  19.626  0.00  0.00    +0.000 A 
ATOM     24  C   UNL     1       0.648  12.379  19.374  0.00  0.00    +0.000 A 
ATOM     25  C   UNL     1       1.835  12.204  18.669  0.00  0.00    +0.000 A 
ATOM     26  C   UNL     1       2.201  10.919  18.196  0.00  0.00    +0.000 A 
ENDBRANCH  19  21
ENDBRANCH   1  18
TORSDOF 3
ENDMDL
MODEL 3
REMARK VINA RESULT:      -8.5      1.764      4.084
REMARK  Name = 
REMARK  3 active torsions:
REMARK  status: ('A' for Active; 'I' for Inactive)
REMARK    1  A    between atoms: C_2  and  C_10
REMARK    2  A    between atoms: N_3  and  C_4
REMARK    3  A    between atoms: C_12  and  N_13
REMARK                            x       y       z     vdW  Elec       q    Type
REMARK                         _______ _______ _______ _____ _____    ______ ____
ROOT
ATOM      1  C   UNL     1       2.904   5.528  19.631  0.00  0.00    +0.000 A 
ATOM      2  C   UNL     1       4.293   5.607  19.609  0.00  0.00    +0.000 A 
ATOM      3  C   UNL     1       4.861   4.706  18.756  0.00  0.00    +0.000 A 
ATOM      4  N   UNL     1       4.662   3.453  19.106  0.00  0.00    +0.000 NA
ATOM      5  C   UNL     1       3.375   3.170  19.271  0.00  0.00    +0.000 A 
ATOM      6  C   UNL     1       3.132   1.849  18.935  0.00  0.00    +0.000 A 
ATOM      7  C   UNL     1       1.850   1.440  18.654  0.00  0.00    +0.000 A 
ATOM      8  C   UNL     1       0.806   2.345  18.849  0.00  0.00    +0.000 A 
ATOM      9  C   UNL     1       1.044   3.684  19.265  0.00  0.00    +0.000 A 
ATOM     10  C   UNL     1       2.369   4.176  19.434  0.00  0.00    +0.000 A 
ENDROOT
BRANCH   3  11
ATOM     11  N   UNL     1       4.806   5.013  17.363  0.00  0.00    +0.000 N 
ATOM     12  C   UNL     1       5.406   6.347  17.186  0.00  0.00    +0.000 C 
ATOM     13  C   UNL     1       5.201   6.730  15.710  0.00  0.00    +0.000 C 
ATOM     14  O   UNL     1       5.915   5.837  14.833  0.00  0.00    +0.000 OA
ATOM     15  C   UNL     1       5.435   4.496  14.994  0.00  0.00    +0.000 C 
ATOM     16  C   UNL     1       5.517   4.048  16.454  0.00  0.00    +0.000 C 
ENDBRANCH   3  11
BRANCH   1  18
ATOM     17  O   UNL     1       2.424   7.581  18.590  0.00  0.00    +0.000 OA
ATOM     18  C   UNL     1       2.425   6.982  19.669  0.00  0.00    +0.000 C 
ATOM     19  N   UNL     1       1.870   7.549  20.821  0.00  0.00    +0.000 N 
ATOM     20  H   UNL     1       2.027   7.064  21.693  0.00  0.00    +0.000 HD
BRANCH  19  21
ATOM     21  C   UNL     1       1.099   8.763  20.894  0.00  0.00    +0.000 A 
ATOM     22  C   UNL     1       0.859   9.645  19.825  0.00  0.00    +0.000 A 
ATOM     23  C   UNL     1       0.116  10.849  20.006  0.00  0.00    +0.000 A 
ATOM     24  C   UNL     1      -0.380  11.189  21.256  0.00  0.00    +0.000 A 
ATOM     25  C   UNL     1      -0.174  10.319  22.322  0.00  0.00    +0.000 A 
ATOM     26  C   UNL     1       0.554   9.117  22.132  0.00  0.00    +0.000 A 
ENDBRANCH  19  21
ENDBRANCH   1  18
TORSDOF 3
ENDMDL
MODEL 4
REMARK VINA RESULT:      -7.9      2.328      6.756
REMARK  Name = 
REMARK  3 active torsions:
REMARK  status: ('A' for Active; 'I' for Inactive)
REMARK    1  A    between atoms: C_2  and  C_10
REMARK    2  A    between atoms: N_3  and  C_4
REMARK    3  A    between atoms: C_12  and  N_13
REMARK                            x       y       z     vdW  Elec       q    Type
REMARK                         _______ _______ _______ _____ _____    ______ ____
ROOT
ATOM      1  C   UNL     1       4.216   6.547  17.417  0.00  0.00    +0.000 A 
ATOM      2  C   UNL     1       4.743   5.532  18.209  0.00  0.00    +0.000 A 
ATOM      3  C   UNL     1       3.850   5.053  19.121  0.00  0.00    +0.000 A 
ATOM      4  N   UNL     1       3.488   5.943  20.020  0.00  0.00    +0.000 NA
ATOM      5  C   UNL     1       3.020   7.058  19.472  0.00  0.00    +0.000 A 
ATOM      6  C   UNL     1       2.055   7.621  20.289  0.00  0.00    +0.000 A 
ATOM      7  C   UNL     1       1.170   8.536  19.771  0.00  0.00    +0.000 A 
ATOM      8  C   UNL     1       1.356   8.974  18.459  0.00  0.00    +0.000 A 
ATOM      9  C   UNL     1       2.393   8.451  17.637  0.00  0.00    +0.000 A 
ATOM     10  C   UNL     1       3.241   7.406  18.100  0.00  0.00    +0.000 A 
ENDROOT
BRANCH   3  11
ATOM     11  N   UNL     1       2.842   4.168  18.634  0.00  0.00    +0.000 N 
ATOM     12  C   UNL     1       3.505   2.898  18.287  0.00  0.00    +0.000 C 
ATOM     13  C   UNL     1       2.439   2.012  17.621  0.00  0.00    +0.000 C 
ATOM     14  O   UNL     1       1.379   1.686  18.541  0.00  0.00    +0.000 OA
ATOM     15  C   UNL     1       0.722   2.880  18.983  0.00  0.00    +0.000 C 
ATOM     16  C   UNL     1       1.718   3.871  19.588  0.00  0.00    +0.000 C 
ENDBRANCH   3  11
BRANCH   1  18
ATOM     17  O   UNL     1       4.958   7.248  15.299  0.00  0.00    +0.000 OA
ATOM     18  C   UNL     1       4.734   6.260  16.005  0.00  0.00    +0.000 C 
ATOM     19  N   UNL     1       5.086   4.971  15.592  0.00  0.00    +0.000 N 
ATOM     20  H   UNL     1       4.751   4.202  16.156  0.00  0.00    +0.000 HD
BRANCH  19  21
ATOM     21  C   UNL     1       5.875   4.625  14.439  0.00  0.00    +0.000 A 
ATOM     22  C   UNL     1       7.156   5.125  14.144  0.00  0.00    +0.000 A 
ATOM     23  C   UNL     1       7.843   4.753  12.951  0.00  0.00    +0.000 A 
ATOM     24  C   UNL     1       7.252   3.894  12.036  0.00  0.00    +0.000 A 
ATOM     25  C   UNL     1       5.995   3.370  12.320  0.00  0.00    +0.000 A 
ATOM     26  C   UNL     1       5.323   3.732  13.515  0.00  0.00    +0.000 A 
ENDBRANCH  19  21
ENDBRANCH   1  18
TORSDOF 3
ENDMDL
MODEL 5
REMARK VINA RESULT:      -7.8      2.575      6.714
REMARK  Name = 
REMARK  3 active torsions:
REMARK  status: ('A' for Active; 'I' for Inactive)
REMARK    1  A    between atoms: C_2  and  C_10
REMARK    2  A    between atoms: N_3  and  C_4
REMARK    3  A    between atoms: C_12  and  N_13
REMARK                            x       y       z     vdW  Elec       q    Type
REMARK                         _______ _______ _______ _____ _____    ______ ____
ROOT
ATOM      1  C   UNL     1       4.779   5.863  18.000  0.00  0.00    +0.000 A 
ATOM      2  C   UNL     1       4.867   4.960  19.055  0.00  0.00    +0.000 A 
ATOM      3  C   UNL     1       3.669   4.747  19.672  0.00  0.00    +0.000 A 
ATOM      4  N   UNL     1       3.186   5.817  20.266  0.00  0.00    +0.000 NA
ATOM      5  C   UNL     1       3.093   6.856  19.444  0.00  0.00    +0.000 A 
ATOM      6  C   UNL     1       2.020   7.653  19.805  0.00  0.00    +0.000 A 
ATOM      7  C   UNL     1       1.496   8.545  18.899  0.00  0.00    +0.000 A 
ATOM      8  C   UNL     1       2.151   8.716  17.679  0.00  0.00    +0.000 A 
ATOM      9  C   UNL     1       3.298   7.950  17.332  0.00  0.00    +0.000 A 
ATOM     10  C   UNL     1       3.785   6.925  18.192  0.00  0.00    +0.000 A 
ENDROOT
BRANCH   3  11
ATOM     11  N   UNL     1       2.740   3.896  19.002  0.00  0.00    +0.000 N 
ATOM     12  C   UNL     1       3.419   2.610  18.763  0.00  0.00    +0.000 C 
ATOM     13  C   UNL     1       2.465   1.760  17.906  0.00  0.00    +0.000 C 
ATOM     14  O   UNL     1       1.249   1.458  18.618  0.00  0.00    +0.000 OA
ATOM     15  C   UNL     1       0.557   2.668  18.951  0.00  0.00    +0.000 C 
ATOM     16  C   UNL     1       1.456   3.625  19.736  0.00  0.00    +0.000 C 
ENDBRANCH   3  11
BRANCH   1  18
ATOM     17  O   UNL     1       6.289   4.251  17.193  0.00  0.00    +0.000 OA
ATOM     18  C   UNL     1       5.663   5.273  16.898  0.00  0.00    +0.000 C 
ATOM     19  N   UNL     1       5.643   5.766  15.589  0.00  0.00    +0.000 N 
ATOM     20  H   UNL     1       5.227   6.676  15.448  0.00  0.00    +0.000 HD
BRANCH  19  21
ATOM     21  C   UNL     1       6.161   5.109  14.417  0.00  0.00    +0.000 A 
ATOM     22  C   UNL     1       7.367   5.426  13.767  0.00  0.00    +0.000 A 
ATOM     23  C   UNL     1       7.776   4.745  12.583  0.00  0.00    +0.000 A 
ATOM     24  C   UNL     1       6.978   3.754  12.030  0.00  0.00    +0.000 A 
ATOM     25  C   UNL     1       5.792   3.409  12.669  0.00  0.00    +0.000 A 
ATOM     26  C   UNL     1       5.398   4.081  13.854  0.00  0.00    +0.000 A 
ENDBRANCH  19  21
ENDBRANCH   1  18
TORSDOF 3
ENDMDL
MODEL 6
REMARK VINA RESULT:      -7.8      2.913      7.626
REMARK  Name = 
REMARK  3 active torsions:
REMARK  status: ('A' for Active; 'I' for Inactive)
REMARK    1  A    between atoms: C_2  and  C_10
REMARK    2  A    between atoms: N_3  and  C_4
REMARK    3  A    between atoms: C_12  and  N_13
REMARK                            x       y       z     vdW  Elec       q    Type
REMARK                         _______ _______ _______ _____ _____    ______ ____
ROOT
ATOM      1  C   UNL     1       0.363  10.494  18.112  0.00  0.00    +0.000 A 
ATOM      2  C   UNL     1       0.819  11.456  19.007  0.00  0.00    +0.000 A 
ATOM      3  C   UNL     1      -0.101  11.769  19.964  0.00  0.00    +0.000 A 
ATOM      4  N   UNL     1      -1.188  12.334  19.484  0.00  0.00    +0.000 NA
ATOM      5  C   UNL     1      -1.758  11.609  18.528  0.00  0.00    +0.000 A 
ATOM      6  C   UNL     1      -3.130  11.791  18.548  0.00  0.00    +0.000 A 
ATOM      7  C   UNL     1      -3.950  10.876  17.933  0.00  0.00    +0.000 A 
ATOM      8  C   UNL     1      -3.363   9.852  17.187  0.00  0.00    +0.000 A 
ATOM      9  C   UNL     1      -1.951   9.703  17.105  0.00  0.00    +0.000 A 
ATOM     10  C   UNL     1      -1.078  10.554  17.839  0.00  0.00    +0.000 A 
ENDROOT
BRANCH   3  11
ATOM     11  N   UNL     1      -0.265  10.835  21.030  0.00  0.00    +0.000 N 
ATOM     12  C   UNL     1       1.079  10.373  21.418  0.00  0.00    +0.000 C 
ATOM     13  C   UNL     1       0.879   9.257  22.457  0.00  0.00    +0.000 C 
ATOM     14  O   UNL     1       0.255   9.760  23.654  0.00  0.00    +0.000 OA
ATOM     15  C   UNL     1      -1.040  10.295  23.350  0.00  0.00    +0.000 C 
ATOM     16  C   UNL     1      -0.958  11.361  22.257  0.00  0.00    +0.000 C 
ENDBRANCH   3  11
BRANCH   1  18
ATOM     17  O   UNL     1       2.608  10.116  17.525  0.00  0.00    +0.000 OA
ATOM     18  C   UNL     1       1.560   9.568  17.879  0.00  0.00    +0.000 C 
ATOM     19  N   UNL     1       1.518   8.208  18.200  0.00  0.00    +0.000 N 
ATOM     20  H   UNL     1       0.605   7.799  18.347  0.00  0.00    +0.000 HD
BRANCH  19  21
ATOM     21  C   UNL     1       2.646   7.323  18.337  0.00  0.00    +0.000 A 
ATOM     22  C   UNL     1       3.723   7.226  17.438  0.00  0.00    +0.000 A 
ATOM     23  C   UNL     1       4.777   6.286  17.638  0.00  0.00    +0.000 A 
ATOM     24  C   UNL     1       4.755   5.425  18.727  0.00  0.00    +0.000 A 
ATOM     25  C   UNL     1       3.710   5.521  19.640  0.00  0.00    +0.000 A 
ATOM     26  C   UNL     1       2.673   6.468  19.443  0.00  0.00    +0.000 A 
ENDBRANCH  19  21
ENDBRANCH   1  18
TORSDOF 3
ENDMDL
MODEL 7
REMARK VINA RESULT:      -7.4      2.115      4.421
REMARK  Name = 
REMARK  3 active torsions:
REMARK  status: ('A' for Active; 'I' for Inactive)
REMARK    1  A    between atoms: C_2  and  C_10
REMARK    2  A    between atoms: N_3  and  C_4
REMARK    3  A    between atoms: C_12  and  N_13
REMARK                            x       y       z     vdW  Elec       q    Type
REMARK                         _______ _______ _______ _____ _____    ______ ____
ROOT
ATOM      1  C   UNL     1       2.640   5.613  19.712  0.00  0.00    +0.000 A 
ATOM      2  C   UNL     1       4.018   5.802  19.722  0.00  0.00    +0.000 A 
ATOM      3  C   UNL     1       4.676   4.952  18.881  0.00  0.00    +0.000 A 
ATOM      4  N   UNL     1       4.569   3.686  19.224  0.00  0.00    +0.000 NA
ATOM      5  C   UNL     1       3.306   3.301  19.359  0.00  0.00    +0.000 A 
ATOM      6  C   UNL     1       3.176   1.966  19.014  0.00  0.00    +0.000 A 
ATOM      7  C   UNL     1       1.938   1.458  18.703  0.00  0.00    +0.000 A 
ATOM      8  C   UNL     1       0.820   2.275  18.874  0.00  0.00    +0.000 A 
ATOM      9  C   UNL     1       0.942   3.628  19.298  0.00  0.00    +0.000 A 
ATOM     10  C   UNL     1       2.219   4.223  19.499  0.00  0.00    +0.000 A 
ENDROOT
BRANCH   3  11
ATOM     11  N   UNL     1       4.630   5.259  17.489  0.00  0.00    +0.000 N 
ATOM     12  C   UNL     1       5.166   6.622  17.323  0.00  0.00    +0.000 C 
ATOM     13  C   UNL     1       4.968   6.997  15.844  0.00  0.00    +0.000 C 
ATOM     14  O   UNL     1       5.738   6.142  14.978  0.00  0.00    +0.000 OA
ATOM     15  C   UNL     1       5.322   4.779  15.130  0.00  0.00    +0.000 C 
ATOM     16  C   UNL     1       5.402   4.333  16.590  0.00  0.00    +0.000 C 
ENDBRANCH   3  11
BRANCH   1  18
ATOM     17  O   UNL     1       1.780   7.477  20.859  0.00  0.00    +0.000 OA
ATOM     18  C   UNL     1       2.045   7.024  19.741  0.00  0.00    +0.000 C 
ATOM     19  N   UNL     1       1.955   7.814  18.591  0.00  0.00    +0.000 N 
ATOM     20  H   UNL     1       2.053   7.343  17.702  0.00  0.00    +0.000 HD
BRANCH  19  21
ATOM     21  C   UNL     1       1.731   9.236  18.542  0.00  0.00    +0.000 A 
ATOM     22  C   UNL     1       2.571  10.175  17.919  0.00  0.00    +0.000 A 
ATOM     23  C   UNL     1       2.285  11.572  17.960  0.00  0.00    +0.000 A 
ATOM     24  C   UNL     1       1.169  12.042  18.636  0.00  0.00    +0.000 A 
ATOM     25  C   UNL     1       0.312  11.128  19.240  0.00  0.00    +0.000 A 
ATOM     26  C   UNL     1       0.594   9.739  19.183  0.00  0.00    +0.000 A 
ENDBRANCH  19  21
ENDBRANCH   1  18
TORSDOF 3
ENDMDL
MODEL 8
REMARK VINA RESULT:      -7.3      2.816      8.280
REMARK  Name = 
REMARK  3 active torsions:
REMARK  status: ('A' for Active; 'I' for Inactive)
REMARK    1  A    between atoms: C_2  and  C_10
REMARK    2  A    between atoms: N_3  and  C_4
REMARK    3  A    between atoms: C_12  and  N_13
REMARK                            x       y       z     vdW  Elec       q    Type
REMARK                         _______ _______ _______ _____ _____    ______ ____
ROOT
ATOM      1  C   UNL     1       0.641   9.690  19.141  0.00  0.00    +0.000 A 
ATOM      2  C   UNL     1       0.302  10.807  18.385  0.00  0.00    +0.000 A 
ATOM      3  C   UNL     1       0.274  11.956  19.119  0.00  0.00    +0.000 A 
ATOM      4  N   UNL     1      -0.656  11.963  20.050  0.00  0.00    +0.000 NA
ATOM      5  C   UNL     1      -0.574  10.912  20.858  0.00  0.00    +0.000 A 
ATOM      6  C   UNL     1      -1.004  11.254  22.128  0.00  0.00    +0.000 A 
ATOM      7  C   UNL     1      -0.654  10.472  23.202  0.00  0.00    +0.000 A 
ATOM      8  C   UNL     1       0.018   9.273  22.961  0.00  0.00    +0.000 A 
ATOM      9  C   UNL     1       0.400   8.881  21.648  0.00  0.00    +0.000 A 
ATOM     10  C   UNL     1       0.170   9.733  20.531  0.00  0.00    +0.000 A 
ENDROOT
BRANCH   3  11
ATOM     11  N   UNL     1       1.533  12.543  19.448  0.00  0.00    +0.000 N 
ATOM     12  C   UNL     1       2.026  13.226  18.238  0.00  0.00    +0.000 C 
ATOM     13  C   UNL     1       3.448  13.719  18.559  0.00  0.00    +0.000 C 
ATOM     14  O   UNL     1       3.436  14.702  19.612  0.00  0.00    +0.000 OA
ATOM     15  C   UNL     1       2.903  14.133  20.815  0.00  0.00    +0.000 C 
ATOM     16  C   UNL     1       1.515  13.534  20.578  0.00  0.00    +0.000 C 
ENDBRANCH   3  11
BRANCH   1  18
ATOM     17  O   UNL     1       2.182   9.510  17.374  0.00  0.00    +0.000 OA
ATOM     18  C   UNL     1       1.585   8.878  18.251  0.00  0.00    +0.000 C 
ATOM     19  N   UNL     1       1.878   7.535  18.512  0.00  0.00    +0.000 N 
ATOM     20  H   UNL     1       1.260   7.046  19.144  0.00  0.00    +0.000 HD
BRANCH  19  21
ATOM     21  C   UNL     1       2.971   6.773  17.965  0.00  0.00    +0.000 A 
ATOM     22  C   UNL     1       4.156   7.311  17.430  0.00  0.00    +0.000 A 
ATOM     23  C   UNL     1       5.166   6.474  16.872  0.00  0.00    +0.000 A 
ATOM     24  C   UNL     1       4.997   5.098  16.829  0.00  0.00    +0.000 A 
ATOM     25  C   UNL     1       3.842   4.544  17.374  0.00  0.00    +0.000 A 
ATOM     26  C   UNL     1       2.848   5.381  17.941  0.00  0.00    +0.000 A 
ENDBRANCH  19  21
ENDBRANCH   1  18
TORSDOF 3
ENDMDL
MODEL 9
REMARK VINA RESULT:      -7.1      4.416      7.389
REMARK  Name = 
REMARK  3 active torsions:
REMARK  status: ('A' for Active; 'I' for Inactive)
REMARK    1  A    between atoms: C_2  and  C_10
REMARK    2  A    between atoms: N_3  and  C_4
REMARK    3  A    between atoms: C_12  and  N_13
REMARK                            x       y       z     vdW  Elec       q    Type
REMARK                         _______ _______ _______ _____ _____    ______ ____
ROOT
ATOM      1  C   UNL     1       0.237  10.797  21.043  0.00  0.00    +0.000 A 
ATOM      2  C   UNL     1       0.096  11.767  20.057  0.00  0.00    +0.000 A 
ATOM      3  C   UNL     1      -0.064  11.236  18.810  0.00  0.00    +0.000 A 
ATOM      4  N   UNL     1       0.985  10.564  18.387  0.00  0.00    +0.000 NA
ATOM      5  C   UNL     1       1.358   9.615  19.238  0.00  0.00    +0.000 A 
ATOM      6  C   UNL     1       1.907   8.547  18.549  0.00  0.00    +0.000 A 
ATOM      7  C   UNL     1       2.002   7.318  19.157  0.00  0.00    +0.000 A 
ATOM      8  C   UNL     1       1.663   7.215  20.507  0.00  0.00    +0.000 A 
ATOM      9  C   UNL     1       1.167   8.328  21.240  0.00  0.00    +0.000 A 
ATOM     10  C   UNL     1       0.930   9.580  20.604  0.00  0.00    +0.000 A 
ENDROOT
BRANCH   3  11
ATOM     11  N   UNL     1      -1.351  10.707  18.494  0.00  0.00    +0.000 N 
ATOM     12  C   UNL     1      -2.308  11.827  18.547  0.00  0.00    +0.000 C 
ATOM     13  C   UNL     1      -3.708  11.219  18.358  0.00  0.00    +0.000 C 
ATOM     14  O   UNL     1      -3.847  10.617  17.056  0.00  0.00    +0.000 OA
ATOM     15  C   UNL     1      -2.899   9.555  16.897  0.00  0.00    +0.000 C 
ATOM     16  C   UNL     1      -1.471  10.043  17.150  0.00  0.00    +0.000 C 
ENDBRANCH   3  11
BRANCH   1  18
ATOM     17  O   UNL     1      -0.373  10.768  23.314  0.00  0.00    +0.000 OA
ATOM     18  C   UNL     1      -0.590  11.309  22.226  0.00  0.00    +0.000 C 
ATOM     19  N   UNL     1      -1.422  12.428  22.119  0.00  0.00    +0.000 N 
ATOM     20  H   UNL     1      -1.661  12.734  21.186  0.00  0.00    +0.000 HD
BRANCH  19  21
ATOM     21  C   UNL     1      -1.980  13.190  23.206  0.00  0.00    +0.000 A 
ATOM     22  C   UNL     1      -3.249  12.991  23.778  0.00  0.00    +0.000 A 
ATOM     23  C   UNL     1      -3.732  13.827  24.828  0.00  0.00    +0.000 A 
ATOM     24  C   UNL     1      -2.960  14.878  25.302  0.00  0.00    +0.000 A 
ATOM     25  C   UNL     1      -1.692  15.078  24.766  0.00  0.00    +0.000 A 
ATOM     26  C   UNL     1      -1.212  14.234  23.733  0.00  0.00    +0.000 A 
ENDBRANCH  19  21
ENDBRANCH   1  18
TORSDOF 3
ENDMDL
