MODEL 1
REMARK VINA RESULT:      -6.7      0.000      0.000
REMARK  Name = 
REMARK  11 active torsions:
REMARK  status: ('A' for Active; 'I' for Inactive)
REMARK    1  A    between atoms: C_1  and  C_2
REMARK    2  A    between atoms: C_2  and  C_4
REMARK    3  A    between atoms: C_7  and  C_8
REMARK    4  A    between atoms: N_10  and  C_11
REMARK    5  A    between atoms: C_11  and  C_12
REMARK    6  A    between atoms: C_12  and  C_13
REMARK    7  A    between atoms: C_13  and  N_14
REMARK    8  A    between atoms: N_14  and  C_15
REMARK    9  A    between atoms: N_14  and  C_16
REMARK   10  A    between atoms: C_20  and  C_21
REMARK   11  A    between atoms: C_22  and  C_23
REMARK                            x       y       z     vdW  Elec       q    Type
REMARK                         _______ _______ _______ _____ _____    ______ ____
ROOT
ATOM      1  C   UNL     1      -0.858  12.999  22.144  0.00  0.00    +0.000 C 
ATOM      2  O   UNL     1      -0.121  13.638  22.902  0.00  0.00    +0.000 OA
ATOM      3  N   UNL     1      -2.148  13.463  21.777  0.00  0.00    +0.000 N 
ATOM      4  C   UNL     1      -2.780  12.855  20.687  0.00  0.00    +0.000 A 
ATOM      5  N   UNL     1      -2.195  12.051  19.848  0.00  0.00    +0.000 NA
ATOM      6  C   UNL     1      -3.024  11.704  18.814  0.00  0.00    +0.000 A 
ATOM      7  C   UNL     1      -2.635  10.873  17.740  0.00  0.00    +0.000 A 
ATOM      8  C   UNL     1      -1.283  10.217  17.749  0.00  0.00    +0.000 C 
ATOM      9  C   UNL     1      -3.552  10.691  16.685  0.00  0.00    +0.000 A 
ATOM     10  C   UNL     1      -3.186   9.913  15.451  0.00  0.00    +0.000 C 
ATOM     11  C   UNL     1      -4.831  11.266  16.762  0.00  0.00    +0.000 A 
ATOM     12  C   UNL     1      -5.237  12.034  17.860  0.00  0.00    +0.000 A 
ATOM     13  C   UNL     1      -4.300  12.254  18.875  0.00  0.00    +0.000 A 
ATOM     14  S   UNL     1      -4.430  13.175  20.327  0.00  0.00    +0.000 S 
ENDROOT
BRANCH   1  18
ATOM     15  C   UNL     1       1.041   9.396  20.544  0.00  0.00    +0.000 A 
ATOM     16  C   UNL     1       0.189   9.281  21.652  0.00  0.00    +0.000 A 
ATOM     17  C   UNL     1      -0.408  10.435  22.221  0.00  0.00    +0.000 A 
ATOM     18  C   UNL     1      -0.222  11.704  21.654  0.00  0.00    +0.000 A 
ATOM     19  C   UNL     1       0.684  11.803  20.578  0.00  0.00    +0.000 A 
ATOM     20  C   UNL     1       1.316  10.671  20.040  0.00  0.00    +0.000 A 
BRANCH  15  22
ATOM     21  C   UNL     1       2.066   8.346  18.400  0.00  0.00    +0.000 C 
ATOM     22  C   UNL     1       1.659   8.222  19.848  0.00  0.00    +0.000 C 
ATOM     23  O   UNL     1       1.865   7.181  20.471  0.00  0.00    +0.000 OA
ENDBRANCH  15  22
ENDBRANCH   1  18
BRANCH   3  24
ATOM     24  C   UNL     1      -2.747  14.720  22.352  0.00  0.00    +0.000 C 
BRANCH  24  25
ATOM     25  C   UNL     1      -3.311  14.719  23.777  0.00  0.00    +0.000 C 
BRANCH  25  26
ATOM     26  C   UNL     1      -4.835  14.469  23.870  0.00  0.00    +0.000 C 
BRANCH  26  27
ATOM     27  N   UNL     1      -5.296  13.067  23.820  0.00  0.00    +0.000 NA
ATOM     28  C   UNL     1      -4.594  12.215  24.784  0.00  0.00    +0.000 C 
ATOM     29  C   UNL     1      -6.740  13.006  24.110  0.00  0.00    +0.000 C 
ENDBRANCH  26  27
ENDBRANCH  25  26
ENDBRANCH  24  25
ENDBRANCH   3  24
TORSDOF 6
ENDMDL
MODEL 2
REMARK VINA RESULT:      -6.6      1.074      1.412
REMARK  Name = 
REMARK  11 active torsions:
REMARK  status: ('A' for Active; 'I' for Inactive)
REMARK    1  A    between atoms: C_1  and  C_2
REMARK    2  A    between atoms: C_2  and  C_4
REMARK    3  A    between atoms: C_7  and  C_8
REMARK    4  A    between atoms: N_10  and  C_11
REMARK    5  A    between atoms: C_11  and  C_12
REMARK    6  A    between atoms: C_12  and  C_13
REMARK    7  A    between atoms: C_13  and  N_14
REMARK    8  A    between atoms: N_14  and  C_15
REMARK    9  A    between atoms: N_14  and  C_16
REMARK   10  A    between atoms: C_20  and  C_21
REMARK   11  A    between atoms: C_22  and  C_23
REMARK                            x       y       z     vdW  Elec       q    Type
REMARK                         _______ _______ _______ _____ _____    ______ ____
ROOT
ATOM      1  C   UNL     1      -1.257  12.890  22.562  0.00  0.00    +0.000 C 
ATOM      2  O   UNL     1      -0.593  13.500  23.406  0.00  0.00    +0.000 OA
ATOM      3  N   UNL     1      -2.505  13.372  22.089  0.00  0.00    +0.000 N 
ATOM      4  C   UNL     1      -3.033  12.802  20.926  0.00  0.00    +0.000 A 
ATOM      5  N   UNL     1      -2.373  12.020  20.121  0.00  0.00    +0.000 NA
ATOM      6  C   UNL     1      -3.101  11.710  19.003  0.00  0.00    +0.000 A 
ATOM      7  C   UNL     1      -2.614  10.911  17.946  0.00  0.00    +0.000 A 
ATOM      8  C   UNL     1      -1.271  10.247  18.063  0.00  0.00    +0.000 C 
ATOM      9  C   UNL     1      -3.427  10.766  16.804  0.00  0.00    +0.000 A 
ATOM     10  C   UNL     1      -2.948  10.025  15.586  0.00  0.00    +0.000 C 
ATOM     11  C   UNL     1      -4.706  11.347  16.776  0.00  0.00    +0.000 A 
ATOM     12  C   UNL     1      -5.212  12.083  17.854  0.00  0.00    +0.000 A 
ATOM     13  C   UNL     1      -4.375  12.267  18.960  0.00  0.00    +0.000 A 
ATOM     14  S   UNL     1      -4.639  13.143  20.421  0.00  0.00    +0.000 S 
ENDROOT
BRANCH   1  18
ATOM     15  C   UNL     1       0.778   9.326  21.041  0.00  0.00    +0.000 A 
ATOM     16  C   UNL     1      -0.193   9.180  22.042  0.00  0.00    +0.000 A 
ATOM     17  C   UNL     1      -0.840  10.318  22.586  0.00  0.00    +0.000 A 
ATOM     18  C   UNL     1      -0.581  11.606  22.095  0.00  0.00    +0.000 A 
ATOM     19  C   UNL     1       0.440  11.735  21.131  0.00  0.00    +0.000 A 
ATOM     20  C   UNL     1       1.118  10.616  20.622  0.00  0.00    +0.000 A 
BRANCH  15  22
ATOM     21  C   UNL     1       1.984   8.333  18.966  0.00  0.00    +0.000 C 
ATOM     22  C   UNL     1       1.460   8.173  20.371  0.00  0.00    +0.000 C 
ATOM     23  O   UNL     1       1.621   7.119  20.985  0.00  0.00    +0.000 OA
ENDBRANCH  15  22
ENDBRANCH   1  18
BRANCH   3  24
ATOM     24  C   UNL     1      -3.151  14.615  22.644  0.00  0.00    +0.000 C 
BRANCH  24  25
ATOM     25  C   UNL     1      -3.972  14.541  23.936  0.00  0.00    +0.000 C 
BRANCH  25  26
ATOM     26  C   UNL     1      -5.469  14.901  23.774  0.00  0.00    +0.000 C 
BRANCH  26  27
ATOM     27  N   UNL     1      -5.877  16.277  24.123  0.00  0.00    +0.000 NA
ATOM     28  C   UNL     1      -4.880  16.961  24.951  0.00  0.00    +0.000 C 
ATOM     29  C   UNL     1      -6.078  17.064  22.893  0.00  0.00    +0.000 C 
ENDBRANCH  26  27
ENDBRANCH  25  26
ENDBRANCH  24  25
ENDBRANCH   3  24
TORSDOF 6
ENDMDL
MODEL 3
REMARK VINA RESULT:      -6.5      2.553      6.689
REMARK  Name = 
REMARK  11 active torsions:
REMARK  status: ('A' for Active; 'I' for Inactive)
REMARK    1  A    between atoms: C_1  and  C_2
REMARK    2  A    between atoms: C_2  and  C_4
REMARK    3  A    between atoms: C_7  and  C_8
REMARK    4  A    between atoms: N_10  and  C_11
REMARK    5  A    between atoms: C_11  and  C_12
REMARK    6  A    between atoms: C_12  and  C_13
REMARK    7  A    between atoms: C_13  and  N_14
REMARK    8  A    between atoms: N_14  and  C_15
REMARK    9  A    between atoms: N_14  and  C_16
REMARK   10  A    between atoms: C_20  and  C_21
REMARK   11  A    between atoms: C_22  and  C_23
REMARK                            x       y       z     vdW  Elec       q    Type
REMARK                         _______ _______ _______ _____ _____    ______ ____
ROOT
ATOM      1  C   UNL     1       0.460  10.347  21.772  0.00  0.00    +0.000 C 
ATOM      2  O   UNL     1       1.059   9.854  22.733  0.00  0.00    +0.000 OA
ATOM      3  N   UNL     1       0.599   9.840  20.454  0.00  0.00    +0.000 N 
ATOM      4  C   UNL     1      -0.337  10.238  19.493  0.00  0.00    +0.000 A 
ATOM      5  N   UNL     1      -1.449  10.862  19.759  0.00  0.00    +0.000 NA
ATOM      6  C   UNL     1      -2.223  11.018  18.639  0.00  0.00    +0.000 A 
ATOM      7  C   UNL     1      -3.498  11.624  18.646  0.00  0.00    +0.000 A 
ATOM      8  C   UNL     1      -4.026  12.252  19.905  0.00  0.00    +0.000 C 
ATOM      9  C   UNL     1      -4.235  11.616  17.444  0.00  0.00    +0.000 A 
ATOM     10  C   UNL     1      -5.643  12.141  17.382  0.00  0.00    +0.000 C 
ATOM     11  C   UNL     1      -3.665  11.082  16.277  0.00  0.00    +0.000 A 
ATOM     12  C   UNL     1      -2.374  10.543  16.259  0.00  0.00    +0.000 A 
ATOM     13  C   UNL     1      -1.673  10.505  17.469  0.00  0.00    +0.000 A 
ATOM     14  S   UNL     1      -0.108   9.878  17.829  0.00  0.00    +0.000 S 
ENDROOT
BRANCH   1  18
ATOM     15  C   UNL     1      -2.264  13.552  22.981  0.00  0.00    +0.000 A 
ATOM     16  C   UNL     1      -1.120  13.876  22.238  0.00  0.00    +0.000 A 
ATOM     17  C   UNL     1      -0.195  12.867  21.867  0.00  0.00    +0.000 A 
ATOM     18  C   UNL     1      -0.432  11.518  22.169  0.00  0.00    +0.000 A 
ATOM     19  C   UNL     1      -1.557  11.223  22.967  0.00  0.00    +0.000 A 
ATOM     20  C   UNL     1      -2.451  12.224  23.377  0.00  0.00    +0.000 A 
BRANCH  15  22
ATOM     21  C   UNL     1      -3.365  15.085  24.765  0.00  0.00    +0.000 C 
ATOM     22  C   UNL     1      -3.319  14.547  23.357  0.00  0.00    +0.000 C 
ATOM     23  O   UNL     1      -4.113  14.946  22.506  0.00  0.00    +0.000 OA
ENDBRANCH  15  22
ENDBRANCH   1  18
BRANCH   3  24
ATOM     24  C   UNL     1       1.551   8.722  20.117  0.00  0.00    +0.000 C 
BRANCH  24  25
ATOM     25  C   UNL     1       1.268   7.299  20.610  0.00  0.00    +0.000 C 
BRANCH  25  26
ATOM     26  C   UNL     1       2.255   6.225  20.092  0.00  0.00    +0.000 C 
BRANCH  26  27
ATOM     27  N   UNL     1       2.346   6.037  18.629  0.00  0.00    +0.000 NA
ATOM     28  C   UNL     1       3.696   6.288  18.118  0.00  0.00    +0.000 C 
ATOM     29  C   UNL     1       1.963   4.657  18.280  0.00  0.00    +0.000 C 
ENDBRANCH  26  27
ENDBRANCH  25  26
ENDBRANCH  24  25
ENDBRANCH   3  24
TORSDOF 6
ENDMDL
MODEL 4
REMARK VINA RESULT:      -6.4      1.315      2.583
REMARK  Name = 
REMARK  11 active torsions:
REMARK  status: ('A' for Active; 'I' for Inactive)
REMARK    1  A    between atoms: C_1  and  C_2
REMARK    2  A    between atoms: C_2  and  C_4
REMARK    3  A    between atoms: C_7  and  C_8
REMARK    4  A    between atoms: N_10  and  C_11
REMARK    5  A    between atoms: C_11  and  C_12
REMARK    6  A    between atoms: C_12  and  C_13
REMARK    7  A    between atoms: C_13  and  N_14
REMARK    8  A    between atoms: N_14  and  C_15
REMARK    9  A    between atoms: N_14  and  C_16
REMARK   10  A    between atoms: C_20  and  C_21
REMARK   11  A    between atoms: C_22  and  C_23
REMARK                            x       y       z     vdW  Elec       q    Type
REMARK                         _______ _______ _______ _____ _____    ______ ____
ROOT
ATOM      1  C   UNL     1      -1.113  12.672  22.443  0.00  0.00    +0.000 C 
ATOM      2  O   UNL     1      -0.439  13.257  23.296  0.00  0.00    +0.000 OA
ATOM      3  N   UNL     1      -2.378  13.155  22.018  0.00  0.00    +0.000 N 
ATOM      4  C   UNL     1      -2.925  12.626  20.845  0.00  0.00    +0.000 A 
ATOM      5  N   UNL     1      -2.273  11.887  19.993  0.00  0.00    +0.000 NA
ATOM      6  C   UNL     1      -3.023  11.613  18.880  0.00  0.00    +0.000 A 
ATOM      7  C   UNL     1      -2.550  10.865  17.780  0.00  0.00    +0.000 A 
ATOM      8  C   UNL     1      -1.196  10.216  17.839  0.00  0.00    +0.000 C 
ATOM      9  C   UNL     1      -3.387  10.756  16.651  0.00  0.00    +0.000 A 
ATOM     10  C   UNL     1      -2.926  10.072  15.393  0.00  0.00    +0.000 C 
ATOM     11  C   UNL     1      -4.673  11.319  16.677  0.00  0.00    +0.000 A 
ATOM     12  C   UNL     1      -5.165  12.002  17.795  0.00  0.00    +0.000 A 
ATOM     13  C   UNL     1      -4.305  12.152  18.888  0.00  0.00    +0.000 A 
ATOM     14  S   UNL     1      -4.547  12.964  20.391  0.00  0.00    +0.000 S 
ENDROOT
BRANCH   1  18
ATOM     15  C   UNL     1       0.934   9.204  20.729  0.00  0.00    +0.000 A 
ATOM     16  C   UNL     1      -0.010   9.003  21.746  0.00  0.00    +0.000 A 
ATOM     17  C   UNL     1      -0.660  10.108  22.352  0.00  0.00    +0.000 A 
ATOM     18  C   UNL     1      -0.431  11.418  21.907  0.00  0.00    +0.000 A 
ATOM     19  C   UNL     1       0.564  11.602  20.925  0.00  0.00    +0.000 A 
ATOM     20  C   UNL     1       1.245  10.515  20.355  0.00  0.00    +0.000 A 
BRANCH  15  22
ATOM     21  C   UNL     1       2.084   8.307  18.579  0.00  0.00    +0.000 C 
ATOM     22  C   UNL     1       1.616   8.089  19.997  0.00  0.00    +0.000 C 
ATOM     23  O   UNL     1       1.822   7.020  20.569  0.00  0.00    +0.000 OA
ENDBRANCH  15  22
ENDBRANCH   1  18
BRANCH   3  24
ATOM     24  C   UNL     1      -3.028  14.365  22.638  0.00  0.00    +0.000 C 
BRANCH  24  25
ATOM     25  C   UNL     1      -2.842  15.747  22.001  0.00  0.00    +0.000 C 
BRANCH  25  26
ATOM     26  C   UNL     1      -1.469  16.407  22.276  0.00  0.00    +0.000 C 
BRANCH  26  27
ATOM     27  N   UNL     1      -0.422  16.249  21.246  0.00  0.00    +0.000 NA
ATOM     28  C   UNL     1      -0.969  15.807  19.960  0.00  0.00    +0.000 C 
ATOM     29  C   UNL     1       0.272  17.533  21.040  0.00  0.00    +0.000 C 
ENDBRANCH  26  27
ENDBRANCH  25  26
ENDBRANCH  24  25
ENDBRANCH   3  24
TORSDOF 6
ENDMDL
MODEL 5
REMARK VINA RESULT:      -6.3      1.553      2.179
REMARK  Name = 
REMARK  11 active torsions:
REMARK  status: ('A' for Active; 'I' for Inactive)
REMARK    1  A    between atoms: C_1  and  C_2
REMARK    2  A    between atoms: C_2  and  C_4
REMARK    3  A    between atoms: C_7  and  C_8
REMARK    4  A    between atoms: N_10  and  C_11
REMARK    5  A    between atoms: C_11  and  C_12
REMARK    6  A    between atoms: C_12  and  C_13
REMARK    7  A    between atoms: C_13  and  N_14
REMARK    8  A    between atoms: N_14  and  C_15
REMARK    9  A    between atoms: N_14  and  C_16
REMARK   10  A    between atoms: C_20  and  C_21
REMARK   11  A    between atoms: C_22  and  C_23
REMARK                            x       y       z     vdW  Elec       q    Type
REMARK                         _______ _______ _______ _____ _____    ______ ____
ROOT
ATOM      1  C   UNL     1      -1.299  13.305  22.659  0.00  0.00    +0.000 C 
ATOM      2  O   UNL     1      -0.573  13.932  23.436  0.00  0.00    +0.000 OA
ATOM      3  N   UNL     1      -2.599  13.754  22.310  0.00  0.00    +0.000 N 
ATOM      4  C   UNL     1      -3.222  13.171  21.202  0.00  0.00    +0.000 A 
ATOM      5  N   UNL     1      -2.623  12.406  20.335  0.00  0.00    +0.000 NA
ATOM      6  C   UNL     1      -3.448  12.077  19.292  0.00  0.00    +0.000 A 
ATOM      7  C   UNL     1      -3.045  11.291  18.190  0.00  0.00    +0.000 A 
ATOM      8  C   UNL     1      -1.680  10.662  18.175  0.00  0.00    +0.000 C 
ATOM      9  C   UNL     1      -3.961  11.125  17.132  0.00  0.00    +0.000 A 
ATOM     10  C   UNL     1      -3.583  10.397  15.872  0.00  0.00    +0.000 C 
ATOM     11  C   UNL     1      -5.251  11.673  17.230  0.00  0.00    +0.000 A 
ATOM     12  C   UNL     1      -5.670  12.395  18.354  0.00  0.00    +0.000 A 
ATOM     13  C   UNL     1      -4.735  12.600  19.374  0.00  0.00    +0.000 A 
ATOM     14  S   UNL     1      -4.878  13.470  20.856  0.00  0.00    +0.000 S 
ENDROOT
BRANCH   1  18
ATOM     15  C   UNL     1       0.684   9.799  20.946  0.00  0.00    +0.000 A 
ATOM     16  C   UNL     1      -0.243   9.618  21.982  0.00  0.00    +0.000 A 
ATOM     17  C   UNL     1      -0.872  10.736  22.587  0.00  0.00    +0.000 A 
ATOM     18  C   UNL     1      -0.638  12.039  22.125  0.00  0.00    +0.000 A 
ATOM     19  C   UNL     1       0.341  12.203  21.123  0.00  0.00    +0.000 A 
ATOM     20  C   UNL     1       1.001  11.103  20.552  0.00  0.00    +0.000 A 
BRANCH  15  22
ATOM     21  C   UNL     1       1.534   7.345  20.909  0.00  0.00    +0.000 C 
ATOM     22  C   UNL     1       1.342   8.670  20.214  0.00  0.00    +0.000 C 
ATOM     23  O   UNL     1       1.684   8.820  19.041  0.00  0.00    +0.000 OA
ENDBRANCH  15  22
ENDBRANCH   1  18
BRANCH   3  24
ATOM     24  C   UNL     1      -3.220  14.980  22.928  0.00  0.00    +0.000 C 
BRANCH  24  25
ATOM     25  C   UNL     1      -3.882  14.892  24.308  0.00  0.00    +0.000 C 
BRANCH  25  26
ATOM     26  C   UNL     1      -2.939  15.189  25.498  0.00  0.00    +0.000 C 
BRANCH  26  27
ATOM     27  N   UNL     1      -2.020  16.338  25.365  0.00  0.00    +0.000 NA
ATOM     28  C   UNL     1      -2.719  17.624  25.452  0.00  0.00    +0.000 C 
ATOM     29  C   UNL     1      -1.002  16.289  26.429  0.00  0.00    +0.000 C 
ENDBRANCH  26  27
ENDBRANCH  25  26
ENDBRANCH  24  25
ENDBRANCH   3  24
TORSDOF 6
ENDMDL
MODEL 6
REMARK VINA RESULT:      -6.3      2.764      6.515
REMARK  Name = 
REMARK  11 active torsions:
REMARK  status: ('A' for Active; 'I' for Inactive)
REMARK    1  A    between atoms: C_1  and  C_2
REMARK    2  A    between atoms: C_2  and  C_4
REMARK    3  A    between atoms: C_7  and  C_8
REMARK    4  A    between atoms: N_10  and  C_11
REMARK    5  A    between atoms: C_11  and  C_12
REMARK    6  A    between atoms: C_12  and  C_13
REMARK    7  A    between atoms: C_13  and  N_14
REMARK    8  A    between atoms: N_14  and  C_15
REMARK    9  A    between atoms: N_14  and  C_16
REMARK   10  A    between atoms: C_20  and  C_21
REMARK   11  A    between atoms: C_22  and  C_23
REMARK                            x       y       z     vdW  Elec       q    Type
REMARK                         _______ _______ _______ _____ _____    ______ ____
ROOT
ATOM      1  C   UNL     1       0.472  10.291  21.804  0.00  0.00    +0.000 C 
ATOM      2  O   UNL     1       1.042   9.815  22.790  0.00  0.00    +0.000 OA
ATOM      3  N   UNL     1       0.592   9.716  20.512  0.00  0.00    +0.000 N 
ATOM      4  C   UNL     1      -0.319  10.114  19.528  0.00  0.00    +0.000 A 
ATOM      5  N   UNL     1      -1.401  10.801  19.756  0.00  0.00    +0.000 NA
ATOM      6  C   UNL     1      -2.162  10.942  18.626  0.00  0.00    +0.000 A 
ATOM      7  C   UNL     1      -3.406  11.609  18.595  0.00  0.00    +0.000 A 
ATOM      8  C   UNL     1      -3.908  12.319  19.821  0.00  0.00    +0.000 C 
ATOM      9  C   UNL     1      -4.138  11.579  17.391  0.00  0.00    +0.000 A 
ATOM     10  C   UNL     1      -5.519  12.168  17.294  0.00  0.00    +0.000 C 
ATOM     11  C   UNL     1      -3.589  10.965  16.253  0.00  0.00    +0.000 A 
ATOM     12  C   UNL     1      -2.325  10.363  16.269  0.00  0.00    +0.000 A 
ATOM     13  C   UNL     1      -1.632  10.349  17.484  0.00  0.00    +0.000 A 
ATOM     14  S   UNL     1      -0.101   9.665  17.883  0.00  0.00    +0.000 S 
ENDROOT
BRANCH   1  18
ATOM     15  C   UNL     1      -1.746  13.957  22.696  0.00  0.00    +0.000 A 
ATOM     16  C   UNL     1      -2.246  12.730  23.155  0.00  0.00    +0.000 A 
ATOM     17  C   UNL     1      -1.574  11.520  22.848  0.00  0.00    +0.000 A 
ATOM     18  C   UNL     1      -0.364  11.520  22.140  0.00  0.00    +0.000 A 
ATOM     19  C   UNL     1       0.089  12.758  21.638  0.00  0.00    +0.000 A 
ATOM     20  C   UNL     1      -0.597  13.954  21.899  0.00  0.00    +0.000 A 
BRANCH  15  22
ATOM     21  C   UNL     1      -1.875  16.525  22.327  0.00  0.00    +0.000 C 
ATOM     22  C   UNL     1      -2.360  15.282  23.031  0.00  0.00    +0.000 C 
ATOM     23  O   UNL     1      -3.280  15.339  23.846  0.00  0.00    +0.000 OA
ENDBRANCH  15  22
ENDBRANCH   1  18
BRANCH   3  24
ATOM     24  C   UNL     1       1.490   8.539  20.233  0.00  0.00    +0.000 C 
BRANCH  24  25
ATOM     25  C   UNL     1       1.202   7.183  20.887  0.00  0.00    +0.000 C 
BRANCH  25  26
ATOM     26  C   UNL     1       1.979   5.992  20.277  0.00  0.00    +0.000 C 
BRANCH  26  27
ATOM     27  N   UNL     1       1.392   4.646  20.439  0.00  0.00    +0.000 NA
ATOM     28  C   UNL     1       1.389   3.885  19.186  0.00  0.00    +0.000 C 
ATOM     29  C   UNL     1       2.158   3.885  21.443  0.00  0.00    +0.000 C 
ENDBRANCH  26  27
ENDBRANCH  25  26
ENDBRANCH  24  25
ENDBRANCH   3  24
TORSDOF 6
ENDMDL
MODEL 7
REMARK VINA RESULT:      -6.2      1.193      1.906
REMARK  Name = 
REMARK  11 active torsions:
REMARK  status: ('A' for Active; 'I' for Inactive)
REMARK    1  A    between atoms: C_1  and  C_2
REMARK    2  A    between atoms: C_2  and  C_4
REMARK    3  A    between atoms: C_7  and  C_8
REMARK    4  A    between atoms: N_10  and  C_11
REMARK    5  A    between atoms: C_11  and  C_12
REMARK    6  A    between atoms: C_12  and  C_13
REMARK    7  A    between atoms: C_13  and  N_14
REMARK    8  A    between atoms: N_14  and  C_15
REMARK    9  A    between atoms: N_14  and  C_16
REMARK   10  A    between atoms: C_20  and  C_21
REMARK   11  A    between atoms: C_22  and  C_23
REMARK                            x       y       z     vdW  Elec       q    Type
REMARK                         _______ _______ _______ _____ _____    ______ ____
ROOT
ATOM      1  C   UNL     1      -0.963  12.781  22.320  0.00  0.00    +0.000 C 
ATOM      2  O   UNL     1      -0.233  13.365  23.127  0.00  0.00    +0.000 OA
ATOM      3  N   UNL     1      -2.276  13.233  22.024  0.00  0.00    +0.000 N 
ATOM      4  C   UNL     1      -2.909  12.717  20.889  0.00  0.00    +0.000 A 
ATOM      5  N   UNL     1      -2.314  12.024  19.961  0.00  0.00    +0.000 NA
ATOM      6  C   UNL     1      -3.152  11.754  18.912  0.00  0.00    +0.000 A 
ATOM      7  C   UNL     1      -2.757  11.052  17.752  0.00  0.00    +0.000 A 
ATOM      8  C   UNL     1      -1.383  10.448  17.671  0.00  0.00    +0.000 C 
ATOM      9  C   UNL     1      -3.688  10.945  16.700  0.00  0.00    +0.000 A 
ATOM     10  C   UNL     1      -3.322  10.311  15.386  0.00  0.00    +0.000 C 
ATOM     11  C   UNL     1      -4.984  11.463  16.856  0.00  0.00    +0.000 A 
ATOM     12  C   UNL     1      -5.394  12.099  18.034  0.00  0.00    +0.000 A 
ATOM     13  C   UNL     1      -4.445  12.249  19.050  0.00  0.00    +0.000 A 
ATOM     14  S   UNL     1      -4.576  13.012  20.591  0.00  0.00    +0.000 S 
ENDROOT
BRANCH   1  18
ATOM     15  C   UNL     1       0.885   9.163  20.693  0.00  0.00    +0.000 A 
ATOM     16  C   UNL     1       1.190  10.403  20.114  0.00  0.00    +0.000 A 
ATOM     17  C   UNL     1       0.576  11.589  20.589  0.00  0.00    +0.000 A 
ATOM     18  C   UNL     1      -0.293  11.566  21.689  0.00  0.00    +0.000 A 
ATOM     19  C   UNL     1      -0.631  10.303  22.218  0.00  0.00    +0.000 A 
ATOM     20  C   UNL     1      -0.062   9.120  21.721  0.00  0.00    +0.000 A 
BRANCH  15  22
ATOM     21  C   UNL     1       2.281   7.796  18.981  0.00  0.00    +0.000 C 
ATOM     22  C   UNL     1       1.537   7.876  20.291  0.00  0.00    +0.000 C 
ATOM     23  O   UNL     1       1.494   6.907  21.049  0.00  0.00    +0.000 OA
ENDBRANCH  15  22
ENDBRANCH   1  18
BRANCH   3  24
ATOM     24  C   UNL     1      -2.905  14.402  22.735  0.00  0.00    +0.000 C 
BRANCH  24  25
ATOM     25  C   UNL     1      -3.446  14.234  24.159  0.00  0.00    +0.000 C 
BRANCH  25  26
ATOM     26  C   UNL     1      -2.666  15.011  25.246  0.00  0.00    +0.000 C 
BRANCH  26  27
ATOM     27  N   UNL     1      -3.028  16.427  25.459  0.00  0.00    +0.000 NA
ATOM     28  C   UNL     1      -2.089  17.347  24.810  0.00  0.00    +0.000 C 
ATOM     29  C   UNL     1      -4.377  16.682  24.920  0.00  0.00    +0.000 C 
ENDBRANCH  26  27
ENDBRANCH  25  26
ENDBRANCH  24  25
ENDBRANCH   3  24
TORSDOF 6
ENDMDL
MODEL 8
REMARK VINA RESULT:      -6.2      2.699      6.673
REMARK  Name = 
REMARK  11 active torsions:
REMARK  status: ('A' for Active; 'I' for Inactive)
REMARK    1  A    between atoms: C_1  and  C_2
REMARK    2  A    between atoms: C_2  and  C_4
REMARK    3  A    between atoms: C_7  and  C_8
REMARK    4  A    between atoms: N_10  and  C_11
REMARK    5  A    between atoms: C_11  and  C_12
REMARK    6  A    between atoms: C_12  and  C_13
REMARK    7  A    between atoms: C_13  and  N_14
REMARK    8  A    between atoms: N_14  and  C_15
REMARK    9  A    between atoms: N_14  and  C_16
REMARK   10  A    between atoms: C_20  and  C_21
REMARK   11  A    between atoms: C_22  and  C_23
REMARK                            x       y       z     vdW  Elec       q    Type
REMARK                         _______ _______ _______ _____ _____    ______ ____
ROOT
ATOM      1  C   UNL     1       0.574  10.326  21.620  0.00  0.00    +0.000 C 
ATOM      2  O   UNL     1       1.177   9.873  22.597  0.00  0.00    +0.000 OA
ATOM      3  N   UNL     1       0.655   9.725  20.337  0.00  0.00    +0.000 N 
ATOM      4  C   UNL     1      -0.288  10.100  19.374  0.00  0.00    +0.000 A 
ATOM      5  N   UNL     1      -1.364  10.789  19.623  0.00  0.00    +0.000 NA
ATOM      6  C   UNL     1      -2.161  10.904  18.514  0.00  0.00    +0.000 A 
ATOM      7  C   UNL     1      -3.408  11.567  18.510  0.00  0.00    +0.000 A 
ATOM      8  C   UNL     1      -3.873  12.302  19.736  0.00  0.00    +0.000 C 
ATOM      9  C   UNL     1      -4.177  11.511  17.330  0.00  0.00    +0.000 A 
ATOM     10  C   UNL     1      -5.562  12.094  17.266  0.00  0.00    +0.000 C 
ATOM     11  C   UNL     1      -3.663  10.874  16.189  0.00  0.00    +0.000 A 
ATOM     12  C   UNL     1      -2.397  10.277  16.176  0.00  0.00    +0.000 A 
ATOM     13  C   UNL     1      -1.666  10.290  17.369  0.00  0.00    +0.000 A 
ATOM     14  S   UNL     1      -0.120   9.618  17.733  0.00  0.00    +0.000 S 
ENDROOT
BRANCH   1  18
ATOM     15  C   UNL     1      -1.972  13.726  22.675  0.00  0.00    +0.000 A 
ATOM     16  C   UNL     1      -0.850  13.942  21.863  0.00  0.00    +0.000 A 
ATOM     17  C   UNL     1       0.019  12.870  21.538  0.00  0.00    +0.000 A 
ATOM     18  C   UNL     1      -0.254  11.561  21.957  0.00  0.00    +0.000 A 
ATOM     19  C   UNL     1      -1.354  11.376  22.821  0.00  0.00    +0.000 A 
ATOM     20  C   UNL     1      -2.191  12.442  23.185  0.00  0.00    +0.000 A 
BRANCH  15  22
ATOM     21  C   UNL     1      -4.355  14.395  23.464  0.00  0.00    +0.000 C 
ATOM     22  C   UNL     1      -2.971  14.790  23.012  0.00  0.00    +0.000 C 
ATOM     23  O   UNL     1      -2.643  15.975  22.955  0.00  0.00    +0.000 OA
ENDBRANCH  15  22
ENDBRANCH   1  18
BRANCH   3  24
ATOM     24  C   UNL     1       1.548   8.545  20.054  0.00  0.00    +0.000 C 
BRANCH  24  25
ATOM     25  C   UNL     1       1.468   7.294  20.936  0.00  0.00    +0.000 C 
BRANCH  25  26
ATOM     26  C   UNL     1       1.510   5.953  20.164  0.00  0.00    +0.000 C 
BRANCH  26  27
ATOM     27  N   UNL     1       2.682   5.081  20.385  0.00  0.00    +0.000 NA
ATOM     28  C   UNL     1       2.404   3.681  20.052  0.00  0.00    +0.000 C 
ATOM     29  C   UNL     1       3.810   5.542  19.555  0.00  0.00    +0.000 C 
ENDBRANCH  26  27
ENDBRANCH  25  26
ENDBRANCH  24  25
ENDBRANCH   3  24
TORSDOF 6
ENDMDL
MODEL 9
REMARK VINA RESULT:      -6.1      1.457      2.120
REMARK  Name = 
REMARK  11 active torsions:
REMARK  status: ('A' for Active; 'I' for Inactive)
REMARK    1  A    between atoms: C_1  and  C_2
REMARK    2  A    between atoms: C_2  and  C_4
REMARK    3  A    between atoms: C_7  and  C_8
REMARK    4  A    between atoms: N_10  and  C_11
REMARK    5  A    between atoms: C_11  and  C_12
REMARK    6  A    between atoms: C_12  and  C_13
REMARK    7  A    between atoms: C_13  and  N_14
REMARK    8  A    between atoms: N_14  and  C_15
REMARK    9  A    between atoms: N_14  and  C_16
REMARK   10  A    between atoms: C_20  and  C_21
REMARK   11  A    between atoms: C_22  and  C_23
REMARK                            x       y       z     vdW  Elec       q    Type
REMARK                         _______ _______ _______ _____ _____    ______ ____
ROOT
ATOM      1  C   UNL     1      -1.059  12.594  22.405  0.00  0.00    +0.000 C 
ATOM      2  O   UNL     1      -0.388  13.178  23.262  0.00  0.00    +0.000 OA
ATOM      3  N   UNL     1      -2.306  13.097  21.950  0.00  0.00    +0.000 N 
ATOM      4  C   UNL     1      -2.842  12.562  20.775  0.00  0.00    +0.000 A 
ATOM      5  N   UNL     1      -2.190  11.797  19.946  0.00  0.00    +0.000 NA
ATOM      6  C   UNL     1      -2.926  11.522  18.823  0.00  0.00    +0.000 A 
ATOM      7  C   UNL     1      -2.448  10.748  17.743  0.00  0.00    +0.000 A 
ATOM      8  C   UNL     1      -1.109  10.073  17.836  0.00  0.00    +0.000 C 
ATOM      9  C   UNL     1      -3.267  10.640  16.601  0.00  0.00    +0.000 A 
ATOM     10  C   UNL     1      -2.798   9.928  15.361  0.00  0.00    +0.000 C 
ATOM     11  C   UNL     1      -4.542  11.229  16.595  0.00  0.00    +0.000 A 
ATOM     12  C   UNL     1      -5.039  11.938  17.694  0.00  0.00    +0.000 A 
ATOM     13  C   UNL     1      -4.197  12.087  18.801  0.00  0.00    +0.000 A 
ATOM     14  S   UNL     1      -4.449  12.926  20.286  0.00  0.00    +0.000 S 
ENDROOT
BRANCH   1  18
ATOM     15  C   UNL     1       0.954   9.062  20.784  0.00  0.00    +0.000 A 
ATOM     16  C   UNL     1      -0.046   8.892  21.752  0.00  0.00    +0.000 A 
ATOM     17  C   UNL     1      -0.688  10.017  22.328  0.00  0.00    +0.000 A 
ATOM     18  C   UNL     1      -0.393  11.319  21.900  0.00  0.00    +0.000 A 
ATOM     19  C   UNL     1       0.656  11.471  20.970  0.00  0.00    +0.000 A 
ATOM     20  C   UNL     1       1.328  10.363  20.431  0.00  0.00    +0.000 A 
BRANCH  15  22
ATOM     21  C   UNL     1       1.632   6.556  20.714  0.00  0.00    +0.000 C 
ATOM     22  C   UNL     1       1.634   7.926  20.083  0.00  0.00    +0.000 C 
ATOM     23  O   UNL     1       2.154   8.111  18.984  0.00  0.00    +0.000 OA
ENDBRANCH  15  22
ENDBRANCH   1  18
BRANCH   3  24
ATOM     24  C   UNL     1      -2.942  14.328  22.541  0.00  0.00    +0.000 C 
BRANCH  24  25
ATOM     25  C   UNL     1      -2.433  15.719  22.146  0.00  0.00    +0.000 C 
BRANCH  25  26
ATOM     26  C   UNL     1      -3.543  16.767  21.889  0.00  0.00    +0.000 C 
BRANCH  26  27
ATOM     27  N   UNL     1      -4.475  16.506  20.773  0.00  0.00    +0.000 NA
ATOM     28  C   UNL     1      -5.872  16.454  21.214  0.00  0.00    +0.000 C 
ATOM     29  C   UNL     1      -4.347  17.568  19.758  0.00  0.00    +0.000 C 
ENDBRANCH  26  27
ENDBRANCH  25  26
ENDBRANCH  24  25
ENDBRANCH   3  24
TORSDOF 6
ENDMDL
