MODEL 1
REMARK VINA RESULT:      -8.1      0.000      0.000
REMARK  Name = 
REMARK  1 active torsions:
REMARK  status: ('A' for Active; 'I' for Inactive)
REMARK    1  A    between atoms: C_22  and  C_23
REMARK                            x       y       z     vdW  Elec       q    Type
REMARK                         _______ _______ _______ _____ _____    ______ ____
ROOT
ATOM      1  O   UNL     1       1.374  11.317  18.829  0.00  0.00    +0.000 OA
ATOM      2  C   UNL     1       1.084  10.499  19.694  0.00  0.00    +0.000 A 
ATOM      3  C   UNL     1       0.297  10.884  20.889  0.00  0.00    +0.000 A 
ATOM      4  C   UNL     1      -0.045  12.231  21.069  0.00  0.00    +0.000 A 
ATOM      5  C   UNL     1      -0.800  12.606  22.175  0.00  0.00    +0.000 A 
ATOM      6  C   UNL     1      -1.235  11.632  23.075  0.00  0.00    +0.000 A 
ATOM      7  C   UNL     1      -0.882  10.286  22.900  0.00  0.00    +0.000 A 
ATOM      8  C   UNL     1      -0.085   9.896  21.817  0.00  0.00    +0.000 A 
ATOM      9  C   UNL     1       0.395   8.506  21.656  0.00  0.00    +0.000 A 
ATOM     10  C   UNL     1       1.161   8.217  20.594  0.00  0.00    +0.000 A 
ATOM     11  N   UNL     1       1.458   9.178  19.643  0.00  0.00    +0.000 N 
ATOM     12  C   UNL     1       2.260   8.649  18.555  0.00  0.00    +0.000 C 
ATOM     13  C   UNL     1       2.485   7.232  18.972  0.00  0.00    +0.000 A 
ATOM     14  C   UNL     1       1.832   6.973  20.172  0.00  0.00    +0.000 A 
ATOM     15  N   UNL     1       1.878   5.802  20.825  0.00  0.00    +0.000 NA
ATOM     16  C   UNL     1       2.585   4.815  20.222  0.00  0.00    +0.000 A 
ATOM     17  C   UNL     1       2.669   3.576  20.852  0.00  0.00    +0.000 A 
ATOM     18  C   UNL     1       3.358   2.493  20.296  0.00  0.00    +0.000 A 
ATOM     19  C   UNL     1       3.983   2.633  19.066  0.00  0.00    +0.000 A 
ATOM     20  C   UNL     1       3.934   3.862  18.411  0.00  0.00    +0.000 A 
ATOM     21  C   UNL     1       3.259   4.972  18.971  0.00  0.00    +0.000 A 
ATOM     22  C   UNL     1       3.223   6.239  18.342  0.00  0.00    +0.000 A 
ENDROOT
BRANCH  22  23
ATOM     23  C   UNL     1       3.915   6.542  17.041  0.00  0.00    +0.000 C 
ATOM     24 CL   UNL     1       5.641   6.846  17.315  0.00  0.00    +0.000 Cl
ENDBRANCH  22  23
TORSDOF 1
ENDMDL
MODEL 2
REMARK VINA RESULT:      -8.0      2.078      3.315
REMARK  Name = 
REMARK  1 active torsions:
REMARK  status: ('A' for Active; 'I' for Inactive)
REMARK    1  A    between atoms: C_22  and  C_23
REMARK                            x       y       z     vdW  Elec       q    Type
REMARK                         _______ _______ _______ _____ _____    ______ ____
ROOT
ATOM      1  O   UNL     1      -0.618   9.332  21.999  0.00  0.00    +0.000 OA
ATOM      2  C   UNL     1      -0.031   9.661  20.975  0.00  0.00    +0.000 A 
ATOM      3  C   UNL     1      -0.277  10.973  20.330  0.00  0.00    +0.000 A 
ATOM      4  C   UNL     1      -1.267  11.812  20.860  0.00  0.00    +0.000 A 
ATOM      5  C   UNL     1      -1.497  13.054  20.279  0.00  0.00    +0.000 A 
ATOM      6  C   UNL     1      -0.718  13.463  19.195  0.00  0.00    +0.000 A 
ATOM      7  C   UNL     1       0.264  12.617  18.658  0.00  0.00    +0.000 A 
ATOM      8  C   UNL     1       0.479  11.345  19.202  0.00  0.00    +0.000 A 
ATOM      9  C   UNL     1       1.430  10.384  18.600  0.00  0.00    +0.000 A 
ATOM     10  C   UNL     1       1.572   9.183  19.179  0.00  0.00    +0.000 A 
ATOM     11  N   UNL     1       0.886   8.861  20.337  0.00  0.00    +0.000 N 
ATOM     12  C   UNL     1       1.216   7.534  20.823  0.00  0.00    +0.000 C 
ATOM     13  C   UNL     1       2.161   7.029  19.782  0.00  0.00    +0.000 A 
ATOM     14  C   UNL     1       2.377   8.003  18.813  0.00  0.00    +0.000 A 
ATOM     15  N   UNL     1       3.145   7.837  17.726  0.00  0.00    +0.000 NA
ATOM     16  C   UNL     1       3.769   6.637  17.619  0.00  0.00    +0.000 A 
ATOM     17  C   UNL     1       4.580   6.406  16.512  0.00  0.00    +0.000 A 
ATOM     18  C   UNL     1       5.281   5.208  16.328  0.00  0.00    +0.000 A 
ATOM     19  C   UNL     1       5.184   4.202  17.276  0.00  0.00    +0.000 A 
ATOM     20  C   UNL     1       4.371   4.391  18.392  0.00  0.00    +0.000 A 
ATOM     21  C   UNL     1       3.641   5.588  18.581  0.00  0.00    +0.000 A 
ATOM     22  C   UNL     1       2.782   5.790  19.687  0.00  0.00    +0.000 A 
ENDROOT
BRANCH  22  23
ATOM     23  C   UNL     1       2.537   4.755  20.751  0.00  0.00    +0.000 C 
ATOM     24 CL   UNL     1       1.003   3.915  20.455  0.00  0.00    +0.000 Cl
ENDBRANCH  22  23
TORSDOF 1
ENDMDL
MODEL 3
REMARK VINA RESULT:      -8.0      2.681      7.619
REMARK  Name = 
REMARK  1 active torsions:
REMARK  status: ('A' for Active; 'I' for Inactive)
REMARK    1  A    between atoms: C_22  and  C_23
REMARK                            x       y       z     vdW  Elec       q    Type
REMARK                         _______ _______ _______ _____ _____    ______ ____
ROOT
ATOM      1  O   UNL     1       3.026   4.885  20.331  0.00  0.00    +0.000 OA
ATOM      2  C   UNL     1       3.126   5.773  19.493  0.00  0.00    +0.000 A 
ATOM      3  C   UNL     1       4.074   5.663  18.358  0.00  0.00    +0.000 A 
ATOM      4  C   UNL     1       4.932   4.556  18.299  0.00  0.00    +0.000 A 
ATOM      5  C   UNL     1       5.813   4.428  17.231  0.00  0.00    +0.000 A 
ATOM      6  C   UNL     1       5.810   5.386  16.216  0.00  0.00    +0.000 A 
ATOM      7  C   UNL     1       4.959   6.499  16.283  0.00  0.00    +0.000 A 
ATOM      8  C   UNL     1       4.097   6.668  17.373  0.00  0.00    +0.000 A 
ATOM      9  C   UNL     1       3.261   7.879  17.532  0.00  0.00    +0.000 A 
ATOM     10  C   UNL     1       2.467   7.966  18.609  0.00  0.00    +0.000 A 
ATOM     11  N   UNL     1       2.389   6.932  19.527  0.00  0.00    +0.000 N 
ATOM     12  C   UNL     1       1.441   7.207  20.590  0.00  0.00    +0.000 C 
ATOM     13  C   UNL     1       0.967   8.586  20.258  0.00  0.00    +0.000 A 
ATOM     14  C   UNL     1       1.568   9.033  19.086  0.00  0.00    +0.000 A 
ATOM     15  N   UNL     1       1.377  10.247  18.550  0.00  0.00    +0.000 NA
ATOM     16  C   UNL     1       0.502  11.052  19.202  0.00  0.00    +0.000 A 
ATOM     17  C   UNL     1       0.262  12.326  18.693  0.00  0.00    +0.000 A 
ATOM     18  C   UNL     1      -0.639  13.217  19.285  0.00  0.00    +0.000 A 
ATOM     19  C   UNL     1      -1.340  12.835  20.419  0.00  0.00    +0.000 A 
ATOM     20  C   UNL     1      -1.118  11.573  20.967  0.00  0.00    +0.000 A 
ATOM     21  C   UNL     1      -0.194  10.669  20.391  0.00  0.00    +0.000 A 
ATOM     22  C   UNL     1       0.075   9.397  20.948  0.00  0.00    +0.000 A 
ENDROOT
BRANCH  22  23
ATOM     23  C   UNL     1      -0.566   8.888  22.210  0.00  0.00    +0.000 C 
ATOM     24 CL   UNL     1       0.300   9.497  23.632  0.00  0.00    +0.000 Cl
ENDBRANCH  22  23
TORSDOF 1
ENDMDL
MODEL 4
REMARK VINA RESULT:      -7.9      2.417      3.864
REMARK  Name = 
REMARK  1 active torsions:
REMARK  status: ('A' for Active; 'I' for Inactive)
REMARK    1  A    between atoms: C_22  and  C_23
REMARK                            x       y       z     vdW  Elec       q    Type
REMARK                         _______ _______ _______ _____ _____    ______ ____
ROOT
ATOM      1  O   UNL     1       0.914   7.500  21.552  0.00  0.00    +0.000 OA
ATOM      2  C   UNL     1       1.269   8.013  20.498  0.00  0.00    +0.000 A 
ATOM      3  C   UNL     1       0.738   9.326  20.058  0.00  0.00    +0.000 A 
ATOM      4  C   UNL     1      -0.255   9.945  20.828  0.00  0.00    +0.000 A 
ATOM      5  C   UNL     1      -0.750  11.186  20.440  0.00  0.00    +0.000 A 
ATOM      6  C   UNL     1      -0.228  11.812  19.307  0.00  0.00    +0.000 A 
ATOM      7  C   UNL     1       0.758  11.185  18.531  0.00  0.00    +0.000 A 
ATOM      8  C   UNL     1       1.236   9.916  18.881  0.00  0.00    +0.000 A 
ATOM      9  C   UNL     1       2.198   9.178  18.033  0.00  0.00    +0.000 A 
ATOM     10  C   UNL     1       2.600   7.965  18.436  0.00  0.00    +0.000 A 
ATOM     11  N   UNL     1       2.169   7.431  19.639  0.00  0.00    +0.000 N 
ATOM     12  C   UNL     1       2.756   6.131  19.908  0.00  0.00    +0.000 C 
ATOM     13  C   UNL     1       3.575   5.881  18.683  0.00  0.00    +0.000 A 
ATOM     14  C   UNL     1       3.489   6.965  17.815  0.00  0.00    +0.000 A 
ATOM     15  N   UNL     1       4.080   7.025  16.613  0.00  0.00    +0.000 NA
ATOM     16  C   UNL     1       4.838   5.953  16.271  0.00  0.00    +0.000 A 
ATOM     17  C   UNL     1       5.477   5.958  15.035  0.00  0.00    +0.000 A 
ATOM     18  C   UNL     1       6.296   4.908  14.605  0.00  0.00    +0.000 A 
ATOM     19  C   UNL     1       6.500   3.813  15.431  0.00  0.00    +0.000 A 
ATOM     20  C   UNL     1       5.867   3.765  16.672  0.00  0.00    +0.000 A 
ATOM     21  C   UNL     1       5.019   4.810  17.110  0.00  0.00    +0.000 A 
ATOM     22  C   UNL     1       4.338   4.769  18.349  0.00  0.00    +0.000 A 
ENDROOT
BRANCH  22  23
ATOM     23  C   UNL     1       4.420   3.612  19.307  0.00  0.00    +0.000 C 
ATOM     24 CL   UNL     1       3.152   2.425  18.953  0.00  0.00    +0.000 Cl
ENDBRANCH  22  23
TORSDOF 1
ENDMDL
MODEL 5
REMARK VINA RESULT:      -7.8      1.010      1.298
REMARK  Name = 
REMARK  1 active torsions:
REMARK  status: ('A' for Active; 'I' for Inactive)
REMARK    1  A    between atoms: C_22  and  C_23
REMARK                            x       y       z     vdW  Elec       q    Type
REMARK                         _______ _______ _______ _____ _____    ______ ____
ROOT
ATOM      1  O   UNL     1       2.211  10.946  17.399  0.00  0.00    +0.000 OA
ATOM      2  C   UNL     1       1.724  10.425  18.395  0.00  0.00    +0.000 A 
ATOM      3  C   UNL     1       0.885  11.199  19.342  0.00  0.00    +0.000 A 
ATOM      4  C   UNL     1       0.723  12.575  19.132  0.00  0.00    +0.000 A 
ATOM      5  C   UNL     1      -0.076  13.311  20.000  0.00  0.00    +0.000 A 
ATOM      6  C   UNL     1      -0.732  12.665  21.050  0.00  0.00    +0.000 A 
ATOM      7  C   UNL     1      -0.559  11.290  21.265  0.00  0.00    +0.000 A 
ATOM      8  C   UNL     1       0.278  10.541  20.429  0.00  0.00    +0.000 A 
ATOM      9  C   UNL     1       0.569   9.113  20.685  0.00  0.00    +0.000 A 
ATOM     10  C   UNL     1       1.386   8.469  19.839  0.00  0.00    +0.000 A 
ATOM     11  N   UNL     1       1.909   9.104  18.726  0.00  0.00    +0.000 N 
ATOM     12  C   UNL     1       2.730   8.220  17.920  0.00  0.00    +0.000 C 
ATOM     13  C   UNL     1       2.709   6.948  18.704  0.00  0.00    +0.000 A 
ATOM     14  C   UNL     1       1.911   7.091  19.835  0.00  0.00    +0.000 A 
ATOM     15  N   UNL     1       1.726   6.138  20.759  0.00  0.00    +0.000 NA
ATOM     16  C   UNL     1       2.341   4.953  20.521  0.00  0.00    +0.000 A 
ATOM     17  C   UNL     1       2.185   3.924  21.446  0.00  0.00    +0.000 A 
ATOM     18  C   UNL     1       2.764   2.662  21.275  0.00  0.00    +0.000 A 
ATOM     19  C   UNL     1       3.521   2.400  20.143  0.00  0.00    +0.000 A 
ATOM     20  C   UNL     1       3.712   3.409  19.200  0.00  0.00    +0.000 A 
ATOM     21  C   UNL     1       3.150   4.696  19.370  0.00  0.00    +0.000 A 
ATOM     22  C   UNL     1       3.357   5.747  18.446  0.00  0.00    +0.000 A 
ENDROOT
BRANCH  22  23
ATOM     23  C   UNL     1       4.210   5.615  17.213  0.00  0.00    +0.000 C 
ATOM     24 CL   UNL     1       5.824   6.287  17.503  0.00  0.00    +0.000 Cl
ENDBRANCH  22  23
TORSDOF 1
ENDMDL
MODEL 6
REMARK VINA RESULT:      -7.8      2.018      6.959
REMARK  Name = 
REMARK  1 active torsions:
REMARK  status: ('A' for Active; 'I' for Inactive)
REMARK    1  A    between atoms: C_22  and  C_23
REMARK                            x       y       z     vdW  Elec       q    Type
REMARK                         _______ _______ _______ _____ _____    ______ ____
ROOT
ATOM      1  O   UNL     1       3.584   6.529  17.076  0.00  0.00    +0.000 OA
ATOM      2  C   UNL     1       3.109   6.285  18.178  0.00  0.00    +0.000 A 
ATOM      3  C   UNL     1       3.202   4.933  18.780  0.00  0.00    +0.000 A 
ATOM      4  C   UNL     1       3.771   3.897  18.028  0.00  0.00    +0.000 A 
ATOM      5  C   UNL     1       3.884   2.628  18.584  0.00  0.00    +0.000 A 
ATOM      6  C   UNL     1       3.459   2.410  19.896  0.00  0.00    +0.000 A 
ATOM      7  C   UNL     1       2.879   3.446  20.643  0.00  0.00    +0.000 A 
ATOM      8  C   UNL     1       2.716   4.719  20.084  0.00  0.00    +0.000 A 
ATOM      9  C   UNL     1       2.015   5.807  20.800  0.00  0.00    +0.000 A 
ATOM     10  C   UNL     1       1.896   6.995  20.190  0.00  0.00    +0.000 A 
ATOM     11  N   UNL     1       2.453   7.220  18.943  0.00  0.00    +0.000 N 
ATOM     12  C   UNL     1       2.249   8.580  18.483  0.00  0.00    +0.000 C 
ATOM     13  C   UNL     1       1.431   9.179  19.582  0.00  0.00    +0.000 A 
ATOM     14  C   UNL     1       1.226   8.246  20.593  0.00  0.00    +0.000 A 
ATOM     15  N   UNL     1       0.496   8.469  21.696  0.00  0.00    +0.000 NA
ATOM     16  C   UNL     1      -0.029   9.713  21.817  0.00  0.00    +0.000 A 
ATOM     17  C   UNL     1      -0.797  10.005  22.941  0.00  0.00    +0.000 A 
ATOM     18  C   UNL     1      -1.361  11.266  23.163  0.00  0.00    +0.000 A 
ATOM     19  C   UNL     1      -1.154  12.283  22.244  0.00  0.00    +0.000 A 
ATOM     20  C   UNL     1      -0.402  12.027  21.099  0.00  0.00    +0.000 A 
ATOM     21  C   UNL     1       0.157  10.751  20.851  0.00  0.00    +0.000 A 
ATOM     22  C   UNL     1       0.894  10.456  19.681  0.00  0.00    +0.000 A 
ENDROOT
BRANCH  22  23
ATOM     23  C   UNL     1       1.135  11.448  18.576  0.00  0.00    +0.000 C 
ATOM     24 CL   UNL     1       2.294  12.684  19.097  0.00  0.00    +0.000 Cl
ENDBRANCH  22  23
TORSDOF 1
ENDMDL
MODEL 7
REMARK VINA RESULT:      -7.6      2.218      7.186
REMARK  Name = 
REMARK  1 active torsions:
REMARK  status: ('A' for Active; 'I' for Inactive)
REMARK    1  A    between atoms: C_22  and  C_23
REMARK                            x       y       z     vdW  Elec       q    Type
REMARK                         _______ _______ _______ _____ _____    ______ ____
ROOT
ATOM      1  O   UNL     1       2.889   8.144  17.060  0.00  0.00    +0.000 OA
ATOM      2  C   UNL     1       2.445   7.878  18.171  0.00  0.00    +0.000 A 
ATOM      3  C   UNL     1       2.610   6.532  18.768  0.00  0.00    +0.000 A 
ATOM      4  C   UNL     1       3.212   5.523  18.005  0.00  0.00    +0.000 A 
ATOM      5  C   UNL     1       3.392   4.259  18.558  0.00  0.00    +0.000 A 
ATOM      6  C   UNL     1       3.001   4.021  19.877  0.00  0.00    +0.000 A 
ATOM      7  C   UNL     1       2.387   5.030  20.635  0.00  0.00    +0.000 A 
ATOM      8  C   UNL     1       2.157   6.295  20.080  0.00  0.00    +0.000 A 
ATOM      9  C   UNL     1       1.420   7.350  20.810  0.00  0.00    +0.000 A 
ATOM     10  C   UNL     1       1.236   8.531  20.205  0.00  0.00    +0.000 A 
ATOM     11  N   UNL     1       1.761   8.781  18.948  0.00  0.00    +0.000 N 
ATOM     12  C   UNL     1       1.487  10.132  18.494  0.00  0.00    +0.000 C 
ATOM     13  C   UNL     1       0.663  10.692  19.608  0.00  0.00    +0.000 A 
ATOM     14  C   UNL     1       0.518   9.750  20.622  0.00  0.00    +0.000 A 
ATOM     15  N   UNL     1      -0.202   9.939  21.737  0.00  0.00    +0.000 NA
ATOM     16  C   UNL     1      -0.781  11.158  21.869  0.00  0.00    +0.000 A 
ATOM     17  C   UNL     1      -1.541  11.414  23.007  0.00  0.00    +0.000 A 
ATOM     18  C   UNL     1      -2.158  12.648  23.241  0.00  0.00    +0.000 A 
ATOM     19  C   UNL     1      -2.013  13.675  22.319  0.00  0.00    +0.000 A 
ATOM     20  C   UNL     1      -1.271  13.453  21.161  0.00  0.00    +0.000 A 
ATOM     21  C   UNL     1      -0.659  12.204  20.902  0.00  0.00    +0.000 A 
ATOM     22  C   UNL     1       0.070  11.943  19.718  0.00  0.00    +0.000 A 
ENDROOT
BRANCH  22  23
ATOM     23  C   UNL     1       0.246  12.946  18.611  0.00  0.00    +0.000 C 
ATOM     24 CL   UNL     1       1.787  13.804  18.792  0.00  0.00    +0.000 Cl
ENDBRANCH  22  23
TORSDOF 1
ENDMDL
MODEL 8
REMARK VINA RESULT:      -6.7      2.765      7.571
REMARK  Name = 
REMARK  1 active torsions:
REMARK  status: ('A' for Active; 'I' for Inactive)
REMARK    1  A    between atoms: C_22  and  C_23
REMARK                            x       y       z     vdW  Elec       q    Type
REMARK                         _______ _______ _______ _____ _____    ______ ____
ROOT
ATOM      1  O   UNL     1       2.093   4.039  21.695  0.00  0.00    +0.000 OA
ATOM      2  C   UNL     1       2.243   4.585  20.609  0.00  0.00    +0.000 A 
ATOM      3  C   UNL     1       2.743   3.838  19.430  0.00  0.00    +0.000 A 
ATOM      4  C   UNL     1       3.131   2.501  19.592  0.00  0.00    +0.000 A 
ATOM      5  C   UNL     1       3.583   1.780  18.492  0.00  0.00    +0.000 A 
ATOM      6  C   UNL     1       3.614   2.387  17.235  0.00  0.00    +0.000 A 
ATOM      7  C   UNL     1       3.236   3.729  17.077  0.00  0.00    +0.000 A 
ATOM      8  C   UNL     1       2.821   4.484  18.181  0.00  0.00    +0.000 A 
ATOM      9  C   UNL     1       2.515   5.927  18.075  0.00  0.00    +0.000 A 
ATOM     10  C   UNL     1       2.131   6.579  19.181  0.00  0.00    +0.000 A 
ATOM     11  N   UNL     1       1.975   5.914  20.386  0.00  0.00    +0.000 N 
ATOM     12  C   UNL     1       1.510   6.791  21.445  0.00  0.00    +0.000 C 
ATOM     13  C   UNL     1       1.448   8.121  20.766  0.00  0.00    +0.000 A 
ATOM     14  C   UNL     1       1.809   7.997  19.428  0.00  0.00    +0.000 A 
ATOM     15  N   UNL     1       1.890   9.020  18.565  0.00  0.00    +0.000 NA
ATOM     16  C   UNL     1       1.552  10.238  19.056  0.00  0.00    +0.000 A 
ATOM     17  C   UNL     1       1.617  11.339  18.207  0.00  0.00    +0.000 A 
ATOM     18  C   UNL     1       1.266  12.630  18.618  0.00  0.00    +0.000 A 
ATOM     19  C   UNL     1       0.827  12.843  19.916  0.00  0.00    +0.000 A 
ATOM     20  C   UNL     1       0.761  11.768  20.800  0.00  0.00    +0.000 A 
ATOM     21  C   UNL     1       1.132  10.461  20.405  0.00  0.00    +0.000 A 
ATOM     22  C   UNL     1       1.107   9.360  21.292  0.00  0.00    +0.000 A 
ENDROOT
BRANCH  22  23
ATOM     23  C   UNL     1       0.715   9.467  22.741  0.00  0.00    +0.000 C 
ATOM     24 CL   UNL     1      -0.995   9.914  22.887  0.00  0.00    +0.000 Cl
ENDBRANCH  22  23
TORSDOF 1
ENDMDL
MODEL 9
REMARK VINA RESULT:      -6.6      2.025      3.124
REMARK  Name = 
REMARK  1 active torsions:
REMARK  status: ('A' for Active; 'I' for Inactive)
REMARK    1  A    between atoms: C_22  and  C_23
REMARK                            x       y       z     vdW  Elec       q    Type
REMARK                         _______ _______ _______ _____ _____    ______ ____
ROOT
ATOM      1  O   UNL     1      -0.792   8.468  22.388  0.00  0.00    +0.000 OA
ATOM      2  C   UNL     1      -0.028   8.919  21.542  0.00  0.00    +0.000 A 
ATOM      3  C   UNL     1       0.040  10.372  21.259  0.00  0.00    +0.000 A 
ATOM      4  C   UNL     1      -0.851  11.232  21.914  0.00  0.00    +0.000 A 
ATOM      5  C   UNL     1      -0.787  12.600  21.675  0.00  0.00    +0.000 A 
ATOM      6  C   UNL     1       0.186  13.103  20.808  0.00  0.00    +0.000 A 
ATOM      7  C   UNL     1       1.069  12.240  20.144  0.00  0.00    +0.000 A 
ATOM      8  C   UNL     1       0.990  10.855  20.338  0.00  0.00    +0.000 A 
ATOM      9  C   UNL     1       1.832   9.906  19.578  0.00  0.00    +0.000 A 
ATOM     10  C   UNL     1       1.690   8.595  19.820  0.00  0.00    +0.000 A 
ATOM     11  N   UNL     1       0.813   8.137  20.788  0.00  0.00    +0.000 N 
ATOM     12  C   UNL     1       0.844   6.693  20.922  0.00  0.00    +0.000 C 
ATOM     13  C   UNL     1       1.816   6.285  19.863  0.00  0.00    +0.000 A 
ATOM     14  C   UNL     1       2.321   7.408  19.214  0.00  0.00    +0.000 A 
ATOM     15  N   UNL     1       3.184   7.369  18.189  0.00  0.00    +0.000 NA
ATOM     16  C   UNL     1       3.602   6.135  17.812  0.00  0.00    +0.000 A 
ATOM     17  C   UNL     1       4.499   6.031  16.753  0.00  0.00    +0.000 A 
ATOM     18  C   UNL     1       5.001   4.802  16.308  0.00  0.00    +0.000 A 
ATOM     19  C   UNL     1       4.610   3.630  16.938  0.00  0.00    +0.000 A 
ATOM     20  C   UNL     1       3.703   3.693  17.994  0.00  0.00    +0.000 A 
ATOM     21  C   UNL     1       3.170   4.925  18.441  0.00  0.00    +0.000 A 
ATOM     22  C   UNL     1       2.222   5.012  19.487  0.00  0.00    +0.000 A 
ENDROOT
BRANCH  22  23
ATOM     23  C   UNL     1       1.666   3.814  20.207  0.00  0.00    +0.000 C 
ATOM     24 CL   UNL     1       2.541   3.545  21.726  0.00  0.00    +0.000 Cl
ENDBRANCH  22  23
TORSDOF 1
ENDMDL
