MODEL 1
REMARK VINA RESULT:      -7.5      0.000      0.000
REMARK  Name = 
REMARK  7 active torsions:
REMARK  status: ('A' for Active; 'I' for Inactive)
REMARK    1  A    between atoms: C_1  and  C_2
REMARK    2  A    between atoms: C_2  and  N_3
REMARK    3  A    between atoms: C_5  and  C_6
REMARK    4  A    between atoms: C_6  and  O_8
REMARK    5  A    between atoms: C_15  and  N_16
REMARK    6  A    between atoms: C_18  and  N_19
REMARK    7  A    between atoms: C_20  and  C_21
REMARK                            x       y       z     vdW  Elec       q    Type
REMARK                         _______ _______ _______ _____ _____    ______ ____
ROOT
ATOM      1  N   UNL     1       6.923   5.659  17.053  0.00  0.00    +0.000 N 
ATOM      2  C   UNL     1       7.469   5.741  15.774  0.00  0.00    +0.000 A 
ATOM      3  C   UNL     1       7.096   5.036  14.698  0.00  0.00    +0.000 A 
ATOM      4  C   UNL     1       6.019   4.053  14.894  0.00  0.00    +0.000 A 
ATOM      5  O   UNL     1       5.626   3.377  13.945  0.00  0.00    +0.000 OA
ATOM      6  C   UNL     1       5.433   3.908  16.247  0.00  0.00    +0.000 A 
ATOM      7  C   UNL     1       4.453   2.923  16.433  0.00  0.00    +0.000 A 
ATOM      8  C   UNL     1       3.866   2.775  17.680  0.00  0.00    +0.000 A 
ATOM      9  F   UNL     1       2.933   1.822  17.828  0.00  0.00    +0.000 F 
ATOM     10  C   UNL     1       4.193   3.610  18.751  0.00  0.00    +0.000 A 
ATOM     11  C   UNL     1       5.192   4.584  18.537  0.00  0.00    +0.000 A 
ATOM     12  F   UNL     1       5.532   5.362  19.576  0.00  0.00    +0.000 F 
ATOM     13  C   UNL     1       5.867   4.740  17.300  0.00  0.00    +0.000 A 
ENDROOT
BRANCH  10  14
ATOM     14  N   UNL     1       3.501   3.465  19.978  0.00  0.00    +0.000 N 
ATOM     15  C   UNL     1       3.403   2.343  20.868  0.00  0.00    +0.000 C 
ATOM     16  C   UNL     1       1.898   2.612  20.977  0.00  0.00    +0.000 C 
ATOM     17  C   UNL     1       2.196   3.986  20.338  0.00  0.00    +0.000 C 
ATOM     18  C   UNL     1       1.271   4.338  19.188  0.00  0.00    +0.000 C 
BRANCH  16  19
ATOM     19  N   UNL     1       1.474   2.766  22.372  0.00  0.00    +0.000 NA
ATOM     20  H   UNL     1       0.862   2.027  22.715  0.00  0.00    +0.000 HD
ATOM     21  H   UNL     1       0.991   3.645  22.557  0.00  0.00    +0.000 HD
ENDBRANCH  16  19
ENDBRANCH  10  14
BRANCH   1  23
ATOM     22  C   UNL     1       7.830   7.832  17.810  0.00  0.00    +0.000 C 
ATOM     23  C   UNL     1       7.568   6.375  18.173  0.00  0.00    +0.000 C 
ENDBRANCH   1  23
BRANCH   3  24
ATOM     24  C   UNL     1       7.777   5.263  13.406  0.00  0.00    +0.000 C 
ATOM     25  O   UNL     1       8.746   5.994  13.277  0.00  0.00    +0.000 OA
BRANCH  24  26
ATOM     26  O   UNL     1       7.233   4.599  12.362  0.00  0.00    +0.000 OA
ATOM     27  H   UNL     1       6.248   4.537  12.389  0.00  0.00    +0.000 HD
ENDBRANCH  24  26
ENDBRANCH   3  24
TORSDOF 5
ENDMDL
MODEL 2
REMARK VINA RESULT:      -7.3      5.610      7.111
REMARK  Name = 
REMARK  7 active torsions:
REMARK  status: ('A' for Active; 'I' for Inactive)
REMARK    1  A    between atoms: C_1  and  C_2
REMARK    2  A    between atoms: C_2  and  N_3
REMARK    3  A    between atoms: C_5  and  C_6
REMARK    4  A    between atoms: C_6  and  O_8
REMARK    5  A    between atoms: C_15  and  N_16
REMARK    6  A    between atoms: C_18  and  N_19
REMARK    7  A    between atoms: C_20  and  C_21
REMARK                            x       y       z     vdW  Elec       q    Type
REMARK                         _______ _______ _______ _____ _____    ______ ____
ROOT
ATOM      1  N   UNL     1       0.943   8.916  20.714  0.00  0.00    +0.000 N 
ATOM      2  C   UNL     1       0.601  10.221  20.370  0.00  0.00    +0.000 A 
ATOM      3  C   UNL     1       0.927  10.863  19.240  0.00  0.00    +0.000 A 
ATOM      4  C   UNL     1       1.756  10.121  18.276  0.00  0.00    +0.000 A 
ATOM      5  O   UNL     1       2.086  10.651  17.216  0.00  0.00    +0.000 OA
ATOM      6  C   UNL     1       2.172   8.741  18.617  0.00  0.00    +0.000 A 
ATOM      7  C   UNL     1       3.013   8.071  17.719  0.00  0.00    +0.000 A 
ATOM      8  C   UNL     1       3.403   6.769  17.994  0.00  0.00    +0.000 A 
ATOM      9  F   UNL     1       4.213   6.155  17.117  0.00  0.00    +0.000 F 
ATOM     10  C   UNL     1       2.946   6.088  19.125  0.00  0.00    +0.000 A 
ATOM     11  C   UNL     1       2.110   6.792  20.017  0.00  0.00    +0.000 A 
ATOM     12  F   UNL     1       1.700   6.150  21.120  0.00  0.00    +0.000 F 
ATOM     13  C   UNL     1       1.727   8.143  19.815  0.00  0.00    +0.000 A 
ENDROOT
BRANCH  10  14
ATOM     14  N   UNL     1       3.312   4.732  19.311  0.00  0.00    +0.000 N 
ATOM     15  C   UNL     1       4.589   4.086  19.198  0.00  0.00    +0.000 C 
ATOM     16  C   UNL     1       3.904   2.956  18.422  0.00  0.00    +0.000 C 
ATOM     17  C   UNL     1       2.571   3.544  18.934  0.00  0.00    +0.000 C 
ATOM     18  C   UNL     1       1.524   3.719  17.849  0.00  0.00    +0.000 C 
BRANCH  16  19
ATOM     19  N   UNL     1       4.163   1.646  19.028  0.00  0.00    +0.000 NA
ATOM     20  H   UNL     1       4.090   1.625  20.044  0.00  0.00    +0.000 HD
ATOM     21  H   UNL     1       5.081   1.265  18.799  0.00  0.00    +0.000 HD
ENDBRANCH  16  19
ENDBRANCH  10  14
BRANCH   1  23
ATOM     22  C   UNL     1      -0.337   9.323  22.790  0.00  0.00    +0.000 C 
ATOM     23  C   UNL     1       0.659   8.418  22.075  0.00  0.00    +0.000 C 
ENDBRANCH   1  23
BRANCH   3  24
ATOM     24  C   UNL     1       0.464  12.251  19.029  0.00  0.00    +0.000 C 
ATOM     25  O   UNL     1       0.703  13.162  19.805  0.00  0.00    +0.000 OA
BRANCH  24  26
ATOM     26  O   UNL     1      -0.261  12.435  17.905  0.00  0.00    +0.000 OA
ATOM     27  H   UNL     1       0.042  13.191  17.346  0.00  0.00    +0.000 HD
ENDBRANCH  24  26
ENDBRANCH   3  24
TORSDOF 5
ENDMDL
MODEL 3
REMARK VINA RESULT:      -7.1      5.242      6.868
REMARK  Name = 
REMARK  7 active torsions:
REMARK  status: ('A' for Active; 'I' for Inactive)
REMARK    1  A    between atoms: C_1  and  C_2
REMARK    2  A    between atoms: C_2  and  N_3
REMARK    3  A    between atoms: C_5  and  C_6
REMARK    4  A    between atoms: C_6  and  O_8
REMARK    5  A    between atoms: C_15  and  N_16
REMARK    6  A    between atoms: C_18  and  N_19
REMARK    7  A    between atoms: C_20  and  C_21
REMARK                            x       y       z     vdW  Elec       q    Type
REMARK                         _______ _______ _______ _____ _____    ______ ____
ROOT
ATOM      1  N   UNL     1       3.574   6.235  17.913  0.00  0.00    +0.000 N 
ATOM      2  C   UNL     1       3.868   4.897  18.163  0.00  0.00    +0.000 A 
ATOM      3  C   UNL     1       3.408   4.153  19.177  0.00  0.00    +0.000 A 
ATOM      4  C   UNL     1       2.524   4.827  20.142  0.00  0.00    +0.000 A 
ATOM      5  O   UNL     1       2.063   4.198  21.093  0.00  0.00    +0.000 OA
ATOM      6  C   UNL     1       2.213   6.260  19.934  0.00  0.00    +0.000 A 
ATOM      7  C   UNL     1       1.424   6.904  20.896  0.00  0.00    +0.000 A 
ATOM      8  C   UNL     1       1.093   8.239  20.721  0.00  0.00    +0.000 A 
ATOM      9  F   UNL     1       0.338   8.830  21.661  0.00  0.00    +0.000 F 
ATOM     10  C   UNL     1       1.491   8.954  19.588  0.00  0.00    +0.000 A 
ATOM     11  C   UNL     1       2.296   8.282  18.643  0.00  0.00    +0.000 A 
ATOM     12  F   UNL     1       2.707   8.978  17.573  0.00  0.00    +0.000 F 
ATOM     13  C   UNL     1       2.712   6.936  18.800  0.00  0.00    +0.000 A 
ENDROOT
BRANCH  10  14
ATOM     14  N   UNL     1       1.054  10.291  19.425  0.00  0.00    +0.000 N 
ATOM     15  C   UNL     1       0.910  11.349  20.383  0.00  0.00    +0.000 C 
ATOM     16  C   UNL     1      -0.449  11.679  19.755  0.00  0.00    +0.000 C 
ATOM     17  C   UNL     1      -0.009  10.788  18.573  0.00  0.00    +0.000 C 
ATOM     18  C   UNL     1      -1.058   9.779  18.145  0.00  0.00    +0.000 C 
BRANCH  16  19
ATOM     19  N   UNL     1      -0.532  13.085  19.347  0.00  0.00    +0.000 NA
ATOM     20  H   UNL     1       0.315  13.627  19.511  0.00  0.00    +0.000 HD
ATOM     21  H   UNL     1      -1.290  13.597  19.797  0.00  0.00    +0.000 HD
ENDBRANCH  16  19
ENDBRANCH  10  14
BRANCH   1  23
ATOM     22  C   UNL     1       5.169   6.008  16.036  0.00  0.00    +0.000 C 
ATOM     23  C   UNL     1       4.306   6.962  16.855  0.00  0.00    +0.000 C 
ENDBRANCH   1  23
BRANCH   3  24
ATOM     24  C   UNL     1       3.811   2.735  19.283  0.00  0.00    +0.000 C 
ATOM     25  O   UNL     1       3.093   1.806  18.949  0.00  0.00    +0.000 OA
BRANCH  24  26
ATOM     26  O   UNL     1       5.047   2.541  19.793  0.00  0.00    +0.000 OA
ATOM     27  H   UNL     1       5.406   1.631  19.654  0.00  0.00    +0.000 HD
ENDBRANCH  24  26
ENDBRANCH   3  24
TORSDOF 5
ENDMDL
MODEL 4
REMARK VINA RESULT:      -7.0      4.736      6.444
REMARK  Name = 
REMARK  7 active torsions:
REMARK  status: ('A' for Active; 'I' for Inactive)
REMARK    1  A    between atoms: C_1  and  C_2
REMARK    2  A    between atoms: C_2  and  N_3
REMARK    3  A    between atoms: C_5  and  C_6
REMARK    4  A    between atoms: C_6  and  O_8
REMARK    5  A    between atoms: C_15  and  N_16
REMARK    6  A    between atoms: C_18  and  N_19
REMARK    7  A    between atoms: C_20  and  C_21
REMARK                            x       y       z     vdW  Elec       q    Type
REMARK                         _______ _______ _______ _____ _____    ______ ____
ROOT
ATOM      1  N   UNL     1       2.355   5.304  19.806  0.00  0.00    +0.000 N 
ATOM      2  C   UNL     1       3.097   4.343  19.124  0.00  0.00    +0.000 A 
ATOM      3  C   UNL     1       3.847   4.537  18.031  0.00  0.00    +0.000 A 
ATOM      4  C   UNL     1       3.863   5.900  17.476  0.00  0.00    +0.000 A 
ATOM      5  O   UNL     1       4.535   6.147  16.476  0.00  0.00    +0.000 OA
ATOM      6  C   UNL     1       3.060   6.947  18.149  0.00  0.00    +0.000 A 
ATOM      7  C   UNL     1       3.034   8.224  17.572  0.00  0.00    +0.000 A 
ATOM      8  C   UNL     1       2.312   9.234  18.188  0.00  0.00    +0.000 A 
ATOM      9  F   UNL     1       2.304  10.446  17.611  0.00  0.00    +0.000 F 
ATOM     10  C   UNL     1       1.639   9.027  19.395  0.00  0.00    +0.000 A 
ATOM     11  C   UNL     1       1.672   7.728  19.945  0.00  0.00    +0.000 A 
ATOM     12  F   UNL     1       0.997   7.520  21.085  0.00  0.00    +0.000 F 
ATOM     13  C   UNL     1       2.347   6.644  19.328  0.00  0.00    +0.000 A 
ENDROOT
BRANCH  10  14
ATOM     14  N   UNL     1       0.987  10.117  20.020  0.00  0.00    +0.000 N 
ATOM     15  C   UNL     1       0.768  10.402  21.410  0.00  0.00    +0.000 C 
ATOM     16  C   UNL     1      -0.677  10.778  21.064  0.00  0.00    +0.000 C 
ATOM     17  C   UNL     1      -0.213  10.808  19.591  0.00  0.00    +0.000 C 
ATOM     18  C   UNL     1      -1.127  10.049  18.647  0.00  0.00    +0.000 C 
BRANCH  16  19
ATOM     19  N   UNL     1      -1.015  12.126  21.532  0.00  0.00    +0.000 NA
ATOM     20  H   UNL     1      -2.015  12.318  21.593  0.00  0.00    +0.000 HD
ATOM     21  H   UNL     1      -0.616  12.869  20.959  0.00  0.00    +0.000 HD
ENDBRANCH  16  19
ENDBRANCH  10  14
BRANCH   1  23
ATOM     22  C   UNL     1       1.415   3.375  21.033  0.00  0.00    +0.000 C 
ATOM     23  C   UNL     1       1.438   4.892  20.888  0.00  0.00    +0.000 C 
ENDBRANCH   1  23
BRANCH   3  24
ATOM     24  C   UNL     1       4.587   3.401  17.442  0.00  0.00    +0.000 C 
ATOM     25  O   UNL     1       4.158   2.258  17.425  0.00  0.00    +0.000 OA
BRANCH  24  26
ATOM     26  O   UNL     1       5.793   3.725  16.927  0.00  0.00    +0.000 OA
ATOM     27  H   UNL     1       6.142   3.075  16.270  0.00  0.00    +0.000 HD
ENDBRANCH  24  26
ENDBRANCH   3  24
TORSDOF 5
ENDMDL
MODEL 5
REMARK VINA RESULT:      -6.9      4.984      6.519
REMARK  Name = 
REMARK  7 active torsions:
REMARK  status: ('A' for Active; 'I' for Inactive)
REMARK    1  A    between atoms: C_1  and  C_2
REMARK    2  A    between atoms: C_2  and  N_3
REMARK    3  A    between atoms: C_5  and  C_6
REMARK    4  A    between atoms: C_6  and  O_8
REMARK    5  A    between atoms: C_15  and  N_16
REMARK    6  A    between atoms: C_18  and  N_19
REMARK    7  A    between atoms: C_20  and  C_21
REMARK                            x       y       z     vdW  Elec       q    Type
REMARK                         _______ _______ _______ _____ _____    ______ ____
ROOT
ATOM      1  N   UNL     1       2.940   5.624  20.004  0.00  0.00    +0.000 N 
ATOM      2  C   UNL     1       3.973   4.906  19.408  0.00  0.00    +0.000 A 
ATOM      3  C   UNL     1       4.678   5.264  18.327  0.00  0.00    +0.000 A 
ATOM      4  C   UNL     1       4.300   6.534  17.685  0.00  0.00    +0.000 A 
ATOM      5  O   UNL     1       4.910   6.923  16.691  0.00  0.00    +0.000 OA
ATOM      6  C   UNL     1       3.182   7.314  18.265  0.00  0.00    +0.000 A 
ATOM      7  C   UNL     1       2.792   8.488  17.606  0.00  0.00    +0.000 A 
ATOM      8  C   UNL     1       1.766   9.255  18.135  0.00  0.00    +0.000 A 
ATOM      9  F   UNL     1       1.413  10.372  17.479  0.00  0.00    +0.000 F 
ATOM     10  C   UNL     1       1.133   8.914  19.333  0.00  0.00    +0.000 A 
ATOM     11  C   UNL     1       1.539   7.720  19.967  0.00  0.00    +0.000 A 
ATOM     12  F   UNL     1       0.907   7.374  21.098  0.00  0.00    +0.000 F 
ATOM     13  C   UNL     1       2.542   6.867  19.440  0.00  0.00    +0.000 A 
ENDROOT
BRANCH  10  14
ATOM     14  N   UNL     1       0.148   9.780  19.866  0.00  0.00    +0.000 N 
ATOM     15  C   UNL     1      -1.100  10.226  19.314  0.00  0.00    +0.000 C 
ATOM     16  C   UNL     1      -0.754  11.644  19.783  0.00  0.00    +0.000 C 
ATOM     17  C   UNL     1       0.343  10.985  20.648  0.00  0.00    +0.000 C 
ATOM     18  C   UNL     1       1.700  11.655  20.527  0.00  0.00    +0.000 C 
BRANCH  16  19
ATOM     19  N   UNL     1      -1.812  12.211  20.625  0.00  0.00    +0.000 NA
ATOM     20  H   UNL     1      -2.759  12.054  20.282  0.00  0.00    +0.000 HD
ATOM     21  H   UNL     1      -1.724  13.217  20.769  0.00  0.00    +0.000 HD
ENDBRANCH  16  19
ENDBRANCH  10  14
BRANCH   1  23
ATOM     22  C   UNL     1       1.123   4.026  20.517  0.00  0.00    +0.000 C 
ATOM     23  C   UNL     1       2.144   5.005  21.084  0.00  0.00    +0.000 C 
ENDBRANCH   1  23
BRANCH   3  24
ATOM     24  C   UNL     1       5.758   4.384  17.835  0.00  0.00    +0.000 C 
ATOM     25  O   UNL     1       6.847   4.291  18.377  0.00  0.00    +0.000 OA
BRANCH  24  26
ATOM     26  O   UNL     1       5.449   3.689  16.718  0.00  0.00    +0.000 OA
ATOM     27  H   UNL     1       5.066   4.237  15.991  0.00  0.00    +0.000 HD
ENDBRANCH  24  26
ENDBRANCH   3  24
TORSDOF 5
ENDMDL
MODEL 6
REMARK VINA RESULT:      -6.8      6.327      8.101
REMARK  Name = 
REMARK  7 active torsions:
REMARK  status: ('A' for Active; 'I' for Inactive)
REMARK    1  A    between atoms: C_1  and  C_2
REMARK    2  A    between atoms: C_2  and  N_3
REMARK    3  A    between atoms: C_5  and  C_6
REMARK    4  A    between atoms: C_6  and  O_8
REMARK    5  A    between atoms: C_15  and  N_16
REMARK    6  A    between atoms: C_18  and  N_19
REMARK    7  A    between atoms: C_20  and  C_21
REMARK                            x       y       z     vdW  Elec       q    Type
REMARK                         _______ _______ _______ _____ _____    ______ ____
ROOT
ATOM      1  N   UNL     1       1.376   9.968  19.233  0.00  0.00    +0.000 N 
ATOM      2  C   UNL     1       0.564  10.833  19.961  0.00  0.00    +0.000 A 
ATOM      3  C   UNL     1      -0.071  10.561  21.109  0.00  0.00    +0.000 A 
ATOM      4  C   UNL     1       0.084   9.197  21.639  0.00  0.00    +0.000 A 
ATOM      5  O   UNL     1      -0.468   8.882  22.693  0.00  0.00    +0.000 OA
ATOM      6  C   UNL     1       0.912   8.232  20.879  0.00  0.00    +0.000 A 
ATOM      7  C   UNL     1       0.997   6.919  21.362  0.00  0.00    +0.000 A 
ATOM      8  C   UNL     1       1.782   5.996  20.688  0.00  0.00    +0.000 A 
ATOM      9  F   UNL     1       1.841   4.746  21.174  0.00  0.00    +0.000 F 
ATOM     10  C   UNL     1       2.527   6.348  19.560  0.00  0.00    +0.000 A 
ATOM     11  C   UNL     1       2.411   7.673  19.090  0.00  0.00    +0.000 A 
ATOM     12  F   UNL     1       3.098   8.001  17.986  0.00  0.00    +0.000 F 
ATOM     13  C   UNL     1       1.578   8.642  19.705  0.00  0.00    +0.000 A 
ENDROOT
BRANCH  10  14
ATOM     14  N   UNL     1       3.374   5.384  18.963  0.00  0.00    +0.000 N 
ATOM     15  C   UNL     1       4.646   5.533  18.313  0.00  0.00    +0.000 C 
ATOM     16  C   UNL     1       4.144   4.600  17.206  0.00  0.00    +0.000 C 
ATOM     17  C   UNL     1       2.999   4.227  18.173  0.00  0.00    +0.000 C 
ATOM     18  C   UNL     1       1.623   4.266  17.534  0.00  0.00    +0.000 C 
BRANCH  16  19
ATOM     19  N   UNL     1       5.047   3.462  17.003  0.00  0.00    +0.000 NA
ATOM     20  H   UNL     1       5.491   3.115  17.853  0.00  0.00    +0.000 HD
ATOM     21  H   UNL     1       5.801   3.651  16.344  0.00  0.00    +0.000 HD
ENDBRANCH  16  19
ENDBRANCH  10  14
BRANCH   1  23
ATOM     22  C   UNL     1       2.390  11.792  17.906  0.00  0.00    +0.000 C 
ATOM     23  C   UNL     1       1.855  10.365  17.893  0.00  0.00    +0.000 C 
ENDBRANCH   1  23
BRANCH   3  24
ATOM     24  C   UNL     1      -0.885  11.609  21.760  0.00  0.00    +0.000 C 
ATOM     25  O   UNL     1      -1.717  12.276  21.168  0.00  0.00    +0.000 OA
BRANCH  24  26
ATOM     26  O   UNL     1      -0.627  11.782  23.075  0.00  0.00    +0.000 OA
ATOM     27  H   UNL     1      -0.150  12.619  23.289  0.00  0.00    +0.000 HD
ENDBRANCH  24  26
ENDBRANCH   3  24
TORSDOF 5
ENDMDL
MODEL 7
REMARK VINA RESULT:      -6.7      6.271      8.036
REMARK  Name = 
REMARK  7 active torsions:
REMARK  status: ('A' for Active; 'I' for Inactive)
REMARK    1  A    between atoms: C_1  and  C_2
REMARK    2  A    between atoms: C_2  and  N_3
REMARK    3  A    between atoms: C_5  and  C_6
REMARK    4  A    between atoms: C_6  and  O_8
REMARK    5  A    between atoms: C_15  and  N_16
REMARK    6  A    between atoms: C_18  and  N_19
REMARK    7  A    between atoms: C_20  and  C_21
REMARK                            x       y       z     vdW  Elec       q    Type
REMARK                         _______ _______ _______ _____ _____    ______ ____
ROOT
ATOM      1  N   UNL     1       0.290   9.398  21.101  0.00  0.00    +0.000 N 
ATOM      2  C   UNL     1      -0.343  10.605  20.815  0.00  0.00    +0.000 A 
ATOM      3  C   UNL     1      -0.269  11.296  19.670  0.00  0.00    +0.000 A 
ATOM      4  C   UNL     1       0.594  10.737  18.617  0.00  0.00    +0.000 A 
ATOM      5  O   UNL     1       0.702  11.321  17.540  0.00  0.00    +0.000 OA
ATOM      6  C   UNL     1       1.314   9.473  18.891  0.00  0.00    +0.000 A 
ATOM      7  C   UNL     1       2.181   8.987  17.903  0.00  0.00    +0.000 A 
ATOM      8  C   UNL     1       2.854   7.793  18.116  0.00  0.00    +0.000 A 
ATOM      9  F   UNL     1       3.680   7.355  17.153  0.00  0.00    +0.000 F 
ATOM     10  C   UNL     1       2.660   7.035  19.273  0.00  0.00    +0.000 A 
ATOM     11  C   UNL     1       1.790   7.556  20.255  0.00  0.00    +0.000 A 
ATOM     12  F   UNL     1       1.631   6.846  21.382  0.00  0.00    +0.000 F 
ATOM     13  C   UNL     1       1.122   8.799  20.116  0.00  0.00    +0.000 A 
ENDROOT
BRANCH  10  14
ATOM     14  N   UNL     1       3.311   5.784  19.399  0.00  0.00    +0.000 N 
ATOM     15  C   UNL     1       4.701   5.440  19.290  0.00  0.00    +0.000 C 
ATOM     16  C   UNL     1       4.294   4.235  18.435  0.00  0.00    +0.000 C 
ATOM     17  C   UNL     1       2.855   4.487  18.938  0.00  0.00    +0.000 C 
ATOM     18  C   UNL     1       1.814   4.491  17.834  0.00  0.00    +0.000 C 
BRANCH  16  19
ATOM     19  N   UNL     1       4.824   2.979  18.979  0.00  0.00    +0.000 NA
ATOM     20  H   UNL     1       5.838   2.956  19.084  0.00  0.00    +0.000 HD
ATOM     21  H   UNL     1       4.575   2.159  18.428  0.00  0.00    +0.000 HD
ENDBRANCH  16  19
ENDBRANCH  10  14
BRANCH   1  23
ATOM     22  C   UNL     1      -0.528   9.781  23.403  0.00  0.00    +0.000 C 
ATOM     23  C   UNL     1       0.250   8.856  22.474  0.00  0.00    +0.000 C 
ENDBRANCH   1  23
BRANCH   3  24
ATOM     24  C   UNL     1      -1.024  12.560  19.531  0.00  0.00    +0.000 C 
ATOM     25  O   UNL     1      -1.228  13.325  20.459  0.00  0.00    +0.000 OA
BRANCH  24  26
ATOM     26  O   UNL     1      -1.485  12.802  18.284  0.00  0.00    +0.000 OA
ATOM     27  H   UNL     1      -0.778  12.947  17.610  0.00  0.00    +0.000 HD
ENDBRANCH  24  26
ENDBRANCH   3  24
TORSDOF 5
ENDMDL
MODEL 8
REMARK VINA RESULT:      -6.7      4.571      6.133
REMARK  Name = 
REMARK  7 active torsions:
REMARK  status: ('A' for Active; 'I' for Inactive)
REMARK    1  A    between atoms: C_1  and  C_2
REMARK    2  A    between atoms: C_2  and  N_3
REMARK    3  A    between atoms: C_5  and  C_6
REMARK    4  A    between atoms: C_6  and  O_8
REMARK    5  A    between atoms: C_15  and  N_16
REMARK    6  A    between atoms: C_18  and  N_19
REMARK    7  A    between atoms: C_20  and  C_21
REMARK                            x       y       z     vdW  Elec       q    Type
REMARK                         _______ _______ _______ _____ _____    ______ ____
ROOT
ATOM      1  N   UNL     1       3.080   5.176  19.721  0.00  0.00    +0.000 N 
ATOM      2  C   UNL     1       4.072   4.545  18.975  0.00  0.00    +0.000 A 
ATOM      3  C   UNL     1       4.719   5.048  17.915  0.00  0.00    +0.000 A 
ATOM      4  C   UNL     1       4.318   6.395  17.477  0.00  0.00    +0.000 A 
ATOM      5  O   UNL     1       4.875   6.917  16.513  0.00  0.00    +0.000 OA
ATOM      6  C   UNL     1       3.242   7.089  18.221  0.00  0.00    +0.000 A 
ATOM      7  C   UNL     1       2.827   8.343  17.753  0.00  0.00    +0.000 A 
ATOM      8  C   UNL     1       1.839   9.032  18.439  0.00  0.00    +0.000 A 
ATOM      9  F   UNL     1       1.461  10.230  17.965  0.00  0.00    +0.000 F 
ATOM     10  C   UNL     1       1.271   8.530  19.613  0.00  0.00    +0.000 A 
ATOM     11  C   UNL     1       1.699   7.259  20.052  0.00  0.00    +0.000 A 
ATOM     12  F   UNL     1       1.128   6.761  21.159  0.00  0.00    +0.000 F 
ATOM     13  C   UNL     1       2.664   6.486  19.358  0.00  0.00    +0.000 A 
ENDROOT
BRANCH  10  14
ATOM     14  N   UNL     1       0.325   9.316  20.315  0.00  0.00    +0.000 N 
ATOM     15  C   UNL     1      -0.346  10.527  19.938  0.00  0.00    +0.000 C 
ATOM     16  C   UNL     1      -0.050  11.080  21.336  0.00  0.00    +0.000 C 
ATOM     17  C   UNL     1       0.294   9.627  21.731  0.00  0.00    +0.000 C 
ATOM     18  C   UNL     1       1.606   9.491  22.480  0.00  0.00    +0.000 C 
BRANCH  16  19
ATOM     19  N   UNL     1      -1.272  11.529  22.013  0.00  0.00    +0.000 NA
ATOM     20  H   UNL     1      -1.668  10.856  22.668  0.00  0.00    +0.000 HD
ATOM     21  H   UNL     1      -2.024  11.781  21.373  0.00  0.00    +0.000 HD
ENDBRANCH  16  19
ENDBRANCH  10  14
BRANCH   1  23
ATOM     22  C   UNL     1       1.223   3.592  20.119  0.00  0.00    +0.000 C 
ATOM     23  C   UNL     1       2.340   4.415  20.749  0.00  0.00    +0.000 C 
ENDBRANCH   1  23
BRANCH   3  24
ATOM     24  C   UNL     1       5.761   4.242  17.246  0.00  0.00    +0.000 C 
ATOM     25  O   UNL     1       5.607   3.719  16.154  0.00  0.00    +0.000 OA
BRANCH  24  26
ATOM     26  O   UNL     1       6.909   4.119  17.947  0.00  0.00    +0.000 OA
ATOM     27  H   UNL     1       7.719   4.028  17.389  0.00  0.00    +0.000 HD
ENDBRANCH  24  26
ENDBRANCH   3  24
TORSDOF 5
ENDMDL
MODEL 9
REMARK VINA RESULT:      -6.6      5.554      7.083
REMARK  Name = 
REMARK  7 active torsions:
REMARK  status: ('A' for Active; 'I' for Inactive)
REMARK    1  A    between atoms: C_1  and  C_2
REMARK    2  A    between atoms: C_2  and  N_3
REMARK    3  A    between atoms: C_5  and  C_6
REMARK    4  A    between atoms: C_6  and  O_8
REMARK    5  A    between atoms: C_15  and  N_16
REMARK    6  A    between atoms: C_18  and  N_19
REMARK    7  A    between atoms: C_20  and  C_21
REMARK                            x       y       z     vdW  Elec       q    Type
REMARK                         _______ _______ _______ _____ _____    ______ ____
ROOT
ATOM      1  N   UNL     1       1.112   8.736  20.532  0.00  0.00    +0.000 N 
ATOM      2  C   UNL     1       0.728  10.053  20.294  0.00  0.00    +0.000 A 
ATOM      3  C   UNL     1       1.017  10.788  19.212  0.00  0.00    +0.000 A 
ATOM      4  C   UNL     1       1.850  10.146  18.183  0.00  0.00    +0.000 A 
ATOM      5  O   UNL     1       2.148  10.765  17.162  0.00  0.00    +0.000 OA
ATOM      6  C   UNL     1       2.311   8.757  18.411  0.00  0.00    +0.000 A 
ATOM      7  C   UNL     1       3.156   8.182  17.453  0.00  0.00    +0.000 A 
ATOM      8  C   UNL     1       3.588   6.876  17.622  0.00  0.00    +0.000 A 
ATOM      9  F   UNL     1       4.399   6.354  16.689  0.00  0.00    +0.000 F 
ATOM     10  C   UNL     1       3.168   6.097  18.703  0.00  0.00    +0.000 A 
ATOM     11  C   UNL     1       2.327   6.707  19.658  0.00  0.00    +0.000 A 
ATOM     12  F   UNL     1       1.953   5.970  20.715  0.00  0.00    +0.000 F 
ATOM     13  C   UNL     1       1.903   8.057  19.566  0.00  0.00    +0.000 A 
ENDROOT
BRANCH  10  14
ATOM     14  N   UNL     1       3.575   4.743  18.780  0.00  0.00    +0.000 N 
ATOM     15  C   UNL     1       2.994   3.631  19.479  0.00  0.00    +0.000 C 
ATOM     16  C   UNL     1       4.402   3.242  19.945  0.00  0.00    +0.000 C 
ATOM     17  C   UNL     1       4.923   4.216  18.867  0.00  0.00    +0.000 C 
ATOM     18  C   UNL     1       5.989   5.171  19.371  0.00  0.00    +0.000 C 
BRANCH  16  19
ATOM     19  N   UNL     1       4.725   1.854  19.596  0.00  0.00    +0.000 NA
ATOM     20  H   UNL     1       5.447   1.752  18.883  0.00  0.00    +0.000 HD
ATOM     21  H   UNL     1       3.922   1.318  19.267  0.00  0.00    +0.000 HD
ENDBRANCH  16  19
ENDBRANCH  10  14
BRANCH   1  23
ATOM     22  C   UNL     1       0.044   9.060  22.740  0.00  0.00    +0.000 C 
ATOM     23  C   UNL     1       0.865   8.127  21.856  0.00  0.00    +0.000 C 
ENDBRANCH   1  23
BRANCH   3  24
ATOM     24  C   UNL     1       0.512  12.174  19.115  0.00  0.00    +0.000 C 
ATOM     25  O   UNL     1       0.677  13.010  19.988  0.00  0.00    +0.000 OA
BRANCH  24  26
ATOM     26  O   UNL     1      -0.164  12.445  17.977  0.00  0.00    +0.000 OA
ATOM     27  H   UNL     1       0.377  12.367  17.155  0.00  0.00    +0.000 HD
ENDBRANCH  24  26
ENDBRANCH   3  24
TORSDOF 5
ENDMDL
