MODEL 1
REMARK VINA RESULT:      -8.9      0.000      0.000
REMARK  Name = 
REMARK  5 active torsions:
REMARK  status: ('A' for Active; 'I' for Inactive)
REMARK    1  A    between atoms: C_6  and  C_7
REMARK    2  A    between atoms: C_7  and  N_8
REMARK    3  A    between atoms: C_13  and  C_14
REMARK    4  A    between atoms: C_16  and  N_17
REMARK    5  A    between atoms: N_17  and  C_18
REMARK                            x       y       z     vdW  Elec       q    Type
REMARK                         _______ _______ _______ _____ _____    ______ ____
ROOT
ATOM      1  N   UNL     1       0.729   9.083  21.493  0.00  0.00    +0.000 N 
ATOM      2  C   UNL     1       1.305   8.612  20.313  0.00  0.00    +0.000 A 
ATOM      3  C   UNL     1       1.284   9.334  19.124  0.00  0.00    +0.000 A 
ATOM      4  C   UNL     1       1.855   8.784  17.983  0.00  0.00    +0.000 A 
ATOM      5  C   UNL     1       2.409   7.513  18.047  0.00  0.00    +0.000 A 
ATOM      6  C   UNL     1       2.410   6.834  19.263  0.00  0.00    +0.000 A 
ATOM      7  N   UNL     1       1.827   7.371  20.368  0.00  0.00    +0.000 NA
ATOM      8  H   UNL     1      -0.254   8.815  21.493  0.00  0.00    +0.000 HD
ENDROOT
BRANCH   6   9
ATOM      9  C   UNL     1       3.007   5.494  19.462  0.00  0.00    +0.000 A 
ATOM     10  C   UNL     1       4.356   5.287  19.105  0.00  0.00    +0.000 A 
ATOM     11  C   UNL     1       4.986   4.053  19.290  0.00  0.00    +0.000 A 
ATOM     12  N   UNL     1       4.333   3.008  19.817  0.00  0.00    +0.000 NA
ATOM     13  C   UNL     1       3.027   3.189  20.126  0.00  0.00    +0.000 A 
ATOM     14  C   UNL     1       2.328   4.384  19.973  0.00  0.00    +0.000 A 
ATOM     15 CL   UNL     1       0.647   4.371  20.376  0.00  0.00    +0.000 Cl
BRANCH  11  16
ATOM     16  N   UNL     1       6.333   3.960  18.971  0.00  0.00    +0.000 N 
ATOM     17  H   UNL     1       6.927   4.049  19.791  0.00  0.00    +0.000 HD
BRANCH  16  18
ATOM     18  C   UNL     1       6.867   4.569  17.753  0.00  0.00    +0.000 C 
ATOM     19  C   UNL     1       7.023   6.067  18.063  0.00  0.00    +0.000 C 
ATOM     20  C   UNL     1       7.274   6.889  16.814  0.00  0.00    +0.000 C 
ATOM     21  O   UNL     1       6.264   6.639  15.844  0.00  0.00    +0.000 OA
ATOM     22  C   UNL     1       6.280   5.280  15.408  0.00  0.00    +0.000 C 
ATOM     23  C   UNL     1       5.942   4.338  16.555  0.00  0.00    +0.000 C 
ENDBRANCH  16  18
ENDBRANCH  11  16
ENDBRANCH   6   9
BRANCH   1  24
ATOM     24  C   UNL     1       0.858  10.514  21.742  0.00  0.00    +0.000 C 
BRANCH  24  30
ATOM     25  F   UNL     1      -2.870  13.049  19.846  0.00  0.00    +0.000 F 
ATOM     26  C   UNL     1      -2.321  12.431  20.899  0.00  0.00    +0.000 A 
ATOM     27  C   UNL     1      -2.978  12.457  22.125  0.00  0.00    +0.000 A 
ATOM     28  C   UNL     1      -2.404  11.819  23.223  0.00  0.00    +0.000 A 
ATOM     29  C   UNL     1      -1.177  11.169  23.084  0.00  0.00    +0.000 A 
ATOM     30  C   UNL     1      -0.506  11.149  21.848  0.00  0.00    +0.000 A 
ATOM     31  C   UNL     1      -1.095  11.789  20.750  0.00  0.00    +0.000 A 
ENDBRANCH  24  30
ENDBRANCH   1  24
TORSDOF 5
ENDMDL
MODEL 2
REMARK VINA RESULT:      -8.8      2.727      3.464
REMARK  Name = 
REMARK  5 active torsions:
REMARK  status: ('A' for Active; 'I' for Inactive)
REMARK    1  A    between atoms: C_6  and  C_7
REMARK    2  A    between atoms: C_7  and  N_8
REMARK    3  A    between atoms: C_13  and  C_14
REMARK    4  A    between atoms: C_16  and  N_17
REMARK    5  A    between atoms: N_17  and  C_18
REMARK                            x       y       z     vdW  Elec       q    Type
REMARK                         _______ _______ _______ _____ _____    ______ ____
ROOT
ATOM      1  N   UNL     1       0.263  10.503  18.700  0.00  0.00    +0.000 N 
ATOM      2  C   UNL     1       0.773   9.538  19.567  0.00  0.00    +0.000 A 
ATOM      3  C   UNL     1       0.750   9.681  20.951  0.00  0.00    +0.000 A 
ATOM      4  C   UNL     1       1.305   8.686  21.747  0.00  0.00    +0.000 A 
ATOM      5  C   UNL     1       1.897   7.585  21.143  0.00  0.00    +0.000 A 
ATOM      6  C   UNL     1       1.889   7.487  19.754  0.00  0.00    +0.000 A 
ATOM      7  N   UNL     1       1.365   8.478  18.983  0.00  0.00    +0.000 NA
ATOM      8  H   UNL     1       0.998  11.185  18.517  0.00  0.00    +0.000 HD
ENDROOT
BRANCH   6   9
ATOM      9  C   UNL     1       2.452   6.343  19.002  0.00  0.00    +0.000 A 
ATOM     10  C   UNL     1       3.408   6.591  17.995  0.00  0.00    +0.000 A 
ATOM     11  C   UNL     1       3.995   5.553  17.264  0.00  0.00    +0.000 A 
ATOM     12  N   UNL     1       3.673   4.272  17.491  0.00  0.00    +0.000 NA
ATOM     13  C   UNL     1       2.727   4.030  18.429  0.00  0.00    +0.000 A 
ATOM     14  C   UNL     1       2.096   5.005  19.198  0.00  0.00    +0.000 A 
ATOM     15 CL   UNL     1       0.873   4.474  20.297  0.00  0.00    +0.000 Cl
BRANCH  11  16
ATOM     16  N   UNL     1       4.974   5.886  16.340  0.00  0.00    +0.000 N 
ATOM     17  H   UNL     1       4.815   5.447  15.438  0.00  0.00    +0.000 HD
BRANCH  16  18
ATOM     18  C   UNL     1       6.379   5.999  16.732  0.00  0.00    +0.000 C 
ATOM     19  C   UNL     1       6.630   4.862  17.736  0.00  0.00    +0.000 C 
ATOM     20  C   UNL     1       7.947   5.023  18.469  0.00  0.00    +0.000 C 
ATOM     21  O   UNL     1       8.024   6.308  19.076  0.00  0.00    +0.000 OA
ATOM     22  C   UNL     1       8.008   7.350  18.101  0.00  0.00    +0.000 C 
ATOM     23  C   UNL     1       6.685   7.368  17.347  0.00  0.00    +0.000 C 
ENDBRANCH  16  18
ENDBRANCH  11  16
ENDBRANCH   6   9
BRANCH   1  24
ATOM     24  C   UNL     1      -0.951  11.183  19.140  0.00  0.00    +0.000 C 
BRANCH  24  30
ATOM     25  F   UNL     1      -2.688   9.297  14.974  0.00  0.00    +0.000 F 
ATOM     26  C   UNL     1      -2.882  10.062  16.057  0.00  0.00    +0.000 A 
ATOM     27  C   UNL     1      -4.085  10.743  16.205  0.00  0.00    +0.000 A 
ATOM     28  C   UNL     1      -4.286  11.543  17.327  0.00  0.00    +0.000 A 
ATOM     29  C   UNL     1      -3.278  11.657  18.286  0.00  0.00    +0.000 A 
ATOM     30  C   UNL     1      -2.057  10.977  18.135  0.00  0.00    +0.000 A 
ATOM     31  C   UNL     1      -1.869  10.171  17.005  0.00  0.00    +0.000 A 
ENDBRANCH  24  30
ENDBRANCH   1  24
TORSDOF 5
ENDMDL
MODEL 3
REMARK VINA RESULT:      -8.8      2.460      3.303
REMARK  Name = 
REMARK  5 active torsions:
REMARK  status: ('A' for Active; 'I' for Inactive)
REMARK    1  A    between atoms: C_6  and  C_7
REMARK    2  A    between atoms: C_7  and  N_8
REMARK    3  A    between atoms: C_13  and  C_14
REMARK    4  A    between atoms: C_16  and  N_17
REMARK    5  A    between atoms: N_17  and  C_18
REMARK                            x       y       z     vdW  Elec       q    Type
REMARK                         _______ _______ _______ _____ _____    ______ ____
ROOT
ATOM      1  N   UNL     1       0.691  10.689  18.758  0.00  0.00    +0.000 N 
ATOM      2  C   UNL     1       1.009   9.640  19.619  0.00  0.00    +0.000 A 
ATOM      3  C   UNL     1       0.832   9.717  20.997  0.00  0.00    +0.000 A 
ATOM      4  C   UNL     1       1.200   8.637  21.791  0.00  0.00    +0.000 A 
ATOM      5  C   UNL     1       1.762   7.517  21.196  0.00  0.00    +0.000 A 
ATOM      6  C   UNL     1       1.913   7.488  19.812  0.00  0.00    +0.000 A 
ATOM      7  N   UNL     1       1.572   8.559  19.046  0.00  0.00    +0.000 NA
ATOM      8  H   UNL     1       1.500  11.308  18.701  0.00  0.00    +0.000 HD
ENDROOT
BRANCH   6   9
ATOM      9  C   UNL     1       2.460   6.334  19.063  0.00  0.00    +0.000 A 
ATOM     10  C   UNL     1       3.394   6.569  18.032  0.00  0.00    +0.000 A 
ATOM     11  C   UNL     1       3.966   5.523  17.303  0.00  0.00    +0.000 A 
ATOM     12  N   UNL     1       3.651   4.244  17.554  0.00  0.00    +0.000 NA
ATOM     13  C   UNL     1       2.726   4.014  18.515  0.00  0.00    +0.000 A 
ATOM     14  C   UNL     1       2.111   4.998  19.284  0.00  0.00    +0.000 A 
ATOM     15 CL   UNL     1       0.912   4.481  20.417  0.00  0.00    +0.000 Cl
BRANCH  11  16
ATOM     16  N   UNL     1       4.924   5.844  16.353  0.00  0.00    +0.000 N 
ATOM     17  H   UNL     1       4.750   5.386  15.463  0.00  0.00    +0.000 HD
BRANCH  16  18
ATOM     18  C   UNL     1       6.336   5.974  16.715  0.00  0.00    +0.000 C 
ATOM     19  C   UNL     1       6.620   4.844  17.719  0.00  0.00    +0.000 C 
ATOM     20  C   UNL     1       7.951   5.023  18.423  0.00  0.00    +0.000 C 
ATOM     21  O   UNL     1       8.026   6.312  19.022  0.00  0.00    +0.000 OA
ATOM     22  C   UNL     1       7.978   7.349  18.043  0.00  0.00    +0.000 C 
ATOM     23  C   UNL     1       6.640   7.349  17.318  0.00  0.00    +0.000 C 
ENDBRANCH  16  18
ENDBRANCH  11  16
ENDBRANCH   6   9
BRANCH   1  24
ATOM     24  C   UNL     1      -0.503  11.456  19.095  0.00  0.00    +0.000 C 
BRANCH  24  30
ATOM     25  F   UNL     1      -5.027  12.134  17.362  0.00  0.00    +0.000 F 
ATOM     26  C   UNL     1      -3.869  11.461  17.317  0.00  0.00    +0.000 A 
ATOM     27  C   UNL     1      -3.733  10.395  16.436  0.00  0.00    +0.000 A 
ATOM     28  C   UNL     1      -2.531   9.691  16.392  0.00  0.00    +0.000 A 
ATOM     29  C   UNL     1      -1.482  10.059  17.235  0.00  0.00    +0.000 A 
ATOM     30  C   UNL     1      -1.620  11.131  18.134  0.00  0.00    +0.000 A 
ATOM     31  C   UNL     1      -2.830  11.835  18.165  0.00  0.00    +0.000 A 
ENDBRANCH  24  30
ENDBRANCH   1  24
TORSDOF 5
ENDMDL
MODEL 4
REMARK VINA RESULT:      -8.7      4.222      9.783
REMARK  Name = 
REMARK  5 active torsions:
REMARK  status: ('A' for Active; 'I' for Inactive)
REMARK    1  A    between atoms: C_6  and  C_7
REMARK    2  A    between atoms: C_7  and  N_8
REMARK    3  A    between atoms: C_13  and  C_14
REMARK    4  A    between atoms: C_16  and  N_17
REMARK    5  A    between atoms: N_17  and  C_18
REMARK                            x       y       z     vdW  Elec       q    Type
REMARK                         _______ _______ _______ _____ _____    ______ ____
ROOT
ATOM      1  N   UNL     1       5.543   3.908  15.212  0.00  0.00    +0.000 N 
ATOM      2  C   UNL     1       5.860   4.430  16.466  0.00  0.00    +0.000 A 
ATOM      3  C   UNL     1       7.170   4.639  16.886  0.00  0.00    +0.000 A 
ATOM      4  C   UNL     1       7.404   5.137  18.162  0.00  0.00    +0.000 A 
ATOM      5  C   UNL     1       6.328   5.390  19.000  0.00  0.00    +0.000 A 
ATOM      6  C   UNL     1       5.035   5.169  18.530  0.00  0.00    +0.000 A 
ATOM      7  N   UNL     1       4.818   4.658  17.288  0.00  0.00    +0.000 NA
ATOM      8  H   UNL     1       5.549   2.891  15.283  0.00  0.00    +0.000 HD
ENDROOT
BRANCH   6   9
ATOM      9  C   UNL     1       3.811   5.441  19.316  0.00  0.00    +0.000 A 
ATOM     10  C   UNL     1       3.297   6.754  19.350  0.00  0.00    +0.000 A 
ATOM     11  C   UNL     1       2.131   7.071  20.054  0.00  0.00    +0.000 A 
ATOM     12  N   UNL     1       1.449   6.137  20.731  0.00  0.00    +0.000 NA
ATOM     13  C   UNL     1       1.959   4.882  20.735  0.00  0.00    +0.000 A 
ATOM     14  C   UNL     1       3.111   4.486  20.061  0.00  0.00    +0.000 A 
ATOM     15 CL   UNL     1       3.613   2.844  20.255  0.00  0.00    +0.000 Cl
BRANCH  11  16
ATOM     16  N   UNL     1       1.663   8.375  19.975  0.00  0.00    +0.000 N 
ATOM     17  H   UNL     1       2.415   9.043  19.835  0.00  0.00    +0.000 HD
BRANCH  16  18
ATOM     18  C   UNL     1       0.575   8.842  20.834  0.00  0.00    +0.000 C 
ATOM     19  C   UNL     1       0.162  10.216  20.282  0.00  0.00    +0.000 C 
ATOM     20  C   UNL     1      -0.742  10.970  21.238  0.00  0.00    +0.000 C 
ATOM     21  O   UNL     1      -0.139  11.062  22.523  0.00  0.00    +0.000 OA
ATOM     22  C   UNL     1       0.037   9.774  23.113  0.00  0.00    +0.000 C 
ATOM     23  C   UNL     1       1.012   8.934  22.299  0.00  0.00    +0.000 C 
ENDBRANCH  16  18
ENDBRANCH  11  16
ENDBRANCH   6   9
BRANCH   1  24
ATOM     24  C   UNL     1       6.391   4.338  14.106  0.00  0.00    +0.000 C 
BRANCH  24  30
ATOM     25  F   UNL     1       3.195   2.794  10.739  0.00  0.00    +0.000 F 
ATOM     26  C   UNL     1       4.444   2.789  11.224  0.00  0.00    +0.000 A 
ATOM     27  C   UNL     1       5.409   1.992  10.618  0.00  0.00    +0.000 A 
ATOM     28  C   UNL     1       6.706   1.982  11.124  0.00  0.00    +0.000 A 
ATOM     29  C   UNL     1       7.023   2.766  12.236  0.00  0.00    +0.000 A 
ATOM     30  C   UNL     1       6.047   3.566  12.856  0.00  0.00    +0.000 A 
ATOM     31  C   UNL     1       4.747   3.572  12.334  0.00  0.00    +0.000 A 
ENDBRANCH  24  30
ENDBRANCH   1  24
TORSDOF 5
ENDMDL
MODEL 5
REMARK VINA RESULT:      -8.5      1.215      1.608
REMARK  Name = 
REMARK  5 active torsions:
REMARK  status: ('A' for Active; 'I' for Inactive)
REMARK    1  A    between atoms: C_6  and  C_7
REMARK    2  A    between atoms: C_7  and  N_8
REMARK    3  A    between atoms: C_13  and  C_14
REMARK    4  A    between atoms: C_16  and  N_17
REMARK    5  A    between atoms: N_17  and  C_18
REMARK                            x       y       z     vdW  Elec       q    Type
REMARK                         _______ _______ _______ _____ _____    ______ ____
ROOT
ATOM      1  N   UNL     1       0.626   9.297  21.302  0.00  0.00    +0.000 N 
ATOM      2  C   UNL     1       1.260   8.981  20.101  0.00  0.00    +0.000 A 
ATOM      3  C   UNL     1       1.265   9.835  19.003  0.00  0.00    +0.000 A 
ATOM      4  C   UNL     1       1.896   9.434  17.832  0.00  0.00    +0.000 A 
ATOM      5  C   UNL     1       2.482   8.179  17.773  0.00  0.00    +0.000 A 
ATOM      6  C   UNL     1       2.455   7.363  18.901  0.00  0.00    +0.000 A 
ATOM      7  N   UNL     1       1.814   7.754  20.035  0.00  0.00    +0.000 NA
ATOM      8  H   UNL     1      -0.349   9.008  21.231  0.00  0.00    +0.000 HD
ENDROOT
BRANCH   6   9
ATOM      9  C   UNL     1       3.082   6.024  18.970  0.00  0.00    +0.000 A 
ATOM     10  C   UNL     1       4.193   5.746  18.148  0.00  0.00    +0.000 A 
ATOM     11  C   UNL     1       4.845   4.509  18.182  0.00  0.00    +0.000 A 
ATOM     12  N   UNL     1       4.440   3.529  19.002  0.00  0.00    +0.000 NA
ATOM     13  C   UNL     1       3.348   3.776  19.765  0.00  0.00    +0.000 A 
ATOM     14  C   UNL     1       2.645   4.977  19.789  0.00  0.00    +0.000 A 
ATOM     15 CL   UNL     1       1.243   5.050  20.797  0.00  0.00    +0.000 Cl
BRANCH  11  16
ATOM     16  N   UNL     1       5.970   4.349  17.387  0.00  0.00    +0.000 N 
ATOM     17  H   UNL     1       6.830   4.498  17.906  0.00  0.00    +0.000 HD
BRANCH  16  18
ATOM     18  C   UNL     1       5.995   4.825  16.003  0.00  0.00    +0.000 C 
ATOM     19  C   UNL     1       5.166   3.814  15.194  0.00  0.00    +0.000 C 
ATOM     20  C   UNL     1       5.345   3.991  13.699  0.00  0.00    +0.000 C 
ATOM     21  O   UNL     1       6.726   3.956  13.357  0.00  0.00    +0.000 OA
ATOM     22  C   UNL     1       7.441   5.039  13.950  0.00  0.00    +0.000 C 
ATOM     23  C   UNL     1       7.426   4.932  15.469  0.00  0.00    +0.000 C 
ENDBRANCH  16  18
ENDBRANCH  11  16
ENDBRANCH   6   9
BRANCH   1  24
ATOM     24  C   UNL     1       0.704  10.693  21.720  0.00  0.00    +0.000 C 
BRANCH  24  30
ATOM     25  F   UNL     1      -3.186  12.922  19.765  0.00  0.00    +0.000 F 
ATOM     26  C   UNL     1      -2.576  12.415  20.844  0.00  0.00    +0.000 A 
ATOM     27  C   UNL     1      -3.190  12.517  22.087  0.00  0.00    +0.000 A 
ATOM     28  C   UNL     1      -2.555  11.995  23.211  0.00  0.00    +0.000 A 
ATOM     29  C   UNL     1      -1.307  11.381  23.079  0.00  0.00    +0.000 A 
ATOM     30  C   UNL     1      -0.679  11.284  21.825  0.00  0.00    +0.000 A 
ATOM     31  C   UNL     1      -1.331  11.808  20.701  0.00  0.00    +0.000 A 
ENDBRANCH  24  30
ENDBRANCH   1  24
TORSDOF 5
ENDMDL
MODEL 6
REMARK VINA RESULT:      -8.5      3.388      5.214
REMARK  Name = 
REMARK  5 active torsions:
REMARK  status: ('A' for Active; 'I' for Inactive)
REMARK    1  A    between atoms: C_6  and  C_7
REMARK    2  A    between atoms: C_7  and  N_8
REMARK    3  A    between atoms: C_13  and  C_14
REMARK    4  A    between atoms: C_16  and  N_17
REMARK    5  A    between atoms: N_17  and  C_18
REMARK                            x       y       z     vdW  Elec       q    Type
REMARK                         _______ _______ _______ _____ _____    ______ ____
ROOT
ATOM      1  N   UNL     1      -1.817  12.683  21.374  0.00  0.00    +0.000 N 
ATOM      2  C   UNL     1      -1.146  11.530  21.778  0.00  0.00    +0.000 A 
ATOM      3  C   UNL     1      -1.205  11.040  23.079  0.00  0.00    +0.000 A 
ATOM      4  C   UNL     1      -0.484   9.899  23.409  0.00  0.00    +0.000 A 
ATOM      5  C   UNL     1       0.303   9.289  22.443  0.00  0.00    +0.000 A 
ATOM      6  C   UNL     1       0.324   9.816  21.153  0.00  0.00    +0.000 A 
ATOM      7  N   UNL     1      -0.366  10.947  20.846  0.00  0.00    +0.000 NA
ATOM      8  H   UNL     1      -1.217  13.483  21.570  0.00  0.00    +0.000 HD
ENDROOT
BRANCH   6   9
ATOM      9  C   UNL     1       1.091   9.230  20.032  0.00  0.00    +0.000 A 
ATOM     10  C   UNL     1       1.612   7.926  20.168  0.00  0.00    +0.000 A 
ATOM     11  C   UNL     1       2.325   7.305  19.137  0.00  0.00    +0.000 A 
ATOM     12  N   UNL     1       2.546   7.926  17.970  0.00  0.00    +0.000 NA
ATOM     13  C   UNL     1       2.082   9.193  17.847  0.00  0.00    +0.000 A 
ATOM     14  C   UNL     1       1.365   9.879  18.824  0.00  0.00    +0.000 A 
ATOM     15 CL   UNL     1       0.923  11.513  18.476  0.00  0.00    +0.000 Cl
BRANCH  11  16
ATOM     16  N   UNL     1       2.742   5.998  19.335  0.00  0.00    +0.000 N 
ATOM     17  H   UNL     1       3.475   5.727  18.687  0.00  0.00    +0.000 HD
BRANCH  16  18
ATOM     18  C   UNL     1       1.786   4.939  19.663  0.00  0.00    +0.000 C 
ATOM     19  C   UNL     1       2.283   4.313  20.977  0.00  0.00    +0.000 C 
ATOM     20  C   UNL     1       1.581   3.007  21.291  0.00  0.00    +0.000 C 
ATOM     21  O   UNL     1       1.684   2.110  20.192  0.00  0.00    +0.000 OA
ATOM     22  C   UNL     1       1.022   2.621  19.035  0.00  0.00    +0.000 C 
ATOM     23  C   UNL     1       1.694   3.897  18.545  0.00  0.00    +0.000 C 
ENDBRANCH  16  18
ENDBRANCH  11  16
ENDBRANCH   6   9
BRANCH   1  24
ATOM     24  C   UNL     1      -3.138  12.894  21.958  0.00  0.00    +0.000 C 
BRANCH  24  30
ATOM     25  F   UNL     1      -4.611  11.954  17.389  0.00  0.00    +0.000 F 
ATOM     26  C   UNL     1      -4.919  12.139  18.679  0.00  0.00    +0.000 A 
ATOM     27  C   UNL     1      -6.253  12.118  19.072  0.00  0.00    +0.000 A 
ATOM     28  C   UNL     1      -6.575  12.314  20.414  0.00  0.00    +0.000 A 
ATOM     29  C   UNL     1      -5.559  12.537  21.345  0.00  0.00    +0.000 A 
ATOM     30  C   UNL     1      -4.211  12.568  20.949  0.00  0.00    +0.000 A 
ATOM     31  C   UNL     1      -3.899  12.362  19.599  0.00  0.00    +0.000 A 
ENDBRANCH  24  30
ENDBRANCH   1  24
TORSDOF 5
ENDMDL
MODEL 7
REMARK VINA RESULT:      -8.4      1.491      2.019
REMARK  Name = 
REMARK  5 active torsions:
REMARK  status: ('A' for Active; 'I' for Inactive)
REMARK    1  A    between atoms: C_6  and  C_7
REMARK    2  A    between atoms: C_7  and  N_8
REMARK    3  A    between atoms: C_13  and  C_14
REMARK    4  A    between atoms: C_16  and  N_17
REMARK    5  A    between atoms: N_17  and  C_18
REMARK                            x       y       z     vdW  Elec       q    Type
REMARK                         _______ _______ _______ _____ _____    ______ ____
ROOT
ATOM      1  N   UNL     1       0.738   9.698  21.418  0.00  0.00    +0.000 N 
ATOM      2  C   UNL     1       1.176   9.276  20.163  0.00  0.00    +0.000 A 
ATOM      3  C   UNL     1       0.924   9.992  18.997  0.00  0.00    +0.000 A 
ATOM      4  C   UNL     1       1.370   9.490  17.780  0.00  0.00    +0.000 A 
ATOM      5  C   UNL     1       2.032   8.271  17.751  0.00  0.00    +0.000 A 
ATOM      6  C   UNL     1       2.263   7.595  18.947  0.00  0.00    +0.000 A 
ATOM      7  N   UNL     1       1.801   8.083  20.129  0.00  0.00    +0.000 NA
ATOM      8  H   UNL     1      -0.210   9.348  21.556  0.00  0.00    +0.000 HD
ENDROOT
BRANCH   6   9
ATOM      9  C   UNL     1       2.992   6.311  19.044  0.00  0.00    +0.000 A 
ATOM     10  C   UNL     1       4.158   6.126  18.273  0.00  0.00    +0.000 A 
ATOM     11  C   UNL     1       4.906   4.946  18.336  0.00  0.00    +0.000 A 
ATOM     12  N   UNL     1       4.545   3.934  19.138  0.00  0.00    +0.000 NA
ATOM     13  C   UNL     1       3.404   4.089  19.852  0.00  0.00    +0.000 A 
ATOM     14  C   UNL     1       2.606   5.230  19.844  0.00  0.00    +0.000 A 
ATOM     15 CL   UNL     1       1.159   5.187  20.789  0.00  0.00    +0.000 Cl
BRANCH  11  16
ATOM     16  N   UNL     1       6.074   4.880  17.592  0.00  0.00    +0.000 N 
ATOM     17  H   UNL     1       6.871   5.260  18.095  0.00  0.00    +0.000 HD
BRANCH  16  18
ATOM     18  C   UNL     1       6.072   5.141  16.153  0.00  0.00    +0.000 C 
ATOM     19  C   UNL     1       5.095   4.124  15.540  0.00  0.00    +0.000 C 
ATOM     20  C   UNL     1       5.209   4.057  14.030  0.00  0.00    +0.000 C 
ATOM     21  O   UNL     1       6.556   3.814  13.644  0.00  0.00    +0.000 OA
ATOM     22  C   UNL     1       7.415   4.884  14.036  0.00  0.00    +0.000 C 
ATOM     23  C   UNL     1       7.475   5.003  15.552  0.00  0.00    +0.000 C 
ENDBRANCH  16  18
ENDBRANCH  11  16
ENDBRANCH   6   9
BRANCH   1  24
ATOM     24  C   UNL     1       0.781  11.135  21.662  0.00  0.00    +0.000 C 
BRANCH  24  30
ATOM     25  F   UNL     1      -3.355  11.800  24.187  0.00  0.00    +0.000 F 
ATOM     26  C   UNL     1      -2.663  11.970  23.053  0.00  0.00    +0.000 A 
ATOM     27  C   UNL     1      -3.276  12.578  21.964  0.00  0.00    +0.000 A 
ATOM     28  C   UNL     1      -2.559  12.751  20.782  0.00  0.00    +0.000 A 
ATOM     29  C   UNL     1      -1.237  12.307  20.702  0.00  0.00    +0.000 A 
ATOM     30  C   UNL     1      -0.618  11.683  21.799  0.00  0.00    +0.000 A 
ATOM     31  C   UNL     1      -1.347  11.520  22.983  0.00  0.00    +0.000 A 
ENDBRANCH  24  30
ENDBRANCH   1  24
TORSDOF 5
ENDMDL
MODEL 8
REMARK VINA RESULT:      -8.4      4.571      8.747
REMARK  Name = 
REMARK  5 active torsions:
REMARK  status: ('A' for Active; 'I' for Inactive)
REMARK    1  A    between atoms: C_6  and  C_7
REMARK    2  A    between atoms: C_7  and  N_8
REMARK    3  A    between atoms: C_13  and  C_14
REMARK    4  A    between atoms: C_16  and  N_17
REMARK    5  A    between atoms: N_17  and  C_18
REMARK                            x       y       z     vdW  Elec       q    Type
REMARK                         _______ _______ _______ _____ _____    ______ ____
ROOT
ATOM      1  N   UNL     1       2.364   7.089  18.172  0.00  0.00    +0.000 N 
ATOM      2  C   UNL     1       1.874   7.869  19.219  0.00  0.00    +0.000 A 
ATOM      3  C   UNL     1       1.790   7.406  20.528  0.00  0.00    +0.000 A 
ATOM      4  C   UNL     1       1.263   8.235  21.511  0.00  0.00    +0.000 A 
ATOM      5  C   UNL     1       0.804   9.497  21.160  0.00  0.00    +0.000 A 
ATOM      6  C   UNL     1       0.915   9.915  19.836  0.00  0.00    +0.000 A 
ATOM      7  N   UNL     1       1.410   9.087  18.877  0.00  0.00    +0.000 NA
ATOM      8  H   UNL     1       1.590   6.542  17.796  0.00  0.00    +0.000 HD
ENDROOT
BRANCH   6   9
ATOM      9  C   UNL     1       0.499  11.251  19.352  0.00  0.00    +0.000 A 
ATOM     10  C   UNL     1       1.268  12.377  19.710  0.00  0.00    +0.000 A 
ATOM     11  C   UNL     1       0.943  13.663  19.268  0.00  0.00    +0.000 A 
ATOM     12  N   UNL     1      -0.119  13.881  18.479  0.00  0.00    +0.000 NA
ATOM     13  C   UNL     1      -0.884  12.810  18.164  0.00  0.00    +0.000 A 
ATOM     14  C   UNL     1      -0.629  11.500  18.564  0.00  0.00    +0.000 A 
ATOM     15 CL   UNL     1      -1.775  10.294  18.095  0.00  0.00    +0.000 Cl
BRANCH  11  16
ATOM     16  N   UNL     1       1.794  14.701  19.615  0.00  0.00    +0.000 N 
ATOM     17  H   UNL     1       1.441  15.604  19.311  0.00  0.00    +0.000 HD
BRANCH  16  18
ATOM     18  C   UNL     1       3.247  14.549  19.535  0.00  0.00    +0.000 C 
ATOM     19  C   UNL     1       3.841  15.810  20.183  0.00  0.00    +0.000 C 
ATOM     20  C   UNL     1       5.325  15.953  19.908  0.00  0.00    +0.000 C 
ATOM     21  O   UNL     1       5.579  15.893  18.509  0.00  0.00    +0.000 OA
ATOM     22  C   UNL     1       5.218  14.624  17.965  0.00  0.00    +0.000 C 
ATOM     23  C   UNL     1       3.719  14.389  18.086  0.00  0.00    +0.000 C 
ENDBRANCH  16  18
ENDBRANCH  11  16
ENDBRANCH   6   9
BRANCH   1  24
ATOM     24  C   UNL     1       3.486   6.215  18.495  0.00  0.00    +0.000 C 
BRANCH  24  30
ATOM     25  F   UNL     1       0.284   2.520  18.652  0.00  0.00    +0.000 F 
ATOM     26  C   UNL     1       1.520   2.957  18.376  0.00  0.00    +0.000 A 
ATOM     27  C   UNL     1       2.485   2.051  17.951  0.00  0.00    +0.000 A 
ATOM     28  C   UNL     1       3.772   2.504  17.669  0.00  0.00    +0.000 A 
ATOM     29  C   UNL     1       4.080   3.857  17.820  0.00  0.00    +0.000 A 
ATOM     30  C   UNL     1       3.108   4.774  18.257  0.00  0.00    +0.000 A 
ATOM     31  C   UNL     1       1.816   4.308  18.533  0.00  0.00    +0.000 A 
ENDBRANCH  24  30
ENDBRANCH   1  24
TORSDOF 5
ENDMDL
MODEL 9
REMARK VINA RESULT:      -8.4      3.973      9.326
REMARK  Name = 
REMARK  5 active torsions:
REMARK  status: ('A' for Active; 'I' for Inactive)
REMARK    1  A    between atoms: C_6  and  C_7
REMARK    2  A    between atoms: C_7  and  N_8
REMARK    3  A    between atoms: C_13  and  C_14
REMARK    4  A    between atoms: C_16  and  N_17
REMARK    5  A    between atoms: N_17  and  C_18
REMARK                            x       y       z     vdW  Elec       q    Type
REMARK                         _______ _______ _______ _____ _____    ______ ____
ROOT
ATOM      1  N   UNL     1       5.945   3.463  15.296  0.00  0.00    +0.000 N 
ATOM      2  C   UNL     1       6.095   4.137  16.507  0.00  0.00    +0.000 A 
ATOM      3  C   UNL     1       7.280   4.766  16.878  0.00  0.00    +0.000 A 
ATOM      4  C   UNL     1       7.359   5.393  18.115  0.00  0.00    +0.000 A 
ATOM      5  C   UNL     1       6.265   5.353  18.967  0.00  0.00    +0.000 A 
ATOM      6  C   UNL     1       5.100   4.715  18.547  0.00  0.00    +0.000 A 
ATOM      7  N   UNL     1       5.041   4.083  17.344  0.00  0.00    +0.000 NA
ATOM      8  H   UNL     1       6.267   2.505  15.425  0.00  0.00    +0.000 HD
ENDROOT
BRANCH   6   9
ATOM      9  C   UNL     1       3.859   4.644  19.351  0.00  0.00    +0.000 A 
ATOM     10  C   UNL     1       3.291   5.839  19.839  0.00  0.00    +0.000 A 
ATOM     11  C   UNL     1       2.108   5.843  20.583  0.00  0.00    +0.000 A 
ATOM     12  N   UNL     1       1.458   4.705  20.867  0.00  0.00    +0.000 NA
ATOM     13  C   UNL     1       2.019   3.551  20.435  0.00  0.00    +0.000 A 
ATOM     14  C   UNL     1       3.192   3.462  19.690  0.00  0.00    +0.000 A 
ATOM     15 CL   UNL     1       3.759   1.878  19.297  0.00  0.00    +0.000 Cl
BRANCH  11  16
ATOM     16  N   UNL     1       1.588   7.071  20.964  0.00  0.00    +0.000 N 
ATOM     17  H   UNL     1       0.654   6.987  21.356  0.00  0.00    +0.000 HD
BRANCH  16  18
ATOM     18  C   UNL     1       1.813   8.272  20.160  0.00  0.00    +0.000 C 
ATOM     19  C   UNL     1       0.659   9.230  20.499  0.00  0.00    +0.000 C 
ATOM     20  C   UNL     1       0.573  10.391  19.528  0.00  0.00    +0.000 C 
ATOM     21  O   UNL     1       0.504   9.914  18.189  0.00  0.00    +0.000 OA
ATOM     22  C   UNL     1       1.689   9.208  17.823  0.00  0.00    +0.000 C 
ATOM     23  C   UNL     1       1.851   7.949  18.663  0.00  0.00    +0.000 C 
ENDBRANCH  16  18
ENDBRANCH  11  16
ENDBRANCH   6   9
BRANCH   1  24
ATOM     24  C   UNL     1       6.607   4.062  14.142  0.00  0.00    +0.000 C 
BRANCH  24  30
ATOM     25  F   UNL     1       3.111   3.163  10.842  0.00  0.00    +0.000 F 
ATOM     26  C   UNL     1       4.365   2.964  11.269  0.00  0.00    +0.000 A 
ATOM     27  C   UNL     1       5.190   2.084  10.577  0.00  0.00    +0.000 A 
ATOM     28  C   UNL     1       6.493   1.872  11.023  0.00  0.00    +0.000 A 
ATOM     29  C   UNL     1       6.953   2.538  12.161  0.00  0.00    +0.000 A 
ATOM     30  C   UNL     1       6.117   3.420  12.868  0.00  0.00    +0.000 A 
ATOM     31  C   UNL     1       4.812   3.630  12.407  0.00  0.00    +0.000 A 
ENDBRANCH  24  30
ENDBRANCH   1  24
TORSDOF 5
ENDMDL
