MODEL 1
REMARK VINA RESULT:      -7.9      0.000      0.000
REMARK  Name = 
REMARK  14 active torsions:
REMARK  status: ('A' for Active; 'I' for Inactive)
REMARK    1  A    between atoms: C_1  and  C_2
REMARK    2  A    between atoms: C_2  and  O_3
REMARK    3  A    between atoms: O_3  and  C_4
REMARK    4  A    between atoms: C_4  and  C_6
REMARK    5  A    between atoms: C_7  and  C_8
REMARK    6  A    between atoms: C_10  and  C_11
REMARK    7  A    between atoms: C_11  and  C_13
REMARK    8  A    between atoms: C_13  and  O_14
REMARK    9  A    between atoms: O_14  and  C_15
REMARK   10  A    between atoms: C_15  and  C_17
REMARK   11  A    between atoms: C_17  and  C_18
REMARK   12  A    between atoms: C_18  and  C_19
REMARK   13  A    between atoms: C_19  and  C_21
REMARK   14  A    between atoms: C_31  and  C_32
REMARK                            x       y       z     vdW  Elec       q    Type
REMARK                         _______ _______ _______ _____ _____    ______ ____
ROOT
ATOM      1  O   UNL     1       3.388   3.122  21.396  0.00  0.00    +0.000 OA
ENDROOT
BRANCH   1   2
ATOM      2  C   UNL     1       2.024   3.164  21.426  0.00  0.00    +0.000 C 
ATOM      3  O   UNL     1       1.318   2.518  22.191  0.00  0.00    +0.000 OA
BRANCH   2   4
ATOM      4  C   UNL     1       1.501   3.944  20.246  0.00  0.00    +0.000 C 
BRANCH   4   5
ATOM      5  C   UNL     1       1.273   5.402  20.650  0.00  0.00    +0.000 C 
BRANCH   5   6
ATOM      6  C   UNL     1       2.289   6.350  20.029  0.00  0.00    +0.000 C 
ATOM      7  O   UNL     1       3.437   5.994  19.777  0.00  0.00    +0.000 OA
BRANCH   6   8
ATOM      8  C   UNL     1       1.860   7.752  19.705  0.00  0.00    +0.000 A 
ATOM      9  C   UNL     1       2.038   8.231  18.397  0.00  0.00    +0.000 A 
ATOM     10  C   UNL     1       1.639   9.527  18.052  0.00  0.00    +0.000 A 
ATOM     11  C   UNL     1       1.072  10.358  19.014  0.00  0.00    +0.000 A 
ATOM     12  C   UNL     1       0.885   9.886  20.315  0.00  0.00    +0.000 A 
ATOM     13  C   UNL     1       1.285   8.594  20.664  0.00  0.00    +0.000 A 
ATOM     14  O   UNL     1       0.324  10.643  21.314  0.00  0.00    +0.000 OA
ATOM     15  C   UNL     1      -0.341  11.800  20.792  0.00  0.00    +0.000 C 
ATOM     16  C   UNL     1       0.501  12.486  19.729  0.00  0.00    +0.000 C 
ATOM     17  O   UNL     1       0.719  11.619  18.610  0.00  0.00    +0.000 OA
ENDBRANCH   6   8
ENDBRANCH   5   6
ENDBRANCH   4   5
ENDBRANCH   2   4
ENDBRANCH   1   2
BRANCH   1  18
ATOM     18  C   UNL     1       3.946   1.995  20.714  0.00  0.00    +0.000 C 
BRANCH  18  19
ATOM     19  C   UNL     1       4.083   2.104  19.191  0.00  0.00    +0.000 C 
ATOM     20  O   UNL     1       3.631   1.196  18.482  0.00  0.00    +0.000 OA
BRANCH  19  25
ATOM     21  C   UNL     1       5.463   5.008  17.274  0.00  0.00    +0.000 A 
ATOM     22  C   UNL     1       6.315   4.936  18.367  0.00  0.00    +0.000 A 
ATOM     23  C   UNL     1       7.476   5.789  18.774  0.00  0.00    +0.000 C 
ATOM     24  N   UNL     1       5.913   3.877  19.152  0.00  0.00    +0.000 N 
ATOM     25  C   UNL     1       4.792   3.258  18.621  0.00  0.00    +0.000 A 
ATOM     26  C   UNL     1       4.492   3.955  17.450  0.00  0.00    +0.000 A 
ATOM     27  C   UNL     1       3.348   3.707  16.515  0.00  0.00    +0.000 C 
ATOM     28  H   UNL     1       6.383   3.610  20.007  0.00  0.00    +0.000 HD
BRANCH  21  29
ATOM     29  C   UNL     1       5.510   6.023  16.205  0.00  0.00    +0.000 C 
ATOM     30  O   UNL     1       4.678   6.903  16.058  0.00  0.00    +0.000 OA
BRANCH  29  31
ATOM     31  O   UNL     1       6.542   5.813  15.334  0.00  0.00    +0.000 OA
BRANCH  31  33
ATOM     32  C   UNL     1       5.986   4.057  13.815  0.00  0.00    +0.000 C 
ATOM     33  C   UNL     1       6.818   4.445  15.026  0.00  0.00    +0.000 C 
ENDBRANCH  31  33
ENDBRANCH  29  31
ENDBRANCH  21  29
ENDBRANCH  19  25
ENDBRANCH  18  19
ENDBRANCH   1  18
TORSDOF 11
ENDMDL
MODEL 2
REMARK VINA RESULT:      -7.9      1.052      1.772
REMARK  Name = 
REMARK  14 active torsions:
REMARK  status: ('A' for Active; 'I' for Inactive)
REMARK    1  A    between atoms: C_1  and  C_2
REMARK    2  A    between atoms: C_2  and  O_3
REMARK    3  A    between atoms: O_3  and  C_4
REMARK    4  A    between atoms: C_4  and  C_6
REMARK    5  A    between atoms: C_7  and  C_8
REMARK    6  A    between atoms: C_10  and  C_11
REMARK    7  A    between atoms: C_11  and  C_13
REMARK    8  A    between atoms: C_13  and  O_14
REMARK    9  A    between atoms: O_14  and  C_15
REMARK   10  A    between atoms: C_15  and  C_17
REMARK   11  A    between atoms: C_17  and  C_18
REMARK   12  A    between atoms: C_18  and  C_19
REMARK   13  A    between atoms: C_19  and  C_21
REMARK   14  A    between atoms: C_31  and  C_32
REMARK                            x       y       z     vdW  Elec       q    Type
REMARK                         _______ _______ _______ _____ _____    ______ ____
ROOT
ATOM      1  O   UNL     1       2.592   3.699  21.177  0.00  0.00    +0.000 OA
ENDROOT
BRANCH   1   2
ATOM      2  C   UNL     1       1.408   3.843  20.512  0.00  0.00    +0.000 C 
ATOM      3  O   UNL     1       0.785   2.932  19.980  0.00  0.00    +0.000 OA
BRANCH   2   4
ATOM      4  C   UNL     1       1.086   5.306  20.332  0.00  0.00    +0.000 C 
BRANCH   4   5
ATOM      5  C   UNL     1       2.374   6.091  20.074  0.00  0.00    +0.000 C 
BRANCH   5   6
ATOM      6  C   UNL     1       2.114   7.465  19.474  0.00  0.00    +0.000 C 
ATOM      7  O   UNL     1       2.429   7.738  18.319  0.00  0.00    +0.000 OA
BRANCH   6   8
ATOM      8  C   UNL     1       1.441   8.504  20.323  0.00  0.00    +0.000 A 
ATOM      9  C   UNL     1       1.408   8.325  21.716  0.00  0.00    +0.000 A 
ATOM     10  C   UNL     1       0.802   9.277  22.544  0.00  0.00    +0.000 A 
ATOM     11  C   UNL     1       0.213  10.408  21.985  0.00  0.00    +0.000 A 
ATOM     12  C   UNL     1       0.249  10.598  20.602  0.00  0.00    +0.000 A 
ATOM     13  C   UNL     1       0.850   9.647  19.772  0.00  0.00    +0.000 A 
ATOM     14  O   UNL     1      -0.300  11.691  19.980  0.00  0.00    +0.000 OA
ATOM     15  C   UNL     1      -0.589  12.741  20.912  0.00  0.00    +0.000 C 
ATOM     16  C   UNL     1      -1.248  12.196  22.168  0.00  0.00    +0.000 C 
ATOM     17  O   UNL     1      -0.375  11.290  22.853  0.00  0.00    +0.000 OA
ENDBRANCH   6   8
ENDBRANCH   5   6
ENDBRANCH   4   5
ENDBRANCH   2   4
ENDBRANCH   1   2
BRANCH   1  18
ATOM     18  C   UNL     1       3.302   2.489  20.896  0.00  0.00    +0.000 C 
BRANCH  18  19
ATOM     19  C   UNL     1       3.847   2.320  19.474  0.00  0.00    +0.000 C 
ATOM     20  O   UNL     1       3.639   1.258  18.875  0.00  0.00    +0.000 OA
BRANCH  19  25
ATOM     21  C   UNL     1       5.459   5.062  17.500  0.00  0.00    +0.000 A 
ATOM     22  C   UNL     1       6.287   4.962  18.609  0.00  0.00    +0.000 A 
ATOM     23  C   UNL     1       7.500   5.743  19.011  0.00  0.00    +0.000 C 
ATOM     24  N   UNL     1       5.799   3.958  19.416  0.00  0.00    +0.000 N 
ATOM     25  C   UNL     1       4.646   3.404  18.883  0.00  0.00    +0.000 A 
ATOM     26  C   UNL     1       4.413   4.086  17.689  0.00  0.00    +0.000 A 
ATOM     27  C   UNL     1       3.268   3.892  16.742  0.00  0.00    +0.000 C 
ATOM     28  H   UNL     1       6.236   3.683  20.286  0.00  0.00    +0.000 HD
BRANCH  21  29
ATOM     29  C   UNL     1       5.593   6.039  16.403  0.00  0.00    +0.000 C 
ATOM     30  O   UNL     1       4.771   6.905  16.152  0.00  0.00    +0.000 OA
BRANCH  29  31
ATOM     31  O   UNL     1       6.701   5.810  15.636  0.00  0.00    +0.000 OA
BRANCH  31  33
ATOM     32  C   UNL     1       5.804   4.258  14.060  0.00  0.00    +0.000 C 
ATOM     33  C   UNL     1       6.844   4.475  15.146  0.00  0.00    +0.000 C 
ENDBRANCH  31  33
ENDBRANCH  29  31
ENDBRANCH  21  29
ENDBRANCH  19  25
ENDBRANCH  18  19
ENDBRANCH   1  18
TORSDOF 11
ENDMDL
MODEL 3
REMARK VINA RESULT:      -7.7      4.762      7.162
REMARK  Name = 
REMARK  14 active torsions:
REMARK  status: ('A' for Active; 'I' for Inactive)
REMARK    1  A    between atoms: C_1  and  C_2
REMARK    2  A    between atoms: C_2  and  O_3
REMARK    3  A    between atoms: O_3  and  C_4
REMARK    4  A    between atoms: C_4  and  C_6
REMARK    5  A    between atoms: C_7  and  C_8
REMARK    6  A    between atoms: C_10  and  C_11
REMARK    7  A    between atoms: C_11  and  C_13
REMARK    8  A    between atoms: C_13  and  O_14
REMARK    9  A    between atoms: O_14  and  C_15
REMARK   10  A    between atoms: C_15  and  C_17
REMARK   11  A    between atoms: C_17  and  C_18
REMARK   12  A    between atoms: C_18  and  C_19
REMARK   13  A    between atoms: C_19  and  C_21
REMARK   14  A    between atoms: C_31  and  C_32
REMARK                            x       y       z     vdW  Elec       q    Type
REMARK                         _______ _______ _______ _____ _____    ______ ____
ROOT
ATOM      1  O   UNL     1       7.516   4.410  18.479  0.00  0.00    +0.000 OA
ENDROOT
BRANCH   1   2
ATOM      2  C   UNL     1       7.765   5.535  19.210  0.00  0.00    +0.000 C 
ATOM      3  O   UNL     1       7.900   5.568  20.427  0.00  0.00    +0.000 OA
BRANCH   2   4
ATOM      4  C   UNL     1       7.631   6.761  18.340  0.00  0.00    +0.000 C 
BRANCH   4   5
ATOM      5  C   UNL     1       8.513   7.884  18.890  0.00  0.00    +0.000 C 
BRANCH   5   6
ATOM      6  C   UNL     1       8.319   9.200  18.151  0.00  0.00    +0.000 C 
ATOM      7  O   UNL     1       7.604   9.284  17.156  0.00  0.00    +0.000 OA
BRANCH   6   8
ATOM      8  C   UNL     1       9.013  10.425  18.672  0.00  0.00    +0.000 A 
ATOM      9  C   UNL     1       9.614  10.378  19.940  0.00  0.00    +0.000 A 
ATOM     10  C   UNL     1      10.282  11.494  20.455  0.00  0.00    +0.000 A 
ATOM     11  C   UNL     1      10.344  12.670  19.712  0.00  0.00    +0.000 A 
ATOM     12  C   UNL     1       9.757  12.723  18.446  0.00  0.00    +0.000 A 
ATOM     13  C   UNL     1       9.085  11.611  17.931  0.00  0.00    +0.000 A 
ATOM     14  O   UNL     1       9.785  13.841  17.652  0.00  0.00    +0.000 OA
ATOM     15  C   UNL     1      10.755  14.792  18.110  0.00  0.00    +0.000 C 
ATOM     16  C   UNL     1      10.692  14.958  19.620  0.00  0.00    +0.000 C 
ATOM     17  O   UNL     1      11.001  13.728  20.284  0.00  0.00    +0.000 OA
ENDBRANCH   6   8
ENDBRANCH   5   6
ENDBRANCH   4   5
ENDBRANCH   2   4
ENDBRANCH   1   2
BRANCH   1  18
ATOM     18  C   UNL     1       7.688   4.554  17.066  0.00  0.00    +0.000 C 
BRANCH  18  19
ATOM     19  C   UNL     1       6.457   4.303  16.188  0.00  0.00    +0.000 C 
ATOM     20  O   UNL     1       6.579   4.343  14.958  0.00  0.00    +0.000 OA
BRANCH  19  25
ATOM     21  C   UNL     1       3.103   4.347  17.851  0.00  0.00    +0.000 A 
ATOM     22  C   UNL     1       3.364   2.989  17.734  0.00  0.00    +0.000 A 
ATOM     23  C   UNL     1       2.548   1.789  18.105  0.00  0.00    +0.000 C 
ATOM     24  N   UNL     1       4.599   2.841  17.142  0.00  0.00    +0.000 N 
ATOM     25  C   UNL     1       5.156   4.072  16.835  0.00  0.00    +0.000 A 
ATOM     26  C   UNL     1       4.233   5.026  17.264  0.00  0.00    +0.000 A 
ATOM     27  C   UNL     1       4.339   6.514  17.134  0.00  0.00    +0.000 C 
ATOM     28  H   UNL     1       5.022   1.941  16.955  0.00  0.00    +0.000 HD
BRANCH  21  29
ATOM     29  C   UNL     1       1.870   4.949  18.392  0.00  0.00    +0.000 C 
ATOM     30  O   UNL     1       1.344   5.954  17.943  0.00  0.00    +0.000 OA
BRANCH  29  31
ATOM     31  O   UNL     1       1.429   4.308  19.516  0.00  0.00    +0.000 OA
BRANCH  31  33
ATOM     32  C   UNL     1       2.164   3.512  21.644  0.00  0.00    +0.000 C 
ATOM     33  C   UNL     1       2.034   4.728  20.741  0.00  0.00    +0.000 C 
ENDBRANCH  31  33
ENDBRANCH  29  31
ENDBRANCH  21  29
ENDBRANCH  19  25
ENDBRANCH  18  19
ENDBRANCH   1  18
TORSDOF 11
ENDMDL
MODEL 4
REMARK VINA RESULT:      -7.6      2.086      2.892
REMARK  Name = 
REMARK  14 active torsions:
REMARK  status: ('A' for Active; 'I' for Inactive)
REMARK    1  A    between atoms: C_1  and  C_2
REMARK    2  A    between atoms: C_2  and  O_3
REMARK    3  A    between atoms: O_3  and  C_4
REMARK    4  A    between atoms: C_4  and  C_6
REMARK    5  A    between atoms: C_7  and  C_8
REMARK    6  A    between atoms: C_10  and  C_11
REMARK    7  A    between atoms: C_11  and  C_13
REMARK    8  A    between atoms: C_13  and  O_14
REMARK    9  A    between atoms: O_14  and  C_15
REMARK   10  A    between atoms: C_15  and  C_17
REMARK   11  A    between atoms: C_17  and  C_18
REMARK   12  A    between atoms: C_18  and  C_19
REMARK   13  A    between atoms: C_19  and  C_21
REMARK   14  A    between atoms: C_31  and  C_32
REMARK                            x       y       z     vdW  Elec       q    Type
REMARK                         _______ _______ _______ _____ _____    ______ ____
ROOT
ATOM      1  O   UNL     1       2.808   5.279  20.191  0.00  0.00    +0.000 OA
ENDROOT
BRANCH   1   2
ATOM      2  C   UNL     1       2.041   5.409  19.069  0.00  0.00    +0.000 C 
ATOM      3  O   UNL     1       1.290   4.548  18.626  0.00  0.00    +0.000 OA
BRANCH   2   4
ATOM      4  C   UNL     1       2.411   6.671  18.329  0.00  0.00    +0.000 C 
BRANCH   4   5
ATOM      5  C   UNL     1       2.000   7.893  19.153  0.00  0.00    +0.000 C 
BRANCH   5   6
ATOM      6  C   UNL     1       1.723   9.116  18.291  0.00  0.00    +0.000 C 
ATOM      7  O   UNL     1       2.483   9.460  17.391  0.00  0.00    +0.000 OA
BRANCH   6   8
ATOM      8  C   UNL     1       0.473   9.908  18.549  0.00  0.00    +0.000 A 
ATOM      9  C   UNL     1       0.459  10.825  19.613  0.00  0.00    +0.000 A 
ATOM     10  C   UNL     1      -0.681  11.592  19.879  0.00  0.00    +0.000 A 
ATOM     11  C   UNL     1      -1.819  11.439  19.092  0.00  0.00    +0.000 A 
ATOM     12  C   UNL     1      -1.810  10.535  18.027  0.00  0.00    +0.000 A 
ATOM     13  C   UNL     1      -0.675   9.765  17.762  0.00  0.00    +0.000 A 
ATOM     14  O   UNL     1      -2.889  10.337  17.203  0.00  0.00    +0.000 OA
ATOM     15  C   UNL     1      -3.861  11.381  17.340  0.00  0.00    +0.000 C 
ATOM     16  C   UNL     1      -4.100  11.720  18.803  0.00  0.00    +0.000 C 
ATOM     17  O   UNL     1      -2.903  12.211  19.418  0.00  0.00    +0.000 OA
ENDBRANCH   6   8
ENDBRANCH   5   6
ENDBRANCH   4   5
ENDBRANCH   2   4
ENDBRANCH   1   2
BRANCH   1  18
ATOM     18  C   UNL     1       3.108   3.931  20.567  0.00  0.00    +0.000 C 
BRANCH  18  19
ATOM     19  C   UNL     1       4.359   3.301  19.945  0.00  0.00    +0.000 C 
ATOM     20  O   UNL     1       4.698   2.166  20.301  0.00  0.00    +0.000 OA
BRANCH  19  25
ATOM     21  C   UNL     1       6.003   5.019  17.054  0.00  0.00    +0.000 A 
ATOM     22  C   UNL     1       6.704   5.520  18.141  0.00  0.00    +0.000 A 
ATOM     23  C   UNL     1       7.810   6.526  18.227  0.00  0.00    +0.000 C 
ATOM     24  N   UNL     1       6.194   4.940  19.282  0.00  0.00    +0.000 N 
ATOM     25  C   UNL     1       5.147   4.083  18.982  0.00  0.00    +0.000 A 
ATOM     26  C   UNL     1       5.008   4.124  17.594  0.00  0.00    +0.000 A 
ATOM     27  C   UNL     1       3.994   3.400  16.762  0.00  0.00    +0.000 C 
ATOM     28  H   UNL     1       6.545   5.137  20.210  0.00  0.00    +0.000 HD
BRANCH  21  29
ATOM     29  C   UNL     1       6.198   5.406  15.644  0.00  0.00    +0.000 C 
ATOM     30  O   UNL     1       5.718   6.405  15.135  0.00  0.00    +0.000 OA
BRANCH  29  31
ATOM     31  O   UNL     1       6.903   4.469  14.941  0.00  0.00    +0.000 OA
BRANCH  31  33
ATOM     32  C   UNL     1       7.048   4.268  12.566  0.00  0.00    +0.000 C 
ATOM     33  C   UNL     1       6.233   3.923  13.802  0.00  0.00    +0.000 C 
ENDBRANCH  31  33
ENDBRANCH  29  31
ENDBRANCH  21  29
ENDBRANCH  19  25
ENDBRANCH  18  19
ENDBRANCH   1  18
TORSDOF 11
ENDMDL
MODEL 5
REMARK VINA RESULT:      -7.6      5.761      8.184
REMARK  Name = 
REMARK  14 active torsions:
REMARK  status: ('A' for Active; 'I' for Inactive)
REMARK    1  A    between atoms: C_1  and  C_2
REMARK    2  A    between atoms: C_2  and  O_3
REMARK    3  A    between atoms: O_3  and  C_4
REMARK    4  A    between atoms: C_4  and  C_6
REMARK    5  A    between atoms: C_7  and  C_8
REMARK    6  A    between atoms: C_10  and  C_11
REMARK    7  A    between atoms: C_11  and  C_13
REMARK    8  A    between atoms: C_13  and  O_14
REMARK    9  A    between atoms: O_14  and  C_15
REMARK   10  A    between atoms: C_15  and  C_17
REMARK   11  A    between atoms: C_17  and  C_18
REMARK   12  A    between atoms: C_18  and  C_19
REMARK   13  A    between atoms: C_19  and  C_21
REMARK   14  A    between atoms: C_31  and  C_32
REMARK                            x       y       z     vdW  Elec       q    Type
REMARK                         _______ _______ _______ _____ _____    ______ ____
ROOT
ATOM      1  O   UNL     1       7.754   7.099  16.584  0.00  0.00    +0.000 OA
ENDROOT
BRANCH   1   2
ATOM      2  C   UNL     1       7.932   7.515  17.872  0.00  0.00    +0.000 C 
ATOM      3  O   UNL     1       8.078   6.775  18.837  0.00  0.00    +0.000 OA
BRANCH   2   4
ATOM      4  C   UNL     1       7.704   9.003  17.974  0.00  0.00    +0.000 C 
BRANCH   4   5
ATOM      5  C   UNL     1       9.000   9.749  17.648  0.00  0.00    +0.000 C 
BRANCH   5   6
ATOM      6  C   UNL     1       9.363  10.785  18.702  0.00  0.00    +0.000 C 
ATOM      7  O   UNL     1       9.076  10.632  19.886  0.00  0.00    +0.000 OA
BRANCH   6   8
ATOM      8  C   UNL     1      10.105  12.017  18.272  0.00  0.00    +0.000 A 
ATOM      9  C   UNL     1      11.454  11.901  17.896  0.00  0.00    +0.000 A 
ATOM     10  C   UNL     1      12.177  13.023  17.477  0.00  0.00    +0.000 A 
ATOM     11  C   UNL     1      11.562  14.272  17.442  0.00  0.00    +0.000 A 
ATOM     12  C   UNL     1      10.219  14.394  17.806  0.00  0.00    +0.000 A 
ATOM     13  C   UNL     1       9.495  13.276  18.229  0.00  0.00    +0.000 A 
ATOM     14  O   UNL     1       9.543  15.588  17.787  0.00  0.00    +0.000 OA
ATOM     15  C   UNL     1      10.251  16.587  17.042  0.00  0.00    +0.000 C 
ATOM     16  C   UNL     1      11.732  16.581  17.384  0.00  0.00    +0.000 C 
ATOM     17  O   UNL     1      12.333  15.328  17.035  0.00  0.00    +0.000 OA
ENDBRANCH   6   8
ENDBRANCH   5   6
ENDBRANCH   4   5
ENDBRANCH   2   4
ENDBRANCH   1   2
BRANCH   1  18
ATOM     18  C   UNL     1       7.094   5.837  16.441  0.00  0.00    +0.000 C 
BRANCH  18  19
ATOM     19  C   UNL     1       5.587   5.871  16.165  0.00  0.00    +0.000 C 
ATOM     20  O   UNL     1       5.134   6.745  15.416  0.00  0.00    +0.000 OA
BRANCH  19  25
ATOM     21  C   UNL     1       3.021   3.888  18.034  0.00  0.00    +0.000 A 
ATOM     22  C   UNL     1       3.911   2.910  17.615  0.00  0.00    +0.000 A 
ATOM     23  C   UNL     1       3.896   1.422  17.782  0.00  0.00    +0.000 C 
ATOM     24  N   UNL     1       4.927   3.527  16.919  0.00  0.00    +0.000 N 
ATOM     25  C   UNL     1       4.718   4.895  16.839  0.00  0.00    +0.000 A 
ATOM     26  C   UNL     1       3.528   5.139  17.525  0.00  0.00    +0.000 A 
ATOM     27  C   UNL     1       2.838   6.457  17.704  0.00  0.00    +0.000 C 
ATOM     28  H   UNL     1       5.708   3.027  16.516  0.00  0.00    +0.000 HD
BRANCH  21  29
ATOM     29  C   UNL     1       1.767   3.658  18.777  0.00  0.00    +0.000 C 
ATOM     30  O   UNL     1       0.711   3.339  18.256  0.00  0.00    +0.000 OA
BRANCH  29  31
ATOM     31  O   UNL     1       1.895   3.933  20.109  0.00  0.00    +0.000 OA
BRANCH  31  33
ATOM     32  C   UNL     1       1.422   2.646  22.064  0.00  0.00    +0.000 C 
ATOM     33  C   UNL     1       2.391   2.860  20.914  0.00  0.00    +0.000 C 
ENDBRANCH  31  33
ENDBRANCH  29  31
ENDBRANCH  21  29
ENDBRANCH  19  25
ENDBRANCH  18  19
ENDBRANCH   1  18
TORSDOF 11
ENDMDL
MODEL 6
REMARK VINA RESULT:      -7.6      5.301      7.524
REMARK  Name = 
REMARK  14 active torsions:
REMARK  status: ('A' for Active; 'I' for Inactive)
REMARK    1  A    between atoms: C_1  and  C_2
REMARK    2  A    between atoms: C_2  and  O_3
REMARK    3  A    between atoms: O_3  and  C_4
REMARK    4  A    between atoms: C_4  and  C_6
REMARK    5  A    between atoms: C_7  and  C_8
REMARK    6  A    between atoms: C_10  and  C_11
REMARK    7  A    between atoms: C_11  and  C_13
REMARK    8  A    between atoms: C_13  and  O_14
REMARK    9  A    between atoms: O_14  and  C_15
REMARK   10  A    between atoms: C_15  and  C_17
REMARK   11  A    between atoms: C_17  and  C_18
REMARK   12  A    between atoms: C_18  and  C_19
REMARK   13  A    between atoms: C_19  and  C_21
REMARK   14  A    between atoms: C_31  and  C_32
REMARK                            x       y       z     vdW  Elec       q    Type
REMARK                         _______ _______ _______ _____ _____    ______ ____
ROOT
ATOM      1  O   UNL     1       7.324   7.517  16.992  0.00  0.00    +0.000 OA
ENDROOT
BRANCH   1   2
ATOM      2  C   UNL     1       8.082   8.054  17.991  0.00  0.00    +0.000 C 
ATOM      3  O   UNL     1       8.536   7.430  18.943  0.00  0.00    +0.000 OA
BRANCH   2   4
ATOM      4  C   UNL     1       8.098   9.559  17.881  0.00  0.00    +0.000 C 
BRANCH   4   5
ATOM      5  C   UNL     1       9.069  10.142  18.910  0.00  0.00    +0.000 C 
BRANCH   5   6
ATOM      6  C   UNL     1       9.754  11.409  18.419  0.00  0.00    +0.000 C 
ATOM      7  O   UNL     1      10.648  11.378  17.578  0.00  0.00    +0.000 OA
BRANCH   6   8
ATOM      8  C   UNL     1       9.305  12.730  18.975  0.00  0.00    +0.000 A 
ATOM      9  C   UNL     1       9.339  12.928  20.365  0.00  0.00    +0.000 A 
ATOM     10  C   UNL     1       8.942  14.148  20.922  0.00  0.00    +0.000 A 
ATOM     11  C   UNL     1       8.496  15.176  20.095  0.00  0.00    +0.000 A 
ATOM     12  C   UNL     1       8.467  14.990  18.711  0.00  0.00    +0.000 A 
ATOM     13  C   UNL     1       8.860  13.771  18.153  0.00  0.00    +0.000 A 
ATOM     14  O   UNL     1       8.050  15.959  17.833  0.00  0.00    +0.000 OA
ATOM     15  C   UNL     1       7.988  17.248  18.456  0.00  0.00    +0.000 C 
ATOM     16  C   UNL     1       7.339  17.165  19.828  0.00  0.00    +0.000 C 
ATOM     17  O   UNL     1       8.108  16.338  20.709  0.00  0.00    +0.000 OA
ENDBRANCH   6   8
ENDBRANCH   5   6
ENDBRANCH   4   5
ENDBRANCH   2   4
ENDBRANCH   1   2
BRANCH   1  18
ATOM     18  C   UNL     1       7.314   6.087  16.940  0.00  0.00    +0.000 C 
BRANCH  18  19
ATOM     19  C   UNL     1       6.212   5.431  16.101  0.00  0.00    +0.000 C 
ATOM     20  O   UNL     1       6.225   5.580  14.873  0.00  0.00    +0.000 OA
BRANCH  19  25
ATOM     21  C   UNL     1       3.219   4.107  17.919  0.00  0.00    +0.000 A 
ATOM     22  C   UNL     1       3.952   2.956  17.665  0.00  0.00    +0.000 A 
ATOM     23  C   UNL     1       3.667   1.516  17.964  0.00  0.00    +0.000 C 
ATOM     24  N   UNL     1       5.105   3.321  17.005  0.00  0.00    +0.000 N 
ATOM     25  C   UNL     1       5.143   4.689  16.785  0.00  0.00    +0.000 A 
ATOM     26  C   UNL     1       3.969   5.197  17.343  0.00  0.00    +0.000 A 
ATOM     27  C   UNL     1       3.509   6.622  17.345  0.00  0.00    +0.000 C 
ATOM     28  H   UNL     1       5.813   2.659  16.716  0.00  0.00    +0.000 HD
BRANCH  21  29
ATOM     29  C   UNL     1       1.897   4.166  18.570  0.00  0.00    +0.000 C 
ATOM     30  O   UNL     1       0.853   3.835  18.034  0.00  0.00    +0.000 OA
BRANCH  29  31
ATOM     31  O   UNL     1       1.957   4.724  19.817  0.00  0.00    +0.000 OA
BRANCH  31  33
ATOM     32  C   UNL     1       2.179   2.901  21.343  0.00  0.00    +0.000 C 
ATOM     33  C   UNL     1       1.266   4.009  20.844  0.00  0.00    +0.000 C 
ENDBRANCH  31  33
ENDBRANCH  29  31
ENDBRANCH  21  29
ENDBRANCH  19  25
ENDBRANCH  18  19
ENDBRANCH   1  18
TORSDOF 11
ENDMDL
MODEL 7
REMARK VINA RESULT:      -7.5      2.937      4.487
REMARK  Name = 
REMARK  14 active torsions:
REMARK  status: ('A' for Active; 'I' for Inactive)
REMARK    1  A    between atoms: C_1  and  C_2
REMARK    2  A    between atoms: C_2  and  O_3
REMARK    3  A    between atoms: O_3  and  C_4
REMARK    4  A    between atoms: C_4  and  C_6
REMARK    5  A    between atoms: C_7  and  C_8
REMARK    6  A    between atoms: C_10  and  C_11
REMARK    7  A    between atoms: C_11  and  C_13
REMARK    8  A    between atoms: C_13  and  O_14
REMARK    9  A    between atoms: O_14  and  C_15
REMARK   10  A    between atoms: C_15  and  C_17
REMARK   11  A    between atoms: C_17  and  C_18
REMARK   12  A    between atoms: C_18  and  C_19
REMARK   13  A    between atoms: C_19  and  C_21
REMARK   14  A    between atoms: C_31  and  C_32
REMARK                            x       y       z     vdW  Elec       q    Type
REMARK                         _______ _______ _______ _____ _____    ______ ____
ROOT
ATOM      1  O   UNL     1       2.292   6.571  17.842  0.00  0.00    +0.000 OA
ENDROOT
BRANCH   1   2
ATOM      2  C   UNL     1       2.267   7.488  18.853  0.00  0.00    +0.000 C 
ATOM      3  O   UNL     1       2.389   7.226  20.044  0.00  0.00    +0.000 OA
BRANCH   2   4
ATOM      4  C   UNL     1       1.848   8.837  18.322  0.00  0.00    +0.000 C 
BRANCH   4   5
ATOM      5  C   UNL     1       0.950   9.538  19.343  0.00  0.00    +0.000 C 
BRANCH   5   6
ATOM      6  C   UNL     1       0.369  10.843  18.817  0.00  0.00    +0.000 C 
ATOM      7  O   UNL     1       1.063  11.844  18.662  0.00  0.00    +0.000 OA
BRANCH   6   8
ATOM      8  C   UNL     1      -1.090  10.891  18.468  0.00  0.00    +0.000 A 
ATOM      9  C   UNL     1      -1.570  10.061  17.441  0.00  0.00    +0.000 A 
ATOM     10  C   UNL     1      -2.925  10.066  17.094  0.00  0.00    +0.000 A 
ATOM     11  C   UNL     1      -3.809  10.909  17.762  0.00  0.00    +0.000 A 
ATOM     12  C   UNL     1      -3.342  11.731  18.790  0.00  0.00    +0.000 A 
ATOM     13  C   UNL     1      -1.988  11.731  19.136  0.00  0.00    +0.000 A 
ATOM     14  O   UNL     1      -4.154  12.580  19.499  0.00  0.00    +0.000 OA
ATOM     15  C   UNL     1      -5.540  12.273  19.305  0.00  0.00    +0.000 C 
ATOM     16  C   UNL     1      -5.846  12.011  17.839  0.00  0.00    +0.000 C 
ATOM     17  O   UNL     1      -5.119  10.873  17.360  0.00  0.00    +0.000 OA
ENDBRANCH   6   8
ENDBRANCH   5   6
ENDBRANCH   4   5
ENDBRANCH   2   4
ENDBRANCH   1   2
BRANCH   1  18
ATOM     18  C   UNL     1       1.682   5.314  18.149  0.00  0.00    +0.000 C 
BRANCH  18  19
ATOM     19  C   UNL     1       2.575   4.071  18.065  0.00  0.00    +0.000 C 
ATOM     20  O   UNL     1       2.188   3.018  18.586  0.00  0.00    +0.000 OA
BRANCH  19  25
ATOM     21  C   UNL     1       6.118   4.570  16.962  0.00  0.00    +0.000 A 
ATOM     22  C   UNL     1       5.512   4.077  15.816  0.00  0.00    +0.000 A 
ATOM     23  C   UNL     1       6.069   3.753  14.464  0.00  0.00    +0.000 C 
ATOM     24  N   UNL     1       4.179   3.866  16.094  0.00  0.00    +0.000 N 
ATOM     25  C   UNL     1       3.888   4.181  17.412  0.00  0.00    +0.000 A 
ATOM     26  C   UNL     1       5.089   4.617  17.973  0.00  0.00    +0.000 A 
ATOM     27  C   UNL     1       5.327   5.044  19.389  0.00  0.00    +0.000 C 
ATOM     28  H   UNL     1       3.518   3.516  15.414  0.00  0.00    +0.000 HD
BRANCH  21  29
ATOM     29  C   UNL     1       7.549   4.892  17.116  0.00  0.00    +0.000 C 
ATOM     30  O   UNL     1       8.345   4.201  17.730  0.00  0.00    +0.000 OA
BRANCH  29  31
ATOM     31  O   UNL     1       7.870   6.104  16.571  0.00  0.00    +0.000 OA
BRANCH  31  33
ATOM     32  C   UNL     1       8.184   7.691  18.327  0.00  0.00    +0.000 C 
ATOM     33  C   UNL     1       7.270   7.239  17.200  0.00  0.00    +0.000 C 
ENDBRANCH  31  33
ENDBRANCH  29  31
ENDBRANCH  21  29
ENDBRANCH  19  25
ENDBRANCH  18  19
ENDBRANCH   1  18
TORSDOF 11
ENDMDL
MODEL 8
REMARK VINA RESULT:      -7.4      2.117      8.120
REMARK  Name = 
REMARK  14 active torsions:
REMARK  status: ('A' for Active; 'I' for Inactive)
REMARK    1  A    between atoms: C_1  and  C_2
REMARK    2  A    between atoms: C_2  and  O_3
REMARK    3  A    between atoms: O_3  and  C_4
REMARK    4  A    between atoms: C_4  and  C_6
REMARK    5  A    between atoms: C_7  and  C_8
REMARK    6  A    between atoms: C_10  and  C_11
REMARK    7  A    between atoms: C_11  and  C_13
REMARK    8  A    between atoms: C_13  and  O_14
REMARK    9  A    between atoms: O_14  and  C_15
REMARK   10  A    between atoms: C_15  and  C_17
REMARK   11  A    between atoms: C_17  and  C_18
REMARK   12  A    between atoms: C_18  and  C_19
REMARK   13  A    between atoms: C_19  and  C_21
REMARK   14  A    between atoms: C_31  and  C_32
REMARK                            x       y       z     vdW  Elec       q    Type
REMARK                         _______ _______ _______ _____ _____    ______ ____
ROOT
ATOM      1  O   UNL     1       1.391   4.500  19.783  0.00  0.00    +0.000 OA
ENDROOT
BRANCH   1   2
ATOM      2  C   UNL     1       1.641   3.902  18.581  0.00  0.00    +0.000 C 
ATOM      3  O   UNL     1       1.105   4.202  17.521  0.00  0.00    +0.000 OA
BRANCH   2   4
ATOM      4  C   UNL     1       2.502   2.679  18.777  0.00  0.00    +0.000 C 
BRANCH   4   5
ATOM      5  C   UNL     1       3.563   2.611  17.677  0.00  0.00    +0.000 C 
BRANCH   5   6
ATOM      6  C   UNL     1       4.787   3.459  17.988  0.00  0.00    +0.000 C 
ATOM      7  O   UNL     1       5.125   3.710  19.142  0.00  0.00    +0.000 OA
BRANCH   6   8
ATOM      8  C   UNL     1       5.606   3.986  16.845  0.00  0.00    +0.000 A 
ATOM      9  C   UNL     1       6.577   4.968  17.101  0.00  0.00    +0.000 A 
ATOM     10  C   UNL     1       7.369   5.475  16.065  0.00  0.00    +0.000 A 
ATOM     11  C   UNL     1       7.188   5.015  14.764  0.00  0.00    +0.000 A 
ATOM     12  C   UNL     1       6.230   4.032  14.502  0.00  0.00    +0.000 A 
ATOM     13  C   UNL     1       5.435   3.526  15.534  0.00  0.00    +0.000 A 
ATOM     14  O   UNL     1       6.002   3.523  13.248  0.00  0.00    +0.000 OA
ATOM     15  C   UNL     1       7.063   3.849  12.342  0.00  0.00    +0.000 C 
ATOM     16  C   UNL     1       7.480   5.304  12.484  0.00  0.00    +0.000 C 
ATOM     17  O   UNL     1       7.988   5.566  13.797  0.00  0.00    +0.000 OA
ENDBRANCH   6   8
ENDBRANCH   5   6
ENDBRANCH   4   5
ENDBRANCH   2   4
ENDBRANCH   1   2
BRANCH   1  18
ATOM     18  C   UNL     1       2.420   5.379  20.248  0.00  0.00    +0.000 C 
BRANCH  18  19
ATOM     19  C   UNL     1       2.534   6.741  19.556  0.00  0.00    +0.000 C 
ATOM     20  O   UNL     1       3.254   6.848  18.556  0.00  0.00    +0.000 OA
BRANCH  19  25
ATOM     21  C   UNL     1       0.771   9.924  20.441  0.00  0.00    +0.000 A 
ATOM     22  C   UNL     1       0.767   9.232  21.644  0.00  0.00    +0.000 A 
ATOM     23  C   UNL     1       0.187   9.576  22.981  0.00  0.00    +0.000 C 
ATOM     24  N   UNL     1       1.414   8.031  21.448  0.00  0.00    +0.000 N 
ATOM     25  C   UNL     1       1.824   7.894  20.131  0.00  0.00    +0.000 A 
ATOM     26  C   UNL     1       1.425   9.064  19.485  0.00  0.00    +0.000 A 
ATOM     27  C   UNL     1       1.600   9.404  18.036  0.00  0.00    +0.000 C 
ATOM     28  H   UNL     1       1.551   7.348  22.181  0.00  0.00    +0.000 HD
BRANCH  21  29
ATOM     29  C   UNL     1       0.147  11.237  20.195  0.00  0.00    +0.000 C 
ATOM     30  O   UNL     1       0.759  12.291  20.161  0.00  0.00    +0.000 OA
BRANCH  29  31
ATOM     31  O   UNL     1      -1.214  11.155  20.099  0.00  0.00    +0.000 OA
BRANCH  31  33
ATOM     32  C   UNL     1      -2.261  12.405  21.844  0.00  0.00    +0.000 C 
ATOM     33  C   UNL     1      -1.923  12.368  20.363  0.00  0.00    +0.000 C 
ENDBRANCH  31  33
ENDBRANCH  29  31
ENDBRANCH  21  29
ENDBRANCH  19  25
ENDBRANCH  18  19
ENDBRANCH   1  18
TORSDOF 11
ENDMDL
MODEL 9
REMARK VINA RESULT:      -7.3      5.414      7.508
REMARK  Name = 
REMARK  14 active torsions:
REMARK  status: ('A' for Active; 'I' for Inactive)
REMARK    1  A    between atoms: C_1  and  C_2
REMARK    2  A    between atoms: C_2  and  O_3
REMARK    3  A    between atoms: O_3  and  C_4
REMARK    4  A    between atoms: C_4  and  C_6
REMARK    5  A    between atoms: C_7  and  C_8
REMARK    6  A    between atoms: C_10  and  C_11
REMARK    7  A    between atoms: C_11  and  C_13
REMARK    8  A    between atoms: C_13  and  O_14
REMARK    9  A    between atoms: O_14  and  C_15
REMARK   10  A    between atoms: C_15  and  C_17
REMARK   11  A    between atoms: C_17  and  C_18
REMARK   12  A    between atoms: C_18  and  C_19
REMARK   13  A    between atoms: C_19  and  C_21
REMARK   14  A    between atoms: C_31  and  C_32
REMARK                            x       y       z     vdW  Elec       q    Type
REMARK                         _______ _______ _______ _____ _____    ______ ____
ROOT
ATOM      1  O   UNL     1       7.005   7.843  17.319  0.00  0.00    +0.000 OA
ENDROOT
BRANCH   1   2
ATOM      2  C   UNL     1       8.071   8.391  17.972  0.00  0.00    +0.000 C 
ATOM      3  O   UNL     1       8.708   7.843  18.864  0.00  0.00    +0.000 OA
BRANCH   2   4
ATOM      4  C   UNL     1       8.219   9.846  17.598  0.00  0.00    +0.000 C 
BRANCH   4   5
ATOM      5  C   UNL     1       9.068  10.566  18.648  0.00  0.00    +0.000 C 
BRANCH   5   6
ATOM      6  C   UNL     1       9.986  11.616  18.042  0.00  0.00    +0.000 C 
ATOM      7  O   UNL     1      11.050  11.315  17.507  0.00  0.00    +0.000 OA
BRANCH   6   8
ATOM      8  C   UNL     1       9.564  13.056  18.092  0.00  0.00    +0.000 A 
ATOM      9  C   UNL     1      10.465  14.043  17.661  0.00  0.00    +0.000 A 
ATOM     10  C   UNL     1      10.104  15.395  17.680  0.00  0.00    +0.000 A 
ATOM     11  C   UNL     1       8.846  15.772  18.142  0.00  0.00    +0.000 A 
ATOM     12  C   UNL     1       7.941  14.795  18.564  0.00  0.00    +0.000 A 
ATOM     13  C   UNL     1       8.299  13.444  18.550  0.00  0.00    +0.000 A 
ATOM     14  O   UNL     1       6.681  15.088  19.022  0.00  0.00    +0.000 OA
ATOM     15  C   UNL     1       6.296  16.429  18.693  0.00  0.00    +0.000 C 
ATOM     16  C   UNL     1       7.427  17.408  18.963  0.00  0.00    +0.000 C 
ATOM     17  O   UNL     1       8.565  17.113  18.146  0.00  0.00    +0.000 OA
ENDBRANCH   6   8
ENDBRANCH   5   6
ENDBRANCH   4   5
ENDBRANCH   2   4
ENDBRANCH   1   2
BRANCH   1  18
ATOM     18  C   UNL     1       7.208   6.511  16.838  0.00  0.00    +0.000 C 
BRANCH  18  19
ATOM     19  C   UNL     1       6.729   5.368  17.739  0.00  0.00    +0.000 C 
ATOM     20  O   UNL     1       7.552   4.534  18.138  0.00  0.00    +0.000 OA
BRANCH  19  25
ATOM     21  C   UNL     1       3.079   4.636  18.136  0.00  0.00    +0.000 A 
ATOM     22  C   UNL     1       3.274   5.690  19.018  0.00  0.00    +0.000 A 
ATOM     23  C   UNL     1       2.333   6.380  19.957  0.00  0.00    +0.000 C 
ATOM     24  N   UNL     1       4.597   6.066  18.949  0.00  0.00    +0.000 N 
ATOM     25  C   UNL     1       5.298   5.266  18.060  0.00  0.00    +0.000 A 
ATOM     26  C   UNL     1       4.368   4.362  17.547  0.00  0.00    +0.000 A 
ATOM     27  C   UNL     1       4.622   3.256  16.568  0.00  0.00    +0.000 C 
ATOM     28  H   UNL     1       4.989   6.823  19.493  0.00  0.00    +0.000 HD
BRANCH  21  29
ATOM     29  C   UNL     1       1.817   3.903  17.926  0.00  0.00    +0.000 C 
ATOM     30  O   UNL     1       0.937   4.258  17.158  0.00  0.00    +0.000 OA
BRANCH  29  31
ATOM     31  O   UNL     1       1.697   2.825  18.758  0.00  0.00    +0.000 OA
BRANCH  31  33
ATOM     32  C   UNL     1       1.498   2.921  21.135  0.00  0.00    +0.000 C 
ATOM     33  C   UNL     1       0.746   2.968  19.816  0.00  0.00    +0.000 C 
ENDBRANCH  31  33
ENDBRANCH  29  31
ENDBRANCH  21  29
ENDBRANCH  19  25
ENDBRANCH  18  19
ENDBRANCH   1  18
TORSDOF 11
ENDMDL
