MODEL 1
REMARK VINA RESULT:      -8.2      0.000      0.000
REMARK  Name = 
REMARK  2 active torsions:
REMARK  status: ('A' for Active; 'I' for Inactive)
REMARK    1  A    between atoms: N_3  and  C_4
REMARK    2  A    between atoms: N_13  and  C_14
REMARK                            x       y       z     vdW  Elec       q    Type
REMARK                         _______ _______ _______ _____ _____    ______ ____
ROOT
ATOM      1  O   UNL     1       2.481   8.981  17.142  0.00  0.00    +0.000 OA
ATOM      2  C   UNL     1       2.067   8.504  18.191  0.00  0.00    +0.000 C 
ATOM      3  N   UNL     1       2.326   7.241  18.681  0.00  0.00    +0.000 N 
ATOM      4  N   UNL     1       1.213   9.195  19.021  0.00  0.00    +0.000 N 
ATOM      5  H   UNL     1       1.753   6.951  19.459  0.00  0.00    +0.000 HD
ATOM      6  H   UNL     1       1.131   8.906  19.984  0.00  0.00    +0.000 HD
ENDROOT
BRANCH   3   7
ATOM      7  C   UNL     1       3.107   6.230  18.074  0.00  0.00    +0.000 A 
ATOM      8  C   UNL     1       4.379   6.459  17.522  0.00  0.00    +0.000 A 
ATOM      9  C   UNL     1       5.094   5.442  16.881  0.00  0.00    +0.000 A 
ATOM     10  C   UNL     1       4.574   4.154  16.761  0.00  0.00    +0.000 A 
ATOM     11  C   UNL     1       3.325   3.926  17.337  0.00  0.00    +0.000 A 
ATOM     12  N   UNL     1       2.551   2.795  17.396  0.00  0.00    +0.000 N 
ATOM     13  N   UNL     1       1.396   2.953  18.065  0.00  0.00    +0.000 NA
ATOM     14  C   UNL     1       1.426   4.238  18.427  0.00  0.00    +0.000 A 
ATOM     15  C   UNL     1       2.594   4.914  17.996  0.00  0.00    +0.000 A 
ATOM     16  H   UNL     1       2.756   1.886  16.996  0.00  0.00    +0.000 HD
ENDBRANCH   3   7
BRANCH   4  17
ATOM     17  C   UNL     1       0.783  10.539  18.693  0.00  0.00    +0.000 C 
ATOM     18  C   UNL     1       0.865  11.507  19.894  0.00  0.00    +0.000 C 
ATOM     19  C   UNL     1      -0.559  11.936  20.290  0.00  0.00    +0.000 C 
ATOM     20  C   UNL     1      -1.417  11.336  19.229  0.00  0.00    +0.000 A 
ATOM     21  C   UNL     1      -2.790  11.468  19.085  0.00  0.00    +0.000 A 
ATOM     22  C   UNL     1      -3.404  10.811  18.022  0.00  0.00    +0.000 A 
ATOM     23  F   UNL     1      -4.730  10.919  17.863  0.00  0.00    +0.000 F 
ATOM     24  C   UNL     1      -2.669  10.039  17.118  0.00  0.00    +0.000 A 
ATOM     25  C   UNL     1      -1.288   9.910  17.271  0.00  0.00    +0.000 A 
ATOM     26  C   UNL     1      -0.673  10.560  18.336  0.00  0.00    +0.000 A 
ENDBRANCH   4  17
TORSDOF 2
ENDMDL
MODEL 2
REMARK VINA RESULT:      -8.2      1.510      2.048
REMARK  Name = 
REMARK  2 active torsions:
REMARK  status: ('A' for Active; 'I' for Inactive)
REMARK    1  A    between atoms: N_3  and  C_4
REMARK    2  A    between atoms: N_13  and  C_14
REMARK                            x       y       z     vdW  Elec       q    Type
REMARK                         _______ _______ _______ _____ _____    ______ ____
ROOT
ATOM      1  O   UNL     1       2.429   8.254  17.384  0.00  0.00    +0.000 OA
ATOM      2  C   UNL     1       2.092   7.961  18.524  0.00  0.00    +0.000 C 
ATOM      3  N   UNL     1       2.208   6.725  19.127  0.00  0.00    +0.000 N 
ATOM      4  N   UNL     1       1.485   8.869  19.363  0.00  0.00    +0.000 N 
ATOM      5  H   UNL     1       1.709   6.618  19.996  0.00  0.00    +0.000 HD
ATOM      6  H   UNL     1       1.492   8.693  20.356  0.00  0.00    +0.000 HD
ENDROOT
BRANCH   3   7
ATOM      7  C   UNL     1       2.724   5.539  18.554  0.00  0.00    +0.000 A 
ATOM      8  C   UNL     1       1.942   4.627  17.825  0.00  0.00    +0.000 A 
ATOM      9  C   UNL     1       2.481   3.438  17.323  0.00  0.00    +0.000 A 
ATOM     10  C   UNL     1       3.820   3.105  17.524  0.00  0.00    +0.000 A 
ATOM     11  C   UNL     1       4.596   4.028  18.222  0.00  0.00    +0.000 A 
ATOM     12  N   UNL     1       5.921   4.006  18.581  0.00  0.00    +0.000 N 
ATOM     13  N   UNL     1       6.330   5.103  19.242  0.00  0.00    +0.000 NA
ATOM     14  C   UNL     1       5.221   5.842  19.325  0.00  0.00    +0.000 A 
ATOM     15  C   UNL     1       4.094   5.229  18.723  0.00  0.00    +0.000 A 
ATOM     16  H   UNL     1       6.595   3.269  18.407  0.00  0.00    +0.000 HD
ENDBRANCH   3   7
BRANCH   4  17
ATOM     17  C   UNL     1       1.237  10.229  18.932  0.00  0.00    +0.000 C 
ATOM     18  C   UNL     1       1.433  11.263  20.062  0.00  0.00    +0.000 C 
ATOM     19  C   UNL     1       0.073  11.902  20.400  0.00  0.00    +0.000 C 
ATOM     20  C   UNL     1      -0.845  11.341  19.368  0.00  0.00    +0.000 A 
ATOM     21  C   UNL     1      -2.187  11.639  19.188  0.00  0.00    +0.000 A 
ATOM     22  C   UNL     1      -2.871  10.991  18.162  0.00  0.00    +0.000 A 
ATOM     23  F   UNL     1      -4.171  11.258  17.971  0.00  0.00    +0.000 F 
ATOM     24  C   UNL     1      -2.235  10.066  17.330  0.00  0.00    +0.000 A 
ATOM     25  C   UNL     1      -0.884   9.771  17.519  0.00  0.00    +0.000 A 
ATOM     26  C   UNL     1      -0.200  10.413  18.547  0.00  0.00    +0.000 A 
ENDBRANCH   4  17
TORSDOF 2
ENDMDL
MODEL 3
REMARK VINA RESULT:      -8.1      2.983      7.599
REMARK  Name = 
REMARK  2 active torsions:
REMARK  status: ('A' for Active; 'I' for Inactive)
REMARK    1  A    between atoms: N_3  and  C_4
REMARK    2  A    between atoms: N_13  and  C_14
REMARK                            x       y       z     vdW  Elec       q    Type
REMARK                         _______ _______ _______ _____ _____    ______ ____
ROOT
ATOM      1  O   UNL     1       1.830   8.642  19.742  0.00  0.00    +0.000 OA
ATOM      2  C   UNL     1       1.749   8.778  18.528  0.00  0.00    +0.000 C 
ATOM      3  N   UNL     1       0.866   9.589  17.845  0.00  0.00    +0.000 N 
ATOM      4  N   UNL     1       2.542   8.062  17.658  0.00  0.00    +0.000 N 
ATOM      5  H   UNL     1       0.813   9.432  16.850  0.00  0.00    +0.000 HD
ATOM      6  H   UNL     1       2.658   8.401  16.715  0.00  0.00    +0.000 HD
ENDROOT
BRANCH   3   7
ATOM      7  C   UNL     1      -0.137  10.419  18.399  0.00  0.00    +0.000 A 
ATOM      8  C   UNL     1       0.078  11.265  19.500  0.00  0.00    +0.000 A 
ATOM      9  C   UNL     1      -0.957  12.028  20.050  0.00  0.00    +0.000 A 
ATOM     10  C   UNL     1      -2.249  11.983  19.528  0.00  0.00    +0.000 A 
ATOM     11  C   UNL     1      -2.448  11.164  18.418  0.00  0.00    +0.000 A 
ATOM     12  N   UNL     1      -3.575  10.901  17.680  0.00  0.00    +0.000 N 
ATOM     13  N   UNL     1      -3.374  10.061  16.649  0.00  0.00    +0.000 NA
ATOM     14  C   UNL     1      -2.076   9.762  16.747  0.00  0.00    +0.000 A 
ATOM     15  C   UNL     1      -1.435  10.402  17.836  0.00  0.00    +0.000 A 
ATOM     16  H   UNL     1      -4.510  11.261  17.832  0.00  0.00    +0.000 HD
ENDBRANCH   3   7
BRANCH   4  17
ATOM     17  C   UNL     1       3.531   7.127  18.153  0.00  0.00    +0.000 C 
ATOM     18  C   UNL     1       4.789   7.052  17.260  0.00  0.00    +0.000 C 
ATOM     19  C   UNL     1       4.863   5.657  16.613  0.00  0.00    +0.000 C 
ATOM     20  C   UNL     1       3.744   4.910  17.255  0.00  0.00    +0.000 A 
ATOM     21  C   UNL     1       3.404   3.579  17.064  0.00  0.00    +0.000 A 
ATOM     22  C   UNL     1       2.307   3.077  17.759  0.00  0.00    +0.000 A 
ATOM     23  F   UNL     1       1.955   1.795  17.588  0.00  0.00    +0.000 F 
ATOM     24  C   UNL     1       1.562   3.879  18.628  0.00  0.00    +0.000 A 
ATOM     25  C   UNL     1       1.910   5.217  18.813  0.00  0.00    +0.000 A 
ATOM     26  C   UNL     1       3.002   5.724  18.115  0.00  0.00    +0.000 A 
ENDBRANCH   4  17
TORSDOF 2
ENDMDL
MODEL 4
REMARK VINA RESULT:      -8.0      1.892      2.599
REMARK  Name = 
REMARK  2 active torsions:
REMARK  status: ('A' for Active; 'I' for Inactive)
REMARK    1  A    between atoms: N_3  and  C_4
REMARK    2  A    between atoms: N_13  and  C_14
REMARK                            x       y       z     vdW  Elec       q    Type
REMARK                         _______ _______ _______ _____ _____    ______ ____
ROOT
ATOM      1  O   UNL     1       2.000   7.348  17.707  0.00  0.00    +0.000 OA
ATOM      2  C   UNL     1       2.016   7.706  18.878  0.00  0.00    +0.000 C 
ATOM      3  N   UNL     1       2.208   6.904  19.983  0.00  0.00    +0.000 N 
ATOM      4  N   UNL     1       1.787   9.014  19.245  0.00  0.00    +0.000 N 
ATOM      5  H   UNL     1       2.001   7.333  20.872  0.00  0.00    +0.000 HD
ATOM      6  H   UNL     1       2.091   9.324  20.155  0.00  0.00    +0.000 HD
ENDROOT
BRANCH   3   7
ATOM      7  C   UNL     1       2.409   5.504  20.000  0.00  0.00    +0.000 A 
ATOM      8  C   UNL     1       1.420   4.583  20.384  0.00  0.00    +0.000 A 
ATOM      9  C   UNL     1       1.680   3.209  20.438  0.00  0.00    +0.000 A 
ATOM     10  C   UNL     1       2.934   2.694  20.113  0.00  0.00    +0.000 A 
ATOM     11  C   UNL     1       3.901   3.611  19.705  0.00  0.00    +0.000 A 
ATOM     12  N   UNL     1       5.208   3.435  19.323  0.00  0.00    +0.000 N 
ATOM     13  N   UNL     1       5.834   4.570  18.970  0.00  0.00    +0.000 NA
ATOM     14  C   UNL     1       4.900   5.506  19.153  0.00  0.00    +0.000 A 
ATOM     15  C   UNL     1       3.670   4.983  19.625  0.00  0.00    +0.000 A 
ATOM     16  H   UNL     1       5.727   2.565  19.286  0.00  0.00    +0.000 HD
ENDBRANCH   3   7
BRANCH   4  17
ATOM     17  C   UNL     1       1.537  10.033  18.247  0.00  0.00    +0.000 C 
ATOM     18  C   UNL     1       2.214  11.381  18.580  0.00  0.00    +0.000 C 
ATOM     19  C   UNL     1       1.126  12.432  18.866  0.00  0.00    +0.000 C 
ATOM     20  C   UNL     1      -0.145  11.721  18.548  0.00  0.00    +0.000 A 
ATOM     21  C   UNL     1      -1.430  12.240  18.585  0.00  0.00    +0.000 A 
ATOM     22  C   UNL     1      -2.488  11.396  18.258  0.00  0.00    +0.000 A 
ATOM     23  F   UNL     1      -3.740  11.873  18.291  0.00  0.00    +0.000 F 
ATOM     24  C   UNL     1      -2.275  10.062  17.901  0.00  0.00    +0.000 A 
ATOM     25  C   UNL     1      -0.979   9.547  17.868  0.00  0.00    +0.000 A 
ATOM     26  C   UNL     1       0.080  10.386  18.200  0.00  0.00    +0.000 A 
ENDBRANCH   4  17
TORSDOF 2
ENDMDL
MODEL 5
REMARK VINA RESULT:      -7.9      1.299      1.330
REMARK  Name = 
REMARK  2 active torsions:
REMARK  status: ('A' for Active; 'I' for Inactive)
REMARK    1  A    between atoms: N_3  and  C_4
REMARK    2  A    between atoms: N_13  and  C_14
REMARK                            x       y       z     vdW  Elec       q    Type
REMARK                         _______ _______ _______ _____ _____    ______ ____
ROOT
ATOM      1  O   UNL     1       2.146   8.947  17.395  0.00  0.00    +0.000 OA
ATOM      2  C   UNL     1       1.797   8.734  18.549  0.00  0.00    +0.000 C 
ATOM      3  N   UNL     1       2.103   7.627  19.313  0.00  0.00    +0.000 N 
ATOM      4  N   UNL     1       0.977   9.602  19.236  0.00  0.00    +0.000 N 
ATOM      5  H   UNL     1       1.577   7.531  20.168  0.00  0.00    +0.000 HD
ATOM      6  H   UNL     1       0.952   9.553  20.243  0.00  0.00    +0.000 HD
ENDROOT
BRANCH   3   7
ATOM      7  C   UNL     1       2.867   6.502  18.922  0.00  0.00    +0.000 A 
ATOM      8  C   UNL     1       3.708   6.489  17.797  0.00  0.00    +0.000 A 
ATOM      9  C   UNL     1       4.403   5.337  17.416  0.00  0.00    +0.000 A 
ATOM     10  C   UNL     1       4.291   4.149  18.136  0.00  0.00    +0.000 A 
ATOM     11  C   UNL     1       3.478   4.178  19.268  0.00  0.00    +0.000 A 
ATOM     12  N   UNL     1       3.162   3.199  20.178  0.00  0.00    +0.000 N 
ATOM     13  N   UNL     1       2.350   3.610  21.167  0.00  0.00    +0.000 NA
ATOM     14  C   UNL     1       2.124   4.891  20.865  0.00  0.00    +0.000 A 
ATOM     15  C   UNL     1       2.784   5.313  19.685  0.00  0.00    +0.000 A 
ATOM     16  H   UNL     1       3.467   2.233  20.175  0.00  0.00    +0.000 HD
ENDBRANCH   3   7
BRANCH   4  17
ATOM     17  C   UNL     1       0.509  10.827  18.620  0.00  0.00    +0.000 C 
ATOM     18  C   UNL     1       0.517  12.029  19.590  0.00  0.00    +0.000 C 
ATOM     19  C   UNL     1      -0.935  12.471  19.853  0.00  0.00    +0.000 C 
ATOM     20  C   UNL     1      -1.736  11.623  18.924  0.00  0.00    +0.000 A 
ATOM     21  C   UNL     1      -3.107  11.663  18.723  0.00  0.00    +0.000 A 
ATOM     22  C   UNL     1      -3.662  10.770  17.810  0.00  0.00    +0.000 A 
ATOM     23  F   UNL     1      -4.986  10.785  17.602  0.00  0.00    +0.000 F 
ATOM     24  C   UNL     1      -2.871   9.857  17.108  0.00  0.00    +0.000 A 
ATOM     25  C   UNL     1      -1.492   9.823  17.317  0.00  0.00    +0.000 A 
ATOM     26  C   UNL     1      -0.936  10.709  18.234  0.00  0.00    +0.000 A 
ENDBRANCH   4  17
TORSDOF 2
ENDMDL
MODEL 6
REMARK VINA RESULT:      -7.9      3.032      7.875
REMARK  Name = 
REMARK  2 active torsions:
REMARK  status: ('A' for Active; 'I' for Inactive)
REMARK    1  A    between atoms: N_3  and  C_4
REMARK    2  A    between atoms: N_13  and  C_14
REMARK                            x       y       z     vdW  Elec       q    Type
REMARK                         _______ _______ _______ _____ _____    ______ ____
ROOT
ATOM      1  O   UNL     1       1.773   8.490  19.592  0.00  0.00    +0.000 OA
ATOM      2  C   UNL     1       1.822   8.678  18.383  0.00  0.00    +0.000 C 
ATOM      3  N   UNL     1       1.000   9.502  17.643  0.00  0.00    +0.000 N 
ATOM      4  N   UNL     1       2.724   8.019  17.578  0.00  0.00    +0.000 N 
ATOM      5  H   UNL     1       1.061   9.390  16.643  0.00  0.00    +0.000 HD
ATOM      6  H   UNL     1       2.934   8.403  16.669  0.00  0.00    +0.000 HD
ENDROOT
BRANCH   3   7
ATOM      7  C   UNL     1      -0.078  10.286  18.117  0.00  0.00    +0.000 A 
ATOM      8  C   UNL     1      -1.424  10.006  17.831  0.00  0.00    +0.000 A 
ATOM      9  C   UNL     1      -2.456  10.840  18.274  0.00  0.00    +0.000 A 
ATOM     10  C   UNL     1      -2.192  11.987  19.021  0.00  0.00    +0.000 A 
ATOM     11  C   UNL     1      -0.856  12.243  19.326  0.00  0.00    +0.000 A 
ATOM     12  N   UNL     1      -0.270  13.265  20.030  0.00  0.00    +0.000 N 
ATOM     13  N   UNL     1       1.066  13.163  20.138  0.00  0.00    +0.000 NA
ATOM     14  C   UNL     1       1.343  12.046  19.460  0.00  0.00    +0.000 A 
ATOM     15  C   UNL     1       0.194  11.424  18.913  0.00  0.00    +0.000 A 
ATOM     16  H   UNL     1      -0.728  14.062  20.457  0.00  0.00    +0.000 HD
ENDBRANCH   3   7
BRANCH   4  17
ATOM     17  C   UNL     1       3.675   7.082  18.139  0.00  0.00    +0.000 C 
ATOM     18  C   UNL     1       5.018   7.058  17.375  0.00  0.00    +0.000 C 
ATOM     19  C   UNL     1       5.183   5.687  16.693  0.00  0.00    +0.000 C 
ATOM     20  C   UNL     1       4.019   4.902  17.193  0.00  0.00    +0.000 A 
ATOM     21  C   UNL     1       3.725   3.574  16.925  0.00  0.00    +0.000 A 
ATOM     22  C   UNL     1       2.573   3.030  17.488  0.00  0.00    +0.000 A 
ATOM     23  F   UNL     1       2.264   1.750  17.239  0.00  0.00    +0.000 F 
ATOM     24  C   UNL     1       1.730   3.790  18.303  0.00  0.00    +0.000 A 
ATOM     25  C   UNL     1       2.033   5.126  18.567  0.00  0.00    +0.000 A 
ATOM     26  C   UNL     1       3.180   5.673  18.001  0.00  0.00    +0.000 A 
ENDBRANCH   4  17
TORSDOF 2
ENDMDL
MODEL 7
REMARK VINA RESULT:      -7.8      6.074      8.966
REMARK  Name = 
REMARK  2 active torsions:
REMARK  status: ('A' for Active; 'I' for Inactive)
REMARK    1  A    between atoms: N_3  and  C_4
REMARK    2  A    between atoms: N_13  and  C_14
REMARK                            x       y       z     vdW  Elec       q    Type
REMARK                         _______ _______ _______ _____ _____    ______ ____
ROOT
ATOM      1  O   UNL     1       8.545   7.378  18.759  0.00  0.00    +0.000 OA
ATOM      2  C   UNL     1       7.945   7.974  17.873  0.00  0.00    +0.000 C 
ATOM      3  N   UNL     1       7.943   9.335  17.650  0.00  0.00    +0.000 N 
ATOM      4  N   UNL     1       7.125   7.322  16.980  0.00  0.00    +0.000 N 
ATOM      5  H   UNL     1       7.247   9.667  17.000  0.00  0.00    +0.000 HD
ATOM      6  H   UNL     1       6.891   7.779  16.111  0.00  0.00    +0.000 HD
ENDROOT
BRANCH   3   7
ATOM      7  C   UNL     1       8.616  10.327  18.402  0.00  0.00    +0.000 A 
ATOM      8  C   UNL     1       9.497  10.035  19.457  0.00  0.00    +0.000 A 
ATOM      9  C   UNL     1      10.099  11.048  20.210  0.00  0.00    +0.000 A 
ATOM     10  C   UNL     1       9.849  12.395  19.947  0.00  0.00    +0.000 A 
ATOM     11  C   UNL     1       8.997  12.677  18.881  0.00  0.00    +0.000 A 
ATOM     12  N   UNL     1       8.556  13.872  18.369  0.00  0.00    +0.000 N 
ATOM     13  N   UNL     1       7.746  13.748  17.304  0.00  0.00    +0.000 NA
ATOM     14  C   UNL     1       7.650  12.426  17.144  0.00  0.00    +0.000 A 
ATOM     15  C   UNL     1       8.394  11.691  18.100  0.00  0.00    +0.000 A 
ATOM     16  H   UNL     1       8.771  14.804  18.706  0.00  0.00    +0.000 HD
ENDBRANCH   3   7
BRANCH   4  17
ATOM     17  C   UNL     1       6.955   5.884  17.039  0.00  0.00    +0.000 C 
ATOM     18  C   UNL     1       6.861   5.231  15.643  0.00  0.00    +0.000 C 
ATOM     19  C   UNL     1       5.446   4.654  15.454  0.00  0.00    +0.000 C 
ATOM     20  C   UNL     1       4.805   4.848  16.785  0.00  0.00    +0.000 A 
ATOM     21  C   UNL     1       3.534   4.447  17.171  0.00  0.00    +0.000 A 
ATOM     22  C   UNL     1       3.122   4.738  18.469  0.00  0.00    +0.000 A 
ATOM     23  F   UNL     1       1.896   4.366  18.865  0.00  0.00    +0.000 F 
ATOM     24  C   UNL     1       3.953   5.412  19.367  0.00  0.00    +0.000 A 
ATOM     25  C   UNL     1       5.230   5.813  18.970  0.00  0.00    +0.000 A 
ATOM     26  C   UNL     1       5.642   5.529  17.671  0.00  0.00    +0.000 A 
ENDBRANCH   4  17
TORSDOF 2
ENDMDL
MODEL 8
REMARK VINA RESULT:      -7.7      3.332      8.005
REMARK  Name = 
REMARK  2 active torsions:
REMARK  status: ('A' for Active; 'I' for Inactive)
REMARK    1  A    between atoms: N_3  and  C_4
REMARK    2  A    between atoms: N_13  and  C_14
REMARK                            x       y       z     vdW  Elec       q    Type
REMARK                         _______ _______ _______ _____ _____    ______ ____
ROOT
ATOM      1  O   UNL     1       1.890   7.883  21.569  0.00  0.00    +0.000 OA
ATOM      2  C   UNL     1       1.563   8.244  20.446  0.00  0.00    +0.000 C 
ATOM      3  N   UNL     1       0.679   9.254  20.128  0.00  0.00    +0.000 N 
ATOM      4  N   UNL     1       2.033   7.619  19.312  0.00  0.00    +0.000 N 
ATOM      5  H   UNL     1       0.385   9.286  19.164  0.00  0.00    +0.000 HD
ATOM      6  H   UNL     1       1.986   8.109  18.432  0.00  0.00    +0.000 HD
ENDROOT
BRANCH   3   7
ATOM      7  C   UNL     1      -0.046  10.070  21.028  0.00  0.00    +0.000 A 
ATOM      8  C   UNL     1      -0.261   9.738  22.376  0.00  0.00    +0.000 A 
ATOM      9  C   UNL     1      -1.031  10.548  23.216  0.00  0.00    +0.000 A 
ATOM     10  C   UNL     1      -1.620  11.723  22.752  0.00  0.00    +0.000 A 
ATOM     11  C   UNL     1      -1.379  12.062  21.422  0.00  0.00    +0.000 A 
ATOM     12  N   UNL     1      -1.801  13.130  20.670  0.00  0.00    +0.000 N 
ATOM     13  N   UNL     1      -1.340  13.131  19.408  0.00  0.00    +0.000 NA
ATOM     14  C   UNL     1      -0.614  12.012  19.346  0.00  0.00    +0.000 A 
ATOM     15  C   UNL     1      -0.603  11.285  20.562  0.00  0.00    +0.000 A 
ATOM     16  H   UNL     1      -2.407  13.888  20.963  0.00  0.00    +0.000 HD
ENDBRANCH   3   7
BRANCH   4  17
ATOM     17  C   UNL     1       2.961   6.510  19.405  0.00  0.00    +0.000 C 
ATOM     18  C   UNL     1       3.929   6.434  18.203  0.00  0.00    +0.000 C 
ATOM     19  C   UNL     1       3.626   5.157  17.396  0.00  0.00    +0.000 C 
ATOM     20  C   UNL     1       2.604   4.453  18.221  0.00  0.00    +0.000 A 
ATOM     21  C   UNL     1       2.029   3.216  17.969  0.00  0.00    +0.000 A 
ATOM     22  C   UNL     1       1.079   2.739  18.868  0.00  0.00    +0.000 A 
ATOM     23  F   UNL     1       0.505   1.549  18.644  0.00  0.00    +0.000 F 
ATOM     24  C   UNL     1       0.706   3.475  19.996  0.00  0.00    +0.000 A 
ATOM     25  C   UNL     1       1.288   4.719  20.241  0.00  0.00    +0.000 A 
ATOM     26  C   UNL     1       2.234   5.201  19.341  0.00  0.00    +0.000 A 
ENDBRANCH   4  17
TORSDOF 2
ENDMDL
MODEL 9
REMARK VINA RESULT:      -7.6      2.203      3.082
REMARK  Name = 
REMARK  2 active torsions:
REMARK  status: ('A' for Active; 'I' for Inactive)
REMARK    1  A    between atoms: N_3  and  C_4
REMARK    2  A    between atoms: N_13  and  C_14
REMARK                            x       y       z     vdW  Elec       q    Type
REMARK                         _______ _______ _______ _____ _____    ______ ____
ROOT
ATOM      1  O   UNL     1       1.820   7.184  17.770  0.00  0.00    +0.000 OA
ATOM      2  C   UNL     1       1.983   7.594  18.912  0.00  0.00    +0.000 C 
ATOM      3  N   UNL     1       2.298   6.839  20.023  0.00  0.00    +0.000 N 
ATOM      4  N   UNL     1       1.816   8.921  19.242  0.00  0.00    +0.000 N 
ATOM      5  H   UNL     1       2.207   7.312  20.909  0.00  0.00    +0.000 HD
ATOM      6  H   UNL     1       2.234   9.266  20.093  0.00  0.00    +0.000 HD
ENDROOT
BRANCH   3   7
ATOM      7  C   UNL     1       2.483   5.438  20.081  0.00  0.00    +0.000 A 
ATOM      8  C   UNL     1       1.498   4.544  20.532  0.00  0.00    +0.000 A 
ATOM      9  C   UNL     1       1.743   3.170  20.626  0.00  0.00    +0.000 A 
ATOM     10  C   UNL     1       2.978   2.627  20.274  0.00  0.00    +0.000 A 
ATOM     11  C   UNL     1       3.941   3.516  19.799  0.00  0.00    +0.000 A 
ATOM     12  N   UNL     1       5.231   3.310  19.377  0.00  0.00    +0.000 N 
ATOM     13  N   UNL     1       5.858   4.424  18.962  0.00  0.00    +0.000 NA
ATOM     14  C   UNL     1       4.942   5.378  19.146  0.00  0.00    +0.000 A 
ATOM     15  C   UNL     1       3.724   4.889  19.679  0.00  0.00    +0.000 A 
ATOM     16  H   UNL     1       5.738   2.433  19.352  0.00  0.00    +0.000 HD
ENDBRANCH   3   7
BRANCH   4  17
ATOM     17  C   UNL     1       1.459   9.898  18.234  0.00  0.00    +0.000 C 
ATOM     18  C   UNL     1       2.604  10.887  17.922  0.00  0.00    +0.000 C 
ATOM     19  C   UNL     1       2.190  12.296  18.385  0.00  0.00    +0.000 C 
ATOM     20  C   UNL     1       0.772  12.125  18.812  0.00  0.00    +0.000 A 
ATOM     21  C   UNL     1      -0.092  13.110  19.265  0.00  0.00    +0.000 A 
ATOM     22  C   UNL     1      -1.383  12.733  19.627  0.00  0.00    +0.000 A 
ATOM     23  F   UNL     1      -2.236  13.666  20.073  0.00  0.00    +0.000 F 
ATOM     24  C   UNL     1      -1.809  11.406  19.539  0.00  0.00    +0.000 A 
ATOM     25  C   UNL     1      -0.932  10.420  19.082  0.00  0.00    +0.000 A 
ATOM     26  C   UNL     1       0.361  10.793  18.727  0.00  0.00    +0.000 A 
ENDBRANCH   4  17
TORSDOF 2
ENDMDL
