MODEL 1
REMARK VINA RESULT:      -6.7      0.000      0.000
REMARK  Name = 
REMARK  4 active torsions:
REMARK  status: ('A' for Active; 'I' for Inactive)
REMARK    1  A    between atoms: C_3  and  C_4
REMARK    2  A    between atoms: N_9  and  C_10
REMARK    3  A    between atoms: C_13  and  C_14
REMARK    4  A    between atoms: N_19  and  C_20
REMARK                            x       y       z     vdW  Elec       q    Type
REMARK                         _______ _______ _______ _____ _____    ______ ____
ROOT
ATOM      1  C   UNL     1       5.590   7.011  17.042  0.00  0.00    +0.000 C 
ATOM      2  C   UNL     1       4.406   6.646  17.479  0.00  0.00    +0.000 C 
ATOM      3  C   UNL     1       3.359   5.723  17.298  0.00  0.00    +0.000 C 
ATOM      4  C   UNL     1       3.399   6.940  18.416  0.00  0.00    +0.000 C 
ENDROOT
BRANCH   3   5
ATOM      5  C   UNL     1       3.544   4.327  17.789  0.00  0.00    +0.000 C 
ATOM      6  O   UNL     1       4.102   3.517  17.062  0.00  0.00    +0.000 OA
ATOM      7  N   UNL     1       3.136   4.007  19.090  0.00  0.00    +0.000 N 
ATOM      8  C   UNL     1       3.355   2.625  19.537  0.00  0.00    +0.000 C 
ATOM      9  C   UNL     1       3.437   2.480  21.070  0.00  0.00    +0.000 C 
ATOM     10  N   UNL     1       2.364   3.157  21.827  0.00  0.00    +0.000 NA
ATOM     11  C   UNL     1       1.095   2.437  21.728  0.00  0.00    +0.000 C 
ATOM     12  C   UNL     1       2.242   4.554  21.360  0.00  0.00    +0.000 C 
ATOM     13  C   UNL     1       2.085   4.713  19.831  0.00  0.00    +0.000 C 
ENDBRANCH   3   5
BRANCH   4  14
ATOM     14  C   UNL     1       2.531   8.130  18.183  0.00  0.00    +0.000 C 
ATOM     15  O   UNL     1       2.588   8.697  17.096  0.00  0.00    +0.000 OA
ATOM     16  N   UNL     1       1.653   8.546  19.195  0.00  0.00    +0.000 N 
ATOM     17  C   UNL     1       0.857   9.755  18.943  0.00  0.00    +0.000 C 
ATOM     18  C   UNL     1      -0.455   9.816  19.760  0.00  0.00    +0.000 C 
ATOM     19  N   UNL     1      -0.332   9.485  21.195  0.00  0.00    +0.000 NA
ATOM     20  C   UNL     1       0.288  10.569  21.954  0.00  0.00    +0.000 C 
ATOM     21  C   UNL     1       0.413   8.217  21.336  0.00  0.00    +0.000 C 
ATOM     22  C   UNL     1       1.782   8.196  20.613  0.00  0.00    +0.000 C 
ENDBRANCH   4  14
TORSDOF 2
ENDMDL
MODEL 2
REMARK VINA RESULT:      -6.6      0.157      5.585
REMARK  Name = 
REMARK  4 active torsions:
REMARK  status: ('A' for Active; 'I' for Inactive)
REMARK    1  A    between atoms: C_3  and  C_4
REMARK    2  A    between atoms: N_9  and  C_10
REMARK    3  A    between atoms: C_13  and  C_14
REMARK    4  A    between atoms: N_19  and  C_20
REMARK                            x       y       z     vdW  Elec       q    Type
REMARK                         _______ _______ _______ _____ _____    ______ ____
ROOT
ATOM      1  C   UNL     1       5.732   7.045  17.059  0.00  0.00    +0.000 C 
ATOM      2  C   UNL     1       4.546   6.672  17.483  0.00  0.00    +0.000 C 
ATOM      3  C   UNL     1       3.516   6.969  18.396  0.00  0.00    +0.000 C 
ATOM      4  C   UNL     1       3.521   5.724  17.308  0.00  0.00    +0.000 C 
ENDROOT
BRANCH   3   5
ATOM      5  C   UNL     1       2.624   8.130  18.113  0.00  0.00    +0.000 C 
ATOM      6  O   UNL     1       2.671   8.652  17.009  0.00  0.00    +0.000 OA
ATOM      7  N   UNL     1       1.713   8.539  19.096  0.00  0.00    +0.000 N 
ATOM      8  C   UNL     1       0.842   9.676  18.766  0.00  0.00    +0.000 C 
ATOM      9  C   UNL     1      -0.463   9.708  19.586  0.00  0.00    +0.000 C 
ATOM     10  N   UNL     1      -0.298   9.525  21.043  0.00  0.00    +0.000 NA
ATOM     11  C   UNL     1       0.248  10.721  21.681  0.00  0.00    +0.000 C 
ATOM     12  C   UNL     1       0.541   8.335  21.295  0.00  0.00    +0.000 C 
ATOM     13  C   UNL     1       1.887   8.321  20.536  0.00  0.00    +0.000 C 
ENDBRANCH   3   5
BRANCH   4  14
ATOM     14  C   UNL     1       3.729   4.342  17.830  0.00  0.00    +0.000 C 
ATOM     15  O   UNL     1       4.357   3.542  17.143  0.00  0.00    +0.000 OA
ATOM     16  N   UNL     1       3.234   4.008  19.099  0.00  0.00    +0.000 N 
ATOM     17  C   UNL     1       3.413   2.621  19.549  0.00  0.00    +0.000 C 
ATOM     18  C   UNL     1       3.416   2.463  21.088  0.00  0.00    +0.000 C 
ATOM     19  N   UNL     1       2.340   3.177  21.807  0.00  0.00    +0.000 NA
ATOM     20  C   UNL     1       1.049   2.510  21.658  0.00  0.00    +0.000 C 
ATOM     21  C   UNL     1       2.294   4.577  21.340  0.00  0.00    +0.000 C 
ATOM     22  C   UNL     1       2.175   4.736  19.805  0.00  0.00    +0.000 C 
ENDBRANCH   4  14
TORSDOF 2
ENDMDL
MODEL 3
REMARK VINA RESULT:      -6.3      3.065      7.731
REMARK  Name = 
REMARK  4 active torsions:
REMARK  status: ('A' for Active; 'I' for Inactive)
REMARK    1  A    between atoms: C_3  and  C_4
REMARK    2  A    between atoms: N_9  and  C_10
REMARK    3  A    between atoms: C_13  and  C_14
REMARK    4  A    between atoms: N_19  and  C_20
REMARK                            x       y       z     vdW  Elec       q    Type
REMARK                         _______ _______ _______ _____ _____    ______ ____
ROOT
ATOM      1  C   UNL     1      -0.482   8.205  21.576  0.00  0.00    +0.000 C 
ATOM      2  C   UNL     1       0.412   8.842  20.854  0.00  0.00    +0.000 C 
ATOM      3  C   UNL     1       0.650  10.009  20.103  0.00  0.00    +0.000 C 
ATOM      4  C   UNL     1       1.723   8.776  20.348  0.00  0.00    +0.000 C 
ENDROOT
BRANCH   3   5
ATOM      5  C   UNL     1       0.890  11.289  20.830  0.00  0.00    +0.000 C 
ATOM      6  O   UNL     1       0.524  11.382  21.993  0.00  0.00    +0.000 OA
ATOM      7  N   UNL     1       1.588  12.315  20.181  0.00  0.00    +0.000 N 
ATOM      8  C   UNL     1       1.818  13.551  20.943  0.00  0.00    +0.000 C 
ATOM      9  C   UNL     1       3.025  14.368  20.440  0.00  0.00    +0.000 C 
ATOM     10  N   UNL     1       3.076  14.584  18.979  0.00  0.00    +0.000 NA
ATOM     11  C   UNL     1       2.097  15.579  18.545  0.00  0.00    +0.000 C 
ATOM     12  C   UNL     1       2.894  13.292  18.286  0.00  0.00    +0.000 C 
ATOM     13  C   UNL     1       1.646  12.494  18.726  0.00  0.00    +0.000 C 
ENDBRANCH   3   5
BRANCH   4  14
ATOM     14  C   UNL     1       2.004   7.858  19.206  0.00  0.00    +0.000 C 
ATOM     15  O   UNL     1       2.114   8.336  18.081  0.00  0.00    +0.000 OA
ATOM     16  N   UNL     1       2.169   6.488  19.454  0.00  0.00    +0.000 N 
ATOM     17  C   UNL     1       2.390   5.614  18.294  0.00  0.00    +0.000 C 
ATOM     18  C   UNL     1       3.138   4.304  18.636  0.00  0.00    +0.000 C 
ATOM     19  N   UNL     1       2.649   3.580  19.828  0.00  0.00    +0.000 NA
ATOM     20  C   UNL     1       1.387   2.890  19.568  0.00  0.00    +0.000 C 
ATOM     21  C   UNL     1       2.536   4.528  20.956  0.00  0.00    +0.000 C 
ATOM     22  C   UNL     1       1.690   5.788  20.650  0.00  0.00    +0.000 C 
ENDBRANCH   4  14
TORSDOF 2
ENDMDL
MODEL 4
REMARK VINA RESULT:      -6.3      3.051      4.719
REMARK  Name = 
REMARK  4 active torsions:
REMARK  status: ('A' for Active; 'I' for Inactive)
REMARK    1  A    between atoms: C_3  and  C_4
REMARK    2  A    between atoms: N_9  and  C_10
REMARK    3  A    between atoms: C_13  and  C_14
REMARK    4  A    between atoms: N_19  and  C_20
REMARK                            x       y       z     vdW  Elec       q    Type
REMARK                         _______ _______ _______ _____ _____    ______ ____
ROOT
ATOM      1  C   UNL     1      -0.467   8.187  21.567  0.00  0.00    +0.000 C 
ATOM      2  C   UNL     1       0.415   8.835  20.840  0.00  0.00    +0.000 C 
ATOM      3  C   UNL     1       1.720   8.778  20.313  0.00  0.00    +0.000 C 
ATOM      4  C   UNL     1       0.643  10.016  20.111  0.00  0.00    +0.000 C 
ENDROOT
BRANCH   3   5
ATOM      5  C   UNL     1       1.979   7.890  19.143  0.00  0.00    +0.000 C 
ATOM      6  O   UNL     1       2.024   8.386  18.027  0.00  0.00    +0.000 OA
ATOM      7  N   UNL     1       2.232   6.531  19.368  0.00  0.00    +0.000 N 
ATOM      8  C   UNL     1       2.501   5.698  18.187  0.00  0.00    +0.000 C 
ATOM      9  C   UNL     1       3.308   4.424  18.505  0.00  0.00    +0.000 C 
ATOM     10  N   UNL     1       2.818   3.636  19.654  0.00  0.00    +0.000 NA
ATOM     11  C   UNL     1       1.599   2.899  19.326  0.00  0.00    +0.000 C 
ATOM     12  C   UNL     1       2.626   4.530  20.815  0.00  0.00    +0.000 C 
ATOM     13  C   UNL     1       1.756   5.776  20.533  0.00  0.00    +0.000 C 
ENDBRANCH   3   5
BRANCH   4  14
ATOM     14  C   UNL     1       0.887  11.283  20.860  0.00  0.00    +0.000 C 
ATOM     15  O   UNL     1       0.541  11.347  22.036  0.00  0.00    +0.000 OA
ATOM     16  N   UNL     1       1.533  12.346  20.213  0.00  0.00    +0.000 N 
ATOM     17  C   UNL     1       1.703  13.593  20.972  0.00  0.00    +0.000 C 
ATOM     18  C   UNL     1       2.887  14.461  20.482  0.00  0.00    +0.000 C 
ATOM     19  N   UNL     1       2.981  14.648  19.019  0.00  0.00    +0.000 NA
ATOM     20  C   UNL     1       1.978  15.588  18.524  0.00  0.00    +0.000 C 
ATOM     21  C   UNL     1       2.878  13.333  18.356  0.00  0.00    +0.000 C 
ATOM     22  C   UNL     1       1.630  12.509  18.759  0.00  0.00    +0.000 C 
ENDBRANCH   4  14
TORSDOF 2
ENDMDL
MODEL 5
REMARK VINA RESULT:      -6.2      1.877      2.614
REMARK  Name = 
REMARK  4 active torsions:
REMARK  status: ('A' for Active; 'I' for Inactive)
REMARK    1  A    between atoms: C_3  and  C_4
REMARK    2  A    between atoms: N_9  and  C_10
REMARK    3  A    between atoms: C_13  and  C_14
REMARK    4  A    between atoms: N_19  and  C_20
REMARK                            x       y       z     vdW  Elec       q    Type
REMARK                         _______ _______ _______ _____ _____    ______ ____
ROOT
ATOM      1  C   UNL     1       4.081   7.307  17.380  0.00  0.00    +0.000 C 
ATOM      2  C   UNL     1       3.033   7.428  18.163  0.00  0.00    +0.000 C 
ATOM      3  C   UNL     1       1.874   6.776  18.624  0.00  0.00    +0.000 C 
ATOM      4  C   UNL     1       2.373   8.292  19.055  0.00  0.00    +0.000 C 
ENDROOT
BRANCH   3   5
ATOM      5  C   UNL     1       2.020   5.687  19.633  0.00  0.00    +0.000 C 
ATOM      6  O   UNL     1       1.903   5.964  20.818  0.00  0.00    +0.000 OA
ATOM      7  N   UNL     1       2.218   4.374  19.188  0.00  0.00    +0.000 N 
ATOM      8  C   UNL     1       2.338   3.332  20.217  0.00  0.00    +0.000 C 
ATOM      9  C   UNL     1       1.978   1.921  19.708  0.00  0.00    +0.000 C 
ATOM     10  N   UNL     1       2.608   1.531  18.430  0.00  0.00    +0.000 NA
ATOM     11  C   UNL     1       4.025   1.215  18.599  0.00  0.00    +0.000 C 
ATOM     12  C   UNL     1       2.397   2.601  17.433  0.00  0.00    +0.000 C 
ATOM     13  C   UNL     1       2.822   4.012  17.901  0.00  0.00    +0.000 C 
ENDBRANCH   3   5
BRANCH   4  14
ATOM     14  C   UNL     1       1.625   9.457  18.501  0.00  0.00    +0.000 C 
ATOM     15  O   UNL     1       1.765   9.735  17.314  0.00  0.00    +0.000 OA
ATOM     16  N   UNL     1       0.761  10.176  19.339  0.00  0.00    +0.000 N 
ATOM     17  C   UNL     1       0.087  11.349  18.766  0.00  0.00    +0.000 C 
ATOM     18  C   UNL     1      -1.237  11.715  19.478  0.00  0.00    +0.000 C 
ATOM     19  N   UNL     1      -1.185  11.734  20.955  0.00  0.00    +0.000 NA
ATOM     20  C   UNL     1      -0.489  12.915  21.461  0.00  0.00    +0.000 C 
ATOM     21  C   UNL     1      -0.564  10.482  21.433  0.00  0.00    +0.000 C 
ATOM     22  C   UNL     1       0.818  10.173  20.804  0.00  0.00    +0.000 C 
ENDBRANCH   4  14
TORSDOF 2
ENDMDL
MODEL 6
REMARK VINA RESULT:      -6.1      2.854      5.071
REMARK  Name = 
REMARK  4 active torsions:
REMARK  status: ('A' for Active; 'I' for Inactive)
REMARK    1  A    between atoms: C_3  and  C_4
REMARK    2  A    between atoms: N_9  and  C_10
REMARK    3  A    between atoms: C_13  and  C_14
REMARK    4  A    between atoms: N_19  and  C_20
REMARK                            x       y       z     vdW  Elec       q    Type
REMARK                         _______ _______ _______ _____ _____    ______ ____
ROOT
ATOM      1  C   UNL     1      -1.093  10.043  18.050  0.00  0.00    +0.000 C 
ATOM      2  C   UNL     1       0.046  10.044  18.705  0.00  0.00    +0.000 C 
ATOM      3  C   UNL     1       1.098   9.229  19.163  0.00  0.00    +0.000 C 
ATOM      4  C   UNL     1       0.965  10.861  19.388  0.00  0.00    +0.000 C 
ENDROOT
BRANCH   3   5
ATOM      5  C   UNL     1       2.109   8.747  18.178  0.00  0.00    +0.000 C 
ATOM      6  O   UNL     1       2.360   9.444  17.205  0.00  0.00    +0.000 OA
ATOM      7  N   UNL     1       2.787   7.548  18.434  0.00  0.00    +0.000 N 
ATOM      8  C   UNL     1       3.787   7.123  17.445  0.00  0.00    +0.000 C 
ATOM      9  C   UNL     1       4.860   6.178  18.023  0.00  0.00    +0.000 C 
ATOM     10  N   UNL     1       4.343   5.052  18.827  0.00  0.00    +0.000 NA
ATOM     11  C   UNL     1       3.744   4.017  17.986  0.00  0.00    +0.000 C 
ATOM     12  C   UNL     1       3.389   5.565  19.832  0.00  0.00    +0.000 C 
ATOM     13  C   UNL     1       2.263   6.455  19.259  0.00  0.00    +0.000 C 
ENDBRANCH   3   5
BRANCH   4  14
ATOM     14  C   UNL     1       0.611  11.351  20.751  0.00  0.00    +0.000 C 
ATOM     15  O   UNL     1       0.945  10.680  21.723  0.00  0.00    +0.000 OA
ATOM     16  N   UNL     1      -0.057  12.577  20.886  0.00  0.00    +0.000 N 
ATOM     17  C   UNL     1      -0.434  12.994  22.243  0.00  0.00    +0.000 C 
ATOM     18  C   UNL     1      -0.595  14.525  22.400  0.00  0.00    +0.000 C 
ATOM     19  N   UNL     1      -1.378  15.198  21.343  0.00  0.00    +0.000 NA
ATOM     20  C   UNL     1      -2.811  14.949  21.483  0.00  0.00    +0.000 C 
ATOM     21  C   UNL     1      -0.871  14.773  20.022  0.00  0.00    +0.000 C 
ATOM     22  C   UNL     1      -0.818  13.238  19.821  0.00  0.00    +0.000 C 
ENDBRANCH   4  14
TORSDOF 2
ENDMDL
MODEL 7
REMARK VINA RESULT:      -6.1      1.882      6.876
REMARK  Name = 
REMARK  4 active torsions:
REMARK  status: ('A' for Active; 'I' for Inactive)
REMARK    1  A    between atoms: C_3  and  C_4
REMARK    2  A    between atoms: N_9  and  C_10
REMARK    3  A    between atoms: C_13  and  C_14
REMARK    4  A    between atoms: N_19  and  C_20
REMARK                            x       y       z     vdW  Elec       q    Type
REMARK                         _______ _______ _______ _____ _____    ______ ____
ROOT
ATOM      1  C   UNL     1       4.081   7.288  17.423  0.00  0.00    +0.000 C 
ATOM      2  C   UNL     1       3.022   7.428  18.188  0.00  0.00    +0.000 C 
ATOM      3  C   UNL     1       2.358   8.305  19.066  0.00  0.00    +0.000 C 
ATOM      4  C   UNL     1       1.853   6.789  18.640  0.00  0.00    +0.000 C 
ENDROOT
BRANCH   3   5
ATOM      5  C   UNL     1       1.619   9.466  18.491  0.00  0.00    +0.000 C 
ATOM      6  O   UNL     1       1.783   9.742  17.312  0.00  0.00    +0.000 OA
ATOM      7  N   UNL     1       0.710  10.159  19.302  0.00  0.00    +0.000 N 
ATOM      8  C   UNL     1      -0.008  11.284  18.688  0.00  0.00    +0.000 C 
ATOM      9  C   UNL     1      -1.343  11.615  19.386  0.00  0.00    +0.000 C 
ATOM     10  N   UNL     1      -1.276  11.721  20.858  0.00  0.00    +0.000 NA
ATOM     11  C   UNL     1      -0.633  12.962  21.284  0.00  0.00    +0.000 C 
ATOM     12  C   UNL     1      -0.593  10.530  21.404  0.00  0.00    +0.000 C 
ATOM     13  C   UNL     1       0.782  10.226  20.766  0.00  0.00    +0.000 C 
ENDBRANCH   3   5
BRANCH   4  14
ATOM     14  C   UNL     1       1.978   5.702  19.653  0.00  0.00    +0.000 C 
ATOM     15  O   UNL     1       1.841   5.984  20.839  0.00  0.00    +0.000 OA
ATOM     16  N   UNL     1       2.210   4.388  19.221  0.00  0.00    +0.000 N 
ATOM     17  C   UNL     1       2.380   3.358  20.255  0.00  0.00    +0.000 C 
ATOM     18  C   UNL     1       2.032   1.930  19.772  0.00  0.00    +0.000 C 
ATOM     19  N   UNL     1       2.595   1.542  18.463  0.00  0.00    +0.000 NA
ATOM     20  C   UNL     1       4.026   1.255  18.547  0.00  0.00    +0.000 C 
ATOM     21  C   UNL     1       2.304   2.603  17.478  0.00  0.00    +0.000 C 
ATOM     22  C   UNL     1       2.756   4.020  17.911  0.00  0.00    +0.000 C 
ENDBRANCH   4  14
TORSDOF 2
ENDMDL
MODEL 8
REMARK VINA RESULT:      -6.1      2.811      7.939
REMARK  Name = 
REMARK  4 active torsions:
REMARK  status: ('A' for Active; 'I' for Inactive)
REMARK    1  A    between atoms: C_3  and  C_4
REMARK    2  A    between atoms: N_9  and  C_10
REMARK    3  A    between atoms: C_13  and  C_14
REMARK    4  A    between atoms: N_19  and  C_20
REMARK                            x       y       z     vdW  Elec       q    Type
REMARK                         _______ _______ _______ _____ _____    ______ ____
ROOT
ATOM      1  C   UNL     1      -1.194  10.101  18.151  0.00  0.00    +0.000 C 
ATOM      2  C   UNL     1      -0.071  10.082  18.832  0.00  0.00    +0.000 C 
ATOM      3  C   UNL     1       0.817  10.870  19.590  0.00  0.00    +0.000 C 
ATOM      4  C   UNL     1       0.992   9.261  19.252  0.00  0.00    +0.000 C 
ENDROOT
BRANCH   3   5
ATOM      5  C   UNL     1       0.430  11.246  20.980  0.00  0.00    +0.000 C 
ATOM      6  O   UNL     1       0.796  10.535  21.905  0.00  0.00    +0.000 OA
ATOM      7  N   UNL     1      -0.281  12.435  21.187  0.00  0.00    +0.000 N 
ATOM      8  C   UNL     1      -0.624  12.774  22.575  0.00  0.00    +0.000 C 
ATOM      9  C   UNL     1      -0.862  14.281  22.799  0.00  0.00    +0.000 C 
ATOM     10  N   UNL     1      -1.755  14.932  21.819  0.00  0.00    +0.000 NA
ATOM     11  C   UNL     1      -3.156  14.578  22.044  0.00  0.00    +0.000 C 
ATOM     12  C   UNL     1      -1.313  14.590  20.451  0.00  0.00    +0.000 C 
ATOM     13  C   UNL     1      -1.141  13.077  20.187  0.00  0.00    +0.000 C 
ENDBRANCH   3   5
BRANCH   4  14
ATOM     14  C   UNL     1       2.027   8.866  18.254  0.00  0.00    +0.000 C 
ATOM     15  O   UNL     1       2.272   9.632  17.326  0.00  0.00    +0.000 OA
ATOM     16  N   UNL     1       2.714   7.655  18.422  0.00  0.00    +0.000 N 
ATOM     17  C   UNL     1       3.685   7.281  17.386  0.00  0.00    +0.000 C 
ATOM     18  C   UNL     1       4.791   6.322  17.889  0.00  0.00    +0.000 C 
ATOM     19  N   UNL     1       4.326   5.176  18.696  0.00  0.00    +0.000 NA
ATOM     20  C   UNL     1       3.695   4.148  17.871  0.00  0.00    +0.000 C 
ATOM     21  C   UNL     1       3.420   5.666  19.754  0.00  0.00    +0.000 C 
ATOM     22  C   UNL     1       2.244   6.532  19.239  0.00  0.00    +0.000 C 
ENDBRANCH   4  14
TORSDOF 2
ENDMDL
MODEL 9
REMARK VINA RESULT:      -6.0      2.783      4.323
REMARK  Name = 
REMARK  4 active torsions:
REMARK  status: ('A' for Active; 'I' for Inactive)
REMARK    1  A    between atoms: C_3  and  C_4
REMARK    2  A    between atoms: N_9  and  C_10
REMARK    3  A    between atoms: C_13  and  C_14
REMARK    4  A    between atoms: N_19  and  C_20
REMARK                            x       y       z     vdW  Elec       q    Type
REMARK                         _______ _______ _______ _____ _____    ______ ____
ROOT
ATOM      1  C   UNL     1       1.401   7.852  20.776  0.00  0.00    +0.000 C 
ATOM      2  C   UNL     1       1.823   8.044  19.547  0.00  0.00    +0.000 C 
ATOM      3  C   UNL     1       2.882   7.792  18.653  0.00  0.00    +0.000 C 
ATOM      4  C   UNL     1       1.500   8.632  18.311  0.00  0.00    +0.000 C 
ENDROOT
BRANCH   3   5
ATOM      5  C   UNL     1       3.019   6.423  18.077  0.00  0.00    +0.000 C 
ATOM      6  O   UNL     1       2.061   5.666  18.123  0.00  0.00    +0.000 OA
ATOM      7  N   UNL     1       4.218   6.074  17.440  0.00  0.00    +0.000 N 
ATOM      8  C   UNL     1       4.301   4.722  16.871  0.00  0.00    +0.000 C 
ATOM      9  C   UNL     1       5.337   4.595  15.735  0.00  0.00    +0.000 C 
ATOM     10  N   UNL     1       6.666   5.171  16.027  0.00  0.00    +0.000 NA
ATOM     11  C   UNL     1       7.429   4.332  16.949  0.00  0.00    +0.000 C 
ATOM     12  C   UNL     1       6.502   6.547  16.540  0.00  0.00    +0.000 C 
ATOM     13  C   UNL     1       5.522   6.680  17.728  0.00  0.00    +0.000 C 
ENDBRANCH   3   5
BRANCH   4  14
ATOM     14  C   UNL     1       1.599  10.114  18.176  0.00  0.00    +0.000 C 
ATOM     15  O   UNL     1       2.607  10.592  17.664  0.00  0.00    +0.000 OA
ATOM     16  N   UNL     1       0.529  10.913  18.603  0.00  0.00    +0.000 N 
ATOM     17  C   UNL     1       0.692  12.370  18.502  0.00  0.00    +0.000 C 
ATOM     18  C   UNL     1      -0.646  13.139  18.401  0.00  0.00    +0.000 C 
ATOM     19  N   UNL     1      -1.692  12.734  19.363  0.00  0.00    +0.000 NA
ATOM     20  C   UNL     1      -1.415  13.226  20.710  0.00  0.00    +0.000 C 
ATOM     21  C   UNL     1      -1.833  11.264  19.332  0.00  0.00    +0.000 C 
ATOM     22  C   UNL     1      -0.509  10.490  19.548  0.00  0.00    +0.000 C 
ENDBRANCH   4  14
TORSDOF 2
ENDMDL
