MODEL 1
REMARK VINA RESULT:      -9.4      0.000      0.000
REMARK  Name = 
REMARK  6 active torsions:
REMARK  status: ('A' for Active; 'I' for Inactive)
REMARK    1  A    between atoms: C_1  and  C_2
REMARK    2  A    between atoms: C_3  and  C_4
REMARK    3  A    between atoms: C_7  and  C_8
REMARK    4  A    between atoms: C_8  and  C_9
REMARK    5  A    between atoms: C_12  and  O_13
REMARK    6  A    between atoms: O_13  and  C_14
REMARK                            x       y       z     vdW  Elec       q    Type
REMARK                         _______ _______ _______ _____ _____    ______ ____
ROOT
ATOM      1  C   UNL     1       2.506   7.462  18.475  0.00  0.00    +0.000 A 
ATOM      2  C   UNL     1       2.123   8.552  17.687  0.00  0.00    +0.000 A 
ATOM      3  C   UNL     1       1.353   9.581  18.237  0.00  0.00    +0.000 A 
ATOM      4  C   UNL     1       0.959   9.535  19.582  0.00  0.00    +0.000 A 
ATOM      5  C   UNL     1       1.345   8.439  20.366  0.00  0.00    +0.000 A 
ATOM      6  C   UNL     1       2.115   7.411  19.817  0.00  0.00    +0.000 A 
ENDROOT
BRANCH   1   9
ATOM      7  C   UNL     1       1.619   4.551  18.714  0.00  0.00    +0.000 C 
ATOM      8  C   UNL     1       2.842   5.056  18.013  0.00  0.00    +0.000 A 
ATOM      9  C   UNL     1       3.254   6.338  17.887  0.00  0.00    +0.000 A 
ATOM     10  N   UNL     1       4.375   6.702  17.189  0.00  0.00    +0.000 N 
ATOM     11  C   UNL     1       5.138   5.796  16.464  0.00  0.00    +0.000 A 
ATOM     12  N   UNL     1       6.149   6.279  15.708  0.00  0.00    +0.000 NA
ATOM     13  C   UNL     1       6.868   5.381  14.995  0.00  0.00    +0.000 A 
ATOM     14  C   UNL     1       6.633   4.015  15.006  0.00  0.00    +0.000 A 
ATOM     15  C   UNL     1       5.596   3.532  15.795  0.00  0.00    +0.000 A 
ATOM     16  C   UNL     1       4.835   4.439  16.530  0.00  0.00    +0.000 A 
ATOM     17  C   UNL     1       3.691   4.006  17.356  0.00  0.00    +0.000 A 
ATOM     18  O   UNL     1       3.438   2.812  17.484  0.00  0.00    +0.000 OA
ATOM     19  H   UNL     1       4.617   7.676  17.078  0.00  0.00    +0.000 HD
ENDBRANCH   1   9
BRANCH   4  20
ATOM     20  C   UNL     1       0.157  10.661  20.186  0.00  0.00    +0.000 C 
BRANCH  20  21
ATOM     21  C   UNL     1      -1.139  10.993  19.482  0.00  0.00    +0.000 A 
ATOM     22  C   UNL     1      -1.614  10.194  18.435  0.00  0.00    +0.000 A 
ATOM     23  C   UNL     1      -2.882  10.421  17.893  0.00  0.00    +0.000 A 
ATOM     24  C   UNL     1      -3.693  11.448  18.383  0.00  0.00    +0.000 A 
ATOM     25  C   UNL     1      -3.177  12.316  19.342  0.00  0.00    +0.000 A 
ATOM     26  C   UNL     1      -1.916  12.081  19.899  0.00  0.00    +0.000 A 
BRANCH  24  27
ATOM     27  O   UNL     1      -4.924  11.544  17.813  0.00  0.00    +0.000 OA
BRANCH  27  28
ATOM     28  C   UNL     1      -6.064  11.107  18.548  0.00  0.00    +0.000 C 
ATOM     29  F   UNL     1      -6.210  11.683  19.758  0.00  0.00    +0.000 F 
ATOM     30  F   UNL     1      -7.175  11.351  17.819  0.00  0.00    +0.000 F 
ATOM     31  F   UNL     1      -5.973   9.770  18.736  0.00  0.00    +0.000 F 
ENDBRANCH  27  28
ENDBRANCH  24  27
ENDBRANCH  20  21
ENDBRANCH   4  20
TORSDOF 5
ENDMDL
MODEL 2
REMARK VINA RESULT:      -9.2      5.272      9.894
REMARK  Name = 
REMARK  6 active torsions:
REMARK  status: ('A' for Active; 'I' for Inactive)
REMARK    1  A    between atoms: C_1  and  C_2
REMARK    2  A    between atoms: C_3  and  C_4
REMARK    3  A    between atoms: C_7  and  C_8
REMARK    4  A    between atoms: C_8  and  C_9
REMARK    5  A    between atoms: C_12  and  O_13
REMARK    6  A    between atoms: O_13  and  C_14
REMARK                            x       y       z     vdW  Elec       q    Type
REMARK                         _______ _______ _______ _____ _____    ______ ____
ROOT
ATOM      1  C   UNL     1       1.415   9.338  19.098  0.00  0.00    +0.000 A 
ATOM      2  C   UNL     1       1.347   8.723  20.352  0.00  0.00    +0.000 A 
ATOM      3  C   UNL     1       1.806   7.413  20.518  0.00  0.00    +0.000 A 
ATOM      4  C   UNL     1       2.341   6.702  19.435  0.00  0.00    +0.000 A 
ATOM      5  C   UNL     1       2.406   7.324  18.180  0.00  0.00    +0.000 A 
ATOM      6  C   UNL     1       1.948   8.633  18.013  0.00  0.00    +0.000 A 
ENDROOT
BRANCH   1   9
ATOM      7  C   UNL     1      -1.531   9.883  18.518  0.00  0.00    +0.000 C 
ATOM      8  C   UNL     1      -0.441  10.903  18.633  0.00  0.00    +0.000 A 
ATOM      9  C   UNL     1       0.868  10.689  18.894  0.00  0.00    +0.000 A 
ATOM     10  N   UNL     1       1.784  11.700  19.017  0.00  0.00    +0.000 N 
ATOM     11  C   UNL     1       1.434  13.044  18.980  0.00  0.00    +0.000 A 
ATOM     12  N   UNL     1       2.394  13.958  19.239  0.00  0.00    +0.000 NA
ATOM     13  C   UNL     1       2.027  15.260  19.217  0.00  0.00    +0.000 A 
ATOM     14  C   UNL     1       0.742  15.699  18.937  0.00  0.00    +0.000 A 
ATOM     15  C   UNL     1      -0.234  14.747  18.665  0.00  0.00    +0.000 A 
ATOM     16  C   UNL     1       0.119  13.400  18.693  0.00  0.00    +0.000 A 
ATOM     17  C   UNL     1      -0.871  12.331  18.457  0.00  0.00    +0.000 A 
ATOM     18  O   UNL     1      -2.023  12.615  18.139  0.00  0.00    +0.000 OA
ATOM     19  H   UNL     1       2.742  11.498  19.264  0.00  0.00    +0.000 HD
ENDBRANCH   1   9
BRANCH   4  20
ATOM     20  C   UNL     1       2.868   5.301  19.621  0.00  0.00    +0.000 C 
BRANCH  20  21
ATOM     21  C   UNL     1       3.978   4.888  18.681  0.00  0.00    +0.000 A 
ATOM     22  C   UNL     1       3.725   4.035  17.600  0.00  0.00    +0.000 A 
ATOM     23  C   UNL     1       4.722   3.781  16.653  0.00  0.00    +0.000 A 
ATOM     24  C   UNL     1       5.983   4.369  16.772  0.00  0.00    +0.000 A 
ATOM     25  C   UNL     1       6.273   5.123  17.906  0.00  0.00    +0.000 A 
ATOM     26  C   UNL     1       5.273   5.394  18.845  0.00  0.00    +0.000 A 
BRANCH  24  27
ATOM     27  O   UNL     1       6.856   4.088  15.766  0.00  0.00    +0.000 OA
BRANCH  27  28
ATOM     28  C   UNL     1       6.668   4.703  14.494  0.00  0.00    +0.000 C 
ATOM     29  F   UNL     1       7.786   5.221  13.946  0.00  0.00    +0.000 F 
ATOM     30  F   UNL     1       6.154   3.791  13.640  0.00  0.00    +0.000 F 
ATOM     31  F   UNL     1       5.769   5.705  14.624  0.00  0.00    +0.000 F 
ENDBRANCH  27  28
ENDBRANCH  24  27
ENDBRANCH  20  21
ENDBRANCH   4  20
TORSDOF 5
ENDMDL
MODEL 3
REMARK VINA RESULT:      -9.2      5.199      9.773
REMARK  Name = 
REMARK  6 active torsions:
REMARK  status: ('A' for Active; 'I' for Inactive)
REMARK    1  A    between atoms: C_1  and  C_2
REMARK    2  A    between atoms: C_3  and  C_4
REMARK    3  A    between atoms: C_7  and  C_8
REMARK    4  A    between atoms: C_8  and  C_9
REMARK    5  A    between atoms: C_12  and  O_13
REMARK    6  A    between atoms: O_13  and  C_14
REMARK                            x       y       z     vdW  Elec       q    Type
REMARK                         _______ _______ _______ _____ _____    ______ ____
ROOT
ATOM      1  C   UNL     1       1.319   9.291  19.156  0.00  0.00    +0.000 A 
ATOM      2  C   UNL     1       1.963   8.584  18.136  0.00  0.00    +0.000 A 
ATOM      3  C   UNL     1       2.500   7.318  18.390  0.00  0.00    +0.000 A 
ATOM      4  C   UNL     1       2.398   6.743  19.665  0.00  0.00    +0.000 A 
ATOM      5  C   UNL     1       1.752   7.457  20.682  0.00  0.00    +0.000 A 
ATOM      6  C   UNL     1       1.214   8.722  20.430  0.00  0.00    +0.000 A 
ENDROOT
BRANCH   1   9
ATOM      7  C   UNL     1      -1.604   9.913  18.533  0.00  0.00    +0.000 C 
ATOM      8  C   UNL     1      -0.485  10.902  18.640  0.00  0.00    +0.000 A 
ATOM      9  C   UNL     1       0.814  10.654  18.920  0.00  0.00    +0.000 A 
ATOM     10  N   UNL     1       1.760  11.639  19.034  0.00  0.00    +0.000 N 
ATOM     11  C   UNL     1       1.451  12.992  18.966  0.00  0.00    +0.000 A 
ATOM     12  N   UNL     1       2.436  13.882  19.218  0.00  0.00    +0.000 NA
ATOM     13  C   UNL     1       2.109  15.194  19.166  0.00  0.00    +0.000 A 
ATOM     14  C   UNL     1       0.841  15.665  18.864  0.00  0.00    +0.000 A 
ATOM     15  C   UNL     1      -0.161  14.738  18.599  0.00  0.00    +0.000 A 
ATOM     16  C   UNL     1       0.151  13.382  18.658  0.00  0.00    +0.000 A 
ATOM     17  C   UNL     1      -0.869  12.338  18.431  0.00  0.00    +0.000 A 
ATOM     18  O   UNL     1      -2.008  12.650  18.095  0.00  0.00    +0.000 OA
ATOM     19  H   UNL     1       2.708  11.413  19.295  0.00  0.00    +0.000 HD
ENDBRANCH   1   9
BRANCH   4  20
ATOM     20  C   UNL     1       2.947   5.363  19.930  0.00  0.00    +0.000 C 
BRANCH  20  21
ATOM     21  C   UNL     1       3.825   4.787  18.843  0.00  0.00    +0.000 A 
ATOM     22  C   UNL     1       3.287   3.970  17.841  0.00  0.00    +0.000 A 
ATOM     23  C   UNL     1       4.075   3.568  16.759  0.00  0.00    +0.000 A 
ATOM     24  C   UNL     1       5.410   3.969  16.662  0.00  0.00    +0.000 A 
ATOM     25  C   UNL     1       5.979   4.682  17.714  0.00  0.00    +0.000 A 
ATOM     26  C   UNL     1       5.188   5.102  18.788  0.00  0.00    +0.000 A 
BRANCH  24  27
ATOM     27  O   UNL     1       6.064   3.557  15.543  0.00  0.00    +0.000 OA
BRANCH  27  28
ATOM     28  C   UNL     1       6.267   4.483  14.479  0.00  0.00    +0.000 C 
ATOM     29  F   UNL     1       6.152   3.958  13.242  0.00  0.00    +0.000 F 
ATOM     30  F   UNL     1       5.376   5.492  14.601  0.00  0.00    +0.000 F 
ATOM     31  F   UNL     1       7.509   5.007  14.590  0.00  0.00    +0.000 F 
ENDBRANCH  27  28
ENDBRANCH  24  27
ENDBRANCH  20  21
ENDBRANCH   4  20
TORSDOF 5
ENDMDL
MODEL 4
REMARK VINA RESULT:      -9.2      4.071      4.741
REMARK  Name = 
REMARK  6 active torsions:
REMARK  status: ('A' for Active; 'I' for Inactive)
REMARK    1  A    between atoms: C_1  and  C_2
REMARK    2  A    between atoms: C_3  and  C_4
REMARK    3  A    between atoms: C_7  and  C_8
REMARK    4  A    between atoms: C_8  and  C_9
REMARK    5  A    between atoms: C_12  and  O_13
REMARK    6  A    between atoms: O_13  and  C_14
REMARK                            x       y       z     vdW  Elec       q    Type
REMARK                         _______ _______ _______ _____ _____    ______ ____
ROOT
ATOM      1  C   UNL     1       2.354   7.399  18.549  0.00  0.00    +0.000 A 
ATOM      2  C   UNL     1       2.103   7.434  19.924  0.00  0.00    +0.000 A 
ATOM      3  C   UNL     1       1.419   8.516  20.487  0.00  0.00    +0.000 A 
ATOM      4  C   UNL     1       0.975   9.575  19.681  0.00  0.00    +0.000 A 
ATOM      5  C   UNL     1       1.231   9.534  18.304  0.00  0.00    +0.000 A 
ATOM      6  C   UNL     1       1.914   8.453  17.741  0.00  0.00    +0.000 A 
ENDROOT
BRANCH   1   9
ATOM      7  C   UNL     1       1.520   4.468  18.714  0.00  0.00    +0.000 C 
ATOM      8  C   UNL     1       2.748   5.010  18.050  0.00  0.00    +0.000 A 
ATOM      9  C   UNL     1       3.137   6.301  17.958  0.00  0.00    +0.000 A 
ATOM     10  N   UNL     1       4.265   6.701  17.292  0.00  0.00    +0.000 N 
ATOM     11  C   UNL     1       5.063   5.823  16.568  0.00  0.00    +0.000 A 
ATOM     12  N   UNL     1       6.080   6.340  15.844  0.00  0.00    +0.000 NA
ATOM     13  C   UNL     1       6.832   5.471  15.131  0.00  0.00    +0.000 A 
ATOM     14  C   UNL     1       6.625   4.100  15.112  0.00  0.00    +0.000 A 
ATOM     15  C   UNL     1       5.580   3.582  15.868  0.00  0.00    +0.000 A 
ATOM     16  C   UNL     1       4.786   4.460  16.602  0.00  0.00    +0.000 A 
ATOM     17  C   UNL     1       3.632   3.989  17.394  0.00  0.00    +0.000 A 
ATOM     18  O   UNL     1       3.401   2.788  17.494  0.00  0.00    +0.000 OA
ATOM     19  H   UNL     1       4.490   7.681  17.204  0.00  0.00    +0.000 HD
ENDBRANCH   1   9
BRANCH   4  20
ATOM     20  C   UNL     1       0.207  10.727  20.282  0.00  0.00    +0.000 C 
BRANCH  20  21
ATOM     21  C   UNL     1       0.594  12.101  19.786  0.00  0.00    +0.000 A 
ATOM     22  C   UNL     1      -0.239  12.813  18.915  0.00  0.00    +0.000 A 
ATOM     23  C   UNL     1       0.054  14.139  18.583  0.00  0.00    +0.000 A 
ATOM     24  C   UNL     1       1.182  14.772  19.110  0.00  0.00    +0.000 A 
ATOM     25  C   UNL     1       2.074  14.032  19.882  0.00  0.00    +0.000 A 
ATOM     26  C   UNL     1       1.774  12.711  20.231  0.00  0.00    +0.000 A 
BRANCH  24  27
ATOM     27  O   UNL     1       1.339  16.077  18.756  0.00  0.00    +0.000 OA
BRANCH  27  28
ATOM     28  C   UNL     1       2.502  16.461  18.027  0.00  0.00    +0.000 C 
ATOM     29  F   UNL     1       3.053  15.479  17.285  0.00  0.00    +0.000 F 
ATOM     30  F   UNL     1       2.186  17.490  17.210  0.00  0.00    +0.000 F 
ATOM     31  F   UNL     1       3.439  16.893  18.901  0.00  0.00    +0.000 F 
ENDBRANCH  27  28
ENDBRANCH  24  27
ENDBRANCH  20  21
ENDBRANCH   4  20
TORSDOF 5
ENDMDL
MODEL 5
REMARK VINA RESULT:      -9.1      0.403      1.452
REMARK  Name = 
REMARK  6 active torsions:
REMARK  status: ('A' for Active; 'I' for Inactive)
REMARK    1  A    between atoms: C_1  and  C_2
REMARK    2  A    between atoms: C_3  and  C_4
REMARK    3  A    between atoms: C_7  and  C_8
REMARK    4  A    between atoms: C_8  and  C_9
REMARK    5  A    between atoms: C_12  and  O_13
REMARK    6  A    between atoms: O_13  and  C_14
REMARK                            x       y       z     vdW  Elec       q    Type
REMARK                         _______ _______ _______ _____ _____    ______ ____
ROOT
ATOM      1  C   UNL     1       2.356   7.635  18.534  0.00  0.00    +0.000 A 
ATOM      2  C   UNL     1       1.932   7.697  19.865  0.00  0.00    +0.000 A 
ATOM      3  C   UNL     1       1.254   8.826  20.335  0.00  0.00    +0.000 A 
ATOM      4  C   UNL     1       0.990   9.905  19.480  0.00  0.00    +0.000 A 
ATOM      5  C   UNL     1       1.419   9.837  18.148  0.00  0.00    +0.000 A 
ATOM      6  C   UNL     1       2.096   8.710  17.677  0.00  0.00    +0.000 A 
ENDROOT
BRANCH   1   9
ATOM      7  C   UNL     1       1.844   4.764  19.435  0.00  0.00    +0.000 C 
ATOM      8  C   UNL     1       2.892   5.222  18.468  0.00  0.00    +0.000 A 
ATOM      9  C   UNL     1       3.135   6.484  18.048  0.00  0.00    +0.000 A 
ATOM     10  N   UNL     1       4.098   6.796  17.126  0.00  0.00    +0.000 N 
ATOM     11  C   UNL     1       4.849   5.832  16.464  0.00  0.00    +0.000 A 
ATOM     12  N   UNL     1       5.682   6.239  15.482  0.00  0.00    +0.000 NA
ATOM     13  C   UNL     1       6.389   5.282  14.837  0.00  0.00    +0.000 A 
ATOM     14  C   UNL     1       6.314   3.930  15.134  0.00  0.00    +0.000 A 
ATOM     15  C   UNL     1       5.459   3.527  16.153  0.00  0.00    +0.000 A 
ATOM     16  C   UNL     1       4.712   4.494  16.822  0.00  0.00    +0.000 A 
ATOM     17  C   UNL     1       3.752   4.138  17.886  0.00  0.00    +0.000 A 
ATOM     18  O   UNL     1       3.656   2.975  18.267  0.00  0.00    +0.000 OA
ATOM     19  H   UNL     1       4.212   7.745  16.802  0.00  0.00    +0.000 HD
ENDBRANCH   1   9
BRANCH   4  20
ATOM     20  C   UNL     1       0.228  11.109  19.977  0.00  0.00    +0.000 C 
BRANCH  20  21
ATOM     21  C   UNL     1      -1.203  11.219  19.506  0.00  0.00    +0.000 A 
ATOM     22  C   UNL     1      -2.097  12.104  20.120  0.00  0.00    +0.000 A 
ATOM     23  C   UNL     1      -3.371  12.308  19.582  0.00  0.00    +0.000 A 
ATOM     24  C   UNL     1      -3.774  11.631  18.429  0.00  0.00    +0.000 A 
ATOM     25  C   UNL     1      -2.932  10.664  17.884  0.00  0.00    +0.000 A 
ATOM     26  C   UNL     1      -1.650  10.472  18.409  0.00  0.00    +0.000 A 
BRANCH  24  27
ATOM     27  O   UNL     1      -5.016  11.945  17.970  0.00  0.00    +0.000 OA
BRANCH  27  28
ATOM     28  C   UNL     1      -6.152  11.326  18.568  0.00  0.00    +0.000 C 
ATOM     29  F   UNL     1      -5.962  10.047  18.952  0.00  0.00    +0.000 F 
ATOM     30  F   UNL     1      -6.525  12.047  19.648  0.00  0.00    +0.000 F 
ATOM     31  F   UNL     1      -7.173  11.342  17.682  0.00  0.00    +0.000 F 
ENDBRANCH  27  28
ENDBRANCH  24  27
ENDBRANCH  20  21
ENDBRANCH   4  20
TORSDOF 5
ENDMDL
MODEL 6
REMARK VINA RESULT:      -9.1      4.324      5.053
REMARK  Name = 
REMARK  6 active torsions:
REMARK  status: ('A' for Active; 'I' for Inactive)
REMARK    1  A    between atoms: C_1  and  C_2
REMARK    2  A    between atoms: C_3  and  C_4
REMARK    3  A    between atoms: C_7  and  C_8
REMARK    4  A    between atoms: C_8  and  C_9
REMARK    5  A    between atoms: C_12  and  O_13
REMARK    6  A    between atoms: O_13  and  C_14
REMARK                            x       y       z     vdW  Elec       q    Type
REMARK                         _______ _______ _______ _____ _____    ______ ____
ROOT
ATOM      1  C   UNL     1       2.374   7.370  18.533  0.00  0.00    +0.000 A 
ATOM      2  C   UNL     1       2.111   7.398  19.906  0.00  0.00    +0.000 A 
ATOM      3  C   UNL     1       1.428   8.481  20.468  0.00  0.00    +0.000 A 
ATOM      4  C   UNL     1       0.999   9.547  19.665  0.00  0.00    +0.000 A 
ATOM      5  C   UNL     1       1.268   9.513  18.290  0.00  0.00    +0.000 A 
ATOM      6  C   UNL     1       1.949   8.431  17.727  0.00  0.00    +0.000 A 
ENDROOT
BRANCH   1   9
ATOM      7  C   UNL     1       1.538   4.439  18.700  0.00  0.00    +0.000 C 
ATOM      8  C   UNL     1       2.766   4.979  18.036  0.00  0.00    +0.000 A 
ATOM      9  C   UNL     1       3.156   6.270  17.942  0.00  0.00    +0.000 A 
ATOM     10  N   UNL     1       4.285   6.668  17.276  0.00  0.00    +0.000 N 
ATOM     11  C   UNL     1       5.082   5.789  16.553  0.00  0.00    +0.000 A 
ATOM     12  N   UNL     1       6.099   6.304  15.828  0.00  0.00    +0.000 NA
ATOM     13  C   UNL     1       6.850   5.433  15.115  0.00  0.00    +0.000 A 
ATOM     14  C   UNL     1       6.642   4.062  15.098  0.00  0.00    +0.000 A 
ATOM     15  C   UNL     1       5.596   3.546  15.854  0.00  0.00    +0.000 A 
ATOM     16  C   UNL     1       4.803   4.426  16.588  0.00  0.00    +0.000 A 
ATOM     17  C   UNL     1       3.649   3.957  17.381  0.00  0.00    +0.000 A 
ATOM     18  O   UNL     1       3.416   2.756  17.482  0.00  0.00    +0.000 OA
ATOM     19  H   UNL     1       4.511   7.647  17.187  0.00  0.00    +0.000 HD
ENDBRANCH   1   9
BRANCH   4  20
ATOM     20  C   UNL     1       0.233  10.700  20.265  0.00  0.00    +0.000 C 
BRANCH  20  21
ATOM     21  C   UNL     1       0.770  12.077  19.951  0.00  0.00    +0.000 A 
ATOM     22  C   UNL     1       1.839  12.616  20.679  0.00  0.00    +0.000 A 
ATOM     23  C   UNL     1       2.425  13.822  20.284  0.00  0.00    +0.000 A 
ATOM     24  C   UNL     1       1.953  14.510  19.164  0.00  0.00    +0.000 A 
ATOM     25  C   UNL     1       0.818  14.039  18.510  0.00  0.00    +0.000 A 
ATOM     26  C   UNL     1       0.241  12.823  18.890  0.00  0.00    +0.000 A 
BRANCH  24  27
ATOM     27  O   UNL     1       2.631  15.647  18.848  0.00  0.00    +0.000 OA
BRANCH  27  28
ATOM     28  C   UNL     1       3.711  15.573  17.920  0.00  0.00    +0.000 C 
ATOM     29  F   UNL     1       4.264  14.350  17.792  0.00  0.00    +0.000 F 
ATOM     30  F   UNL     1       3.273  15.976  16.707  0.00  0.00    +0.000 F 
ATOM     31  F   UNL     1       4.684  16.426  18.317  0.00  0.00    +0.000 F 
ENDBRANCH  27  28
ENDBRANCH  24  27
ENDBRANCH  20  21
ENDBRANCH   4  20
TORSDOF 5
ENDMDL
MODEL 7
REMARK VINA RESULT:      -9.0      3.487      4.124
REMARK  Name = 
REMARK  6 active torsions:
REMARK  status: ('A' for Active; 'I' for Inactive)
REMARK    1  A    between atoms: C_1  and  C_2
REMARK    2  A    between atoms: C_3  and  C_4
REMARK    3  A    between atoms: C_7  and  C_8
REMARK    4  A    between atoms: C_8  and  C_9
REMARK    5  A    between atoms: C_12  and  O_13
REMARK    6  A    between atoms: O_13  and  C_14
REMARK                            x       y       z     vdW  Elec       q    Type
REMARK                         _______ _______ _______ _____ _____    ______ ____
ROOT
ATOM      1  C   UNL     1       2.440   7.393  18.636  0.00  0.00    +0.000 A 
ATOM      2  C   UNL     1       1.932   8.451  17.877  0.00  0.00    +0.000 A 
ATOM      3  C   UNL     1       1.154   9.442  18.483  0.00  0.00    +0.000 A 
ATOM      4  C   UNL     1       0.876   9.388  19.857  0.00  0.00    +0.000 A 
ATOM      5  C   UNL     1       1.387   8.324  20.612  0.00  0.00    +0.000 A 
ATOM      6  C   UNL     1       2.165   7.334  20.007  0.00  0.00    +0.000 A 
ENDROOT
BRANCH   1   9
ATOM      7  C   UNL     1       1.531   4.479  18.649  0.00  0.00    +0.000 C 
ATOM      8  C   UNL     1       2.776   5.022  18.020  0.00  0.00    +0.000 A 
ATOM      9  C   UNL     1       3.199   6.306  17.995  0.00  0.00    +0.000 A 
ATOM     10  N   UNL     1       4.341   6.709  17.356  0.00  0.00    +0.000 N 
ATOM     11  C   UNL     1       5.121   5.848  16.593  0.00  0.00    +0.000 A 
ATOM     12  N   UNL     1       6.156   6.374  15.901  0.00  0.00    +0.000 NA
ATOM     13  C   UNL     1       6.890   5.522  15.149  0.00  0.00    +0.000 A 
ATOM     14  C   UNL     1       6.648   4.160  15.060  0.00  0.00    +0.000 A 
ATOM     15  C   UNL     1       5.585   3.632  15.784  0.00  0.00    +0.000 A 
ATOM     16  C   UNL     1       4.809   4.492  16.556  0.00  0.00    +0.000 A 
ATOM     17  C   UNL     1       3.638   4.013  17.318  0.00  0.00    +0.000 A 
ATOM     18  O   UNL     1       3.375   2.814  17.356  0.00  0.00    +0.000 OA
ATOM     19  H   UNL     1       4.592   7.685  17.318  0.00  0.00    +0.000 HD
ENDBRANCH   1   9
BRANCH   4  20
ATOM     20  C   UNL     1       0.065  10.474  20.519  0.00  0.00    +0.000 C 
BRANCH  20  21
ATOM     21  C   UNL     1       0.341  11.881  20.041  0.00  0.00    +0.000 A 
ATOM     22  C   UNL     1       1.484  12.573  20.461  0.00  0.00    +0.000 A 
ATOM     23  C   UNL     1       1.807  13.811  19.898  0.00  0.00    +0.000 A 
ATOM     24  C   UNL     1       0.995  14.378  18.912  0.00  0.00    +0.000 A 
ATOM     25  C   UNL     1      -0.201  13.750  18.578  0.00  0.00    +0.000 A 
ATOM     26  C   UNL     1      -0.518  12.502  19.126  0.00  0.00    +0.000 A 
BRANCH  24  27
ATOM     27  O   UNL     1       1.434  15.561  18.404  0.00  0.00    +0.000 OA
BRANCH  27  28
ATOM     28  C   UNL     1       0.716  16.754  18.705  0.00  0.00    +0.000 C 
ATOM     29  F   UNL     1       0.161  16.784  19.934  0.00  0.00    +0.000 F 
ATOM     30  F   UNL     1       1.551  17.810  18.586  0.00  0.00    +0.000 F 
ATOM     31  F   UNL     1      -0.278  16.904  17.801  0.00  0.00    +0.000 F 
ENDBRANCH  27  28
ENDBRANCH  24  27
ENDBRANCH  20  21
ENDBRANCH   4  20
TORSDOF 5
ENDMDL
MODEL 8
REMARK VINA RESULT:      -9.0      5.163      9.865
REMARK  Name = 
REMARK  6 active torsions:
REMARK  status: ('A' for Active; 'I' for Inactive)
REMARK    1  A    between atoms: C_1  and  C_2
REMARK    2  A    between atoms: C_3  and  C_4
REMARK    3  A    between atoms: C_7  and  C_8
REMARK    4  A    between atoms: C_8  and  C_9
REMARK    5  A    between atoms: C_12  and  O_13
REMARK    6  A    between atoms: O_13  and  C_14
REMARK                            x       y       z     vdW  Elec       q    Type
REMARK                         _______ _______ _______ _____ _____    ______ ____
ROOT
ATOM      1  C   UNL     1       1.252   9.149  19.664  0.00  0.00    +0.000 A 
ATOM      2  C   UNL     1       1.988   8.553  18.636  0.00  0.00    +0.000 A 
ATOM      3  C   UNL     1       2.491   7.257  18.791  0.00  0.00    +0.000 A 
ATOM      4  C   UNL     1       2.263   6.541  19.975  0.00  0.00    +0.000 A 
ATOM      5  C   UNL     1       1.526   7.145  21.002  0.00  0.00    +0.000 A 
ATOM      6  C   UNL     1       1.022   8.439  20.848  0.00  0.00    +0.000 A 
ENDROOT
BRANCH   1   9
ATOM      7  C   UNL     1      -1.001   9.994  17.786  0.00  0.00    +0.000 C 
ATOM      8  C   UNL     1      -0.216  10.887  18.696  0.00  0.00    +0.000 A 
ATOM      9  C   UNL     1       0.780  10.538  19.541  0.00  0.00    +0.000 A 
ATOM     10  N   UNL     1       1.414  11.430  20.365  0.00  0.00    +0.000 N 
ATOM     11  C   UNL     1       1.024  12.759  20.478  0.00  0.00    +0.000 A 
ATOM     12  N   UNL     1       1.633  13.522  21.413  0.00  0.00    +0.000 NA
ATOM     13  C   UNL     1       1.225  14.808  21.520  0.00  0.00    +0.000 A 
ATOM     14  C   UNL     1       0.240  15.377  20.728  0.00  0.00    +0.000 A 
ATOM     15  C   UNL     1      -0.371  14.583  19.765  0.00  0.00    +0.000 A 
ATOM     16  C   UNL     1       0.025  13.253  19.644  0.00  0.00    +0.000 A 
ATOM     17  C   UNL     1      -0.608  12.336  18.675  0.00  0.00    +0.000 A 
ATOM     18  O   UNL     1      -1.446  12.758  17.884  0.00  0.00    +0.000 OA
ATOM     19  H   UNL     1       2.118  11.117  21.017  0.00  0.00    +0.000 HD
ENDBRANCH   1   9
BRANCH   4  20
ATOM     20  C   UNL     1       2.777   5.131  20.131  0.00  0.00    +0.000 C 
BRANCH  20  21
ATOM     21  C   UNL     1       3.655   4.627  19.009  0.00  0.00    +0.000 A 
ATOM     22  C   UNL     1       3.112   3.906  17.938  0.00  0.00    +0.000 A 
ATOM     23  C   UNL     1       3.904   3.576  16.835  0.00  0.00    +0.000 A 
ATOM     24  C   UNL     1       5.248   3.955  16.784  0.00  0.00    +0.000 A 
ATOM     25  C   UNL     1       5.819   4.568  17.896  0.00  0.00    +0.000 A 
ATOM     26  C   UNL     1       5.025   4.916  18.993  0.00  0.00    +0.000 A 
BRANCH  24  27
ATOM     27  O   UNL     1       5.906   3.622  15.641  0.00  0.00    +0.000 OA
BRANCH  27  28
ATOM     28  C   UNL     1       6.213   4.643  14.696  0.00  0.00    +0.000 C 
ATOM     29  F   UNL     1       7.424   5.216  14.856  0.00  0.00    +0.000 F 
ATOM     30  F   UNL     1       6.147   4.121  13.451  0.00  0.00    +0.000 F 
ATOM     31  F   UNL     1       5.280   5.617  14.790  0.00  0.00    +0.000 F 
ENDBRANCH  27  28
ENDBRANCH  24  27
ENDBRANCH  20  21
ENDBRANCH   4  20
TORSDOF 5
ENDMDL
MODEL 9
REMARK VINA RESULT:      -8.9      3.353      4.100
REMARK  Name = 
REMARK  6 active torsions:
REMARK  status: ('A' for Active; 'I' for Inactive)
REMARK    1  A    between atoms: C_1  and  C_2
REMARK    2  A    between atoms: C_3  and  C_4
REMARK    3  A    between atoms: C_7  and  C_8
REMARK    4  A    between atoms: C_8  and  C_9
REMARK    5  A    between atoms: C_12  and  O_13
REMARK    6  A    between atoms: O_13  and  C_14
REMARK                            x       y       z     vdW  Elec       q    Type
REMARK                         _______ _______ _______ _____ _____    ______ ____
ROOT
ATOM      1  C   UNL     1       2.371   7.354  18.562  0.00  0.00    +0.000 A 
ATOM      2  C   UNL     1       2.121   7.367  19.938  0.00  0.00    +0.000 A 
ATOM      3  C   UNL     1       1.430   8.437  20.516  0.00  0.00    +0.000 A 
ATOM      4  C   UNL     1       0.979   9.504  19.727  0.00  0.00    +0.000 A 
ATOM      5  C   UNL     1       1.234   9.485  18.349  0.00  0.00    +0.000 A 
ATOM      6  C   UNL     1       1.924   8.417  17.770  0.00  0.00    +0.000 A 
ENDROOT
BRANCH   1   9
ATOM      7  C   UNL     1       1.560   4.414  18.691  0.00  0.00    +0.000 C 
ATOM      8  C   UNL     1       2.782   4.974  18.031  0.00  0.00    +0.000 A 
ATOM      9  C   UNL     1       3.161   6.270  17.954  0.00  0.00    +0.000 A 
ATOM     10  N   UNL     1       4.284   6.686  17.291  0.00  0.00    +0.000 N 
ATOM     11  C   UNL     1       5.087   5.825  16.553  0.00  0.00    +0.000 A 
ATOM     12  N   UNL     1       6.098   6.359  15.834  0.00  0.00    +0.000 NA
ATOM     13  C   UNL     1       6.855   5.504  15.107  0.00  0.00    +0.000 A 
ATOM     14  C   UNL     1       6.658   4.133  15.071  0.00  0.00    +0.000 A 
ATOM     15  C   UNL     1       5.619   3.597  15.823  0.00  0.00    +0.000 A 
ATOM     16  C   UNL     1       4.820   4.459  16.570  0.00  0.00    +0.000 A 
ATOM     17  C   UNL     1       3.672   3.969  17.359  0.00  0.00    +0.000 A 
ATOM     18  O   UNL     1       3.450   2.765  17.444  0.00  0.00    +0.000 OA
ATOM     19  H   UNL     1       4.502   7.669  17.215  0.00  0.00    +0.000 HD
ENDBRANCH   1   9
BRANCH   4  20
ATOM     20  C   UNL     1       0.204  10.642  20.344  0.00  0.00    +0.000 C 
BRANCH  20  21
ATOM     21  C   UNL     1       0.496  12.014  19.782  0.00  0.00    +0.000 A 
ATOM     22  C   UNL     1      -0.381  12.621  18.874  0.00  0.00    +0.000 A 
ATOM     23  C   UNL     1      -0.180  13.947  18.478  0.00  0.00    +0.000 A 
ATOM     24  C   UNL     1       0.897  14.684  18.976  0.00  0.00    +0.000 A 
ATOM     25  C   UNL     1       1.835  14.047  19.785  0.00  0.00    +0.000 A 
ATOM     26  C   UNL     1       1.627  12.727  20.198  0.00  0.00    +0.000 A 
BRANCH  24  27
ATOM     27  O   UNL     1       0.964  15.977  18.557  0.00  0.00    +0.000 OA
BRANCH  27  28
ATOM     28  C   UNL     1       0.011  16.914  19.052  0.00  0.00    +0.000 C 
ATOM     29  F   UNL     1      -1.137  16.978  18.348  0.00  0.00    +0.000 F 
ATOM     30  F   UNL     1      -0.287  16.601  20.332  0.00  0.00    +0.000 F 
ATOM     31  F   UNL     1       0.569  18.147  19.042  0.00  0.00    +0.000 F 
ENDBRANCH  27  28
ENDBRANCH  24  27
ENDBRANCH  20  21
ENDBRANCH   4  20
TORSDOF 5
ENDMDL
