MODEL 1
REMARK VINA RESULT:      -7.5      0.000      0.000
REMARK  Name = 
REMARK  3 active torsions:
REMARK  status: ('A' for Active; 'I' for Inactive)
REMARK    1  A    between atoms: C_1  and  O_2
REMARK    2  A    between atoms: O_2  and  C_3
REMARK    3  A    between atoms: N_17  and  O_18
REMARK                            x       y       z     vdW  Elec       q    Type
REMARK                         _______ _______ _______ _____ _____    ______ ____
ROOT
ATOM      1  C   UNL     1       2.533   4.333  20.807  0.00  0.00    +0.000 A 
ATOM      2  C   UNL     1       2.156   5.677  20.586  0.00  0.00    +0.000 A 
ATOM      3  C   UNL     1       2.587   6.362  19.448  0.00  0.00    +0.000 A 
ATOM      4  C   UNL     1       3.395   5.724  18.503  0.00  0.00    +0.000 A 
ATOM      5  C   UNL     1       3.742   4.375  18.690  0.00  0.00    +0.000 A 
ATOM      6  C   UNL     1       3.335   3.686  19.845  0.00  0.00    +0.000 A 
ATOM      7  C   UNL     1       3.781   2.244  19.972  0.00  0.00    +0.000 C 
ATOM      8  C   UNL     1       3.393   1.506  18.680  0.00  0.00    +0.000 C 
ATOM      9  C   UNL     1       3.904   2.225  17.393  0.00  0.00    +0.000 C 
ATOM     10  C   UNL     1       4.556   3.607  17.668  0.00  0.00    +0.000 C 
ATOM     11  C   UNL     1       4.770   4.387  16.353  0.00  0.00    +0.000 C 
ATOM     12  N   UNL     1       5.030   5.778  16.691  0.00  0.00    +0.000 N 
ATOM     13  C   UNL     1       6.331   6.390  16.512  0.00  0.00    +0.000 C 
ATOM     14  N   UNL     1       7.170   5.940  15.642  0.00  0.00    +0.000 NA
ATOM     15  N   UNL     1       6.740   7.500  17.313  0.00  0.00    +0.000 N 
ATOM     16  C   UNL     1       3.907   6.482  17.308  0.00  0.00    +0.000 C 
ATOM     17  H   UNL     1       6.986   5.167  14.994  0.00  0.00    +0.000 HD
ATOM     18  H   UNL     1       6.157   7.860  18.078  0.00  0.00    +0.000 HD
ENDROOT
BRANCH   1  20
ATOM     19  C   UNL     1       1.246   2.611  21.950  0.00  0.00    +0.000 C 
ATOM     20  O   UNL     1       2.148   3.653  21.919  0.00  0.00    +0.000 OA
ENDBRANCH   1  20
BRANCH  15  21
ATOM     21  O   UNL     1       7.984   7.989  17.196  0.00  0.00    +0.000 OA
ATOM     22  H   UNL     1       8.431   7.777  18.055  0.00  0.00    +0.000 HD
ENDBRANCH  15  21
TORSDOF 2
ENDMDL
MODEL 2
REMARK VINA RESULT:      -7.3      2.691      5.702
REMARK  Name = 
REMARK  3 active torsions:
REMARK  status: ('A' for Active; 'I' for Inactive)
REMARK    1  A    between atoms: C_1  and  O_2
REMARK    2  A    between atoms: O_2  and  C_3
REMARK    3  A    between atoms: N_17  and  O_18
REMARK                            x       y       z     vdW  Elec       q    Type
REMARK                         _______ _______ _______ _____ _____    ______ ____
ROOT
ATOM      1  C   UNL     1       7.018   6.605  17.594  0.00  0.00    +0.000 A 
ATOM      2  C   UNL     1       7.198   6.226  18.943  0.00  0.00    +0.000 A 
ATOM      3  C   UNL     1       6.460   5.178  19.495  0.00  0.00    +0.000 A 
ATOM      4  C   UNL     1       5.532   4.479  18.716  0.00  0.00    +0.000 A 
ATOM      5  C   UNL     1       5.374   4.819  17.361  0.00  0.00    +0.000 A 
ATOM      6  C   UNL     1       6.094   5.890  16.805  0.00  0.00    +0.000 A 
ATOM      7  C   UNL     1       5.836   6.200  15.344  0.00  0.00    +0.000 C 
ATOM      8  C   UNL     1       6.003   4.899  14.542  0.00  0.00    +0.000 C 
ATOM      9  C   UNL     1       5.151   3.721  15.108  0.00  0.00    +0.000 C 
ATOM     10  C   UNL     1       4.439   4.055  16.447  0.00  0.00    +0.000 C 
ATOM     11  C   UNL     1       3.862   2.779  17.097  0.00  0.00    +0.000 C 
ATOM     12  N   UNL     1       3.542   3.085  18.483  0.00  0.00    +0.000 N 
ATOM     13  C   UNL     1       2.179   3.169  18.964  0.00  0.00    +0.000 C 
ATOM     14  N   UNL     1       1.219   2.540  18.376  0.00  0.00    +0.000 NA
ATOM     15  N   UNL     1       1.844   3.976  20.096  0.00  0.00    +0.000 N 
ATOM     16  C   UNL     1       4.696   3.389  19.328  0.00  0.00    +0.000 C 
ATOM     17  H   UNL     1       1.334   1.915  17.572  0.00  0.00    +0.000 HD
ATOM     18  H   UNL     1       2.542   4.566  20.565  0.00  0.00    +0.000 HD
ENDROOT
BRANCH   1  20
ATOM     19  C   UNL     1       8.050   8.809  17.686  0.00  0.00    +0.000 C 
ATOM     20  O   UNL     1       7.705   7.640  17.041  0.00  0.00    +0.000 OA
ENDBRANCH   1  20
BRANCH  15  21
ATOM     21  O   UNL     1       0.562   4.115  20.465  0.00  0.00    +0.000 OA
ATOM     22  H   UNL     1       0.340   5.065  20.288  0.00  0.00    +0.000 HD
ENDBRANCH  15  21
TORSDOF 2
ENDMDL
MODEL 3
REMARK VINA RESULT:      -7.0      1.987      3.038
REMARK  Name = 
REMARK  3 active torsions:
REMARK  status: ('A' for Active; 'I' for Inactive)
REMARK    1  A    between atoms: C_1  and  O_2
REMARK    2  A    between atoms: O_2  and  C_3
REMARK    3  A    between atoms: N_17  and  O_18
REMARK                            x       y       z     vdW  Elec       q    Type
REMARK                         _______ _______ _______ _____ _____    ______ ____
ROOT
ATOM      1  C   UNL     1       1.398   8.045  20.220  0.00  0.00    +0.000 A 
ATOM      2  C   UNL     1       1.557   9.036  19.226  0.00  0.00    +0.000 A 
ATOM      3  C   UNL     1       2.314   8.784  18.081  0.00  0.00    +0.000 A 
ATOM      4  C   UNL     1       2.924   7.540  17.896  0.00  0.00    +0.000 A 
ATOM      5  C   UNL     1       2.739   6.532  18.857  0.00  0.00    +0.000 A 
ATOM      6  C   UNL     1       2.000   6.785  20.026  0.00  0.00    +0.000 A 
ATOM      7  C   UNL     1       1.879   5.646  21.017  0.00  0.00    +0.000 C 
ATOM      8  C   UNL     1       1.377   4.404  20.262  0.00  0.00    +0.000 C 
ATOM      9  C   UNL     1       2.236   4.070  19.003  0.00  0.00    +0.000 C 
ATOM     10  C   UNL     1       3.314   5.141  18.682  0.00  0.00    +0.000 C 
ATOM     11  C   UNL     1       3.921   4.908  17.282  0.00  0.00    +0.000 C 
ATOM     12  N   UNL     1       4.634   6.115  16.894  0.00  0.00    +0.000 N 
ATOM     13  C   UNL     1       6.079   6.169  16.804  0.00  0.00    +0.000 C 
ATOM     14  N   UNL     1       6.778   5.107  16.590  0.00  0.00    +0.000 NA
ATOM     15  N   UNL     1       6.783   7.401  16.977  0.00  0.00    +0.000 N 
ATOM     16  C   UNL     1       3.788   7.290  16.690  0.00  0.00    +0.000 C 
ATOM     17  H   UNL     1       6.390   4.172  16.427  0.00  0.00    +0.000 HD
ATOM     18  H   UNL     1       6.299   8.271  17.229  0.00  0.00    +0.000 HD
ENDROOT
BRANCH   1  20
ATOM     19  C   UNL     1       1.033   9.165  22.351  0.00  0.00    +0.000 C 
ATOM     20  O   UNL     1       0.687   8.275  21.356  0.00  0.00    +0.000 OA
ENDBRANCH   1  20
BRANCH  15  21
ATOM     21  O   UNL     1       8.125   7.411  16.986  0.00  0.00    +0.000 OA
ATOM     22  H   UNL     1       8.388   8.004  16.237  0.00  0.00    +0.000 HD
ENDBRANCH  15  21
TORSDOF 2
ENDMDL
MODEL 4
REMARK VINA RESULT:      -7.0      2.123      3.542
REMARK  Name = 
REMARK  3 active torsions:
REMARK  status: ('A' for Active; 'I' for Inactive)
REMARK    1  A    between atoms: C_1  and  O_2
REMARK    2  A    between atoms: O_2  and  C_3
REMARK    3  A    between atoms: N_17  and  O_18
REMARK                            x       y       z     vdW  Elec       q    Type
REMARK                         _______ _______ _______ _____ _____    ______ ____
ROOT
ATOM      1  C   UNL     1       2.549   3.850  19.319  0.00  0.00    +0.000 A 
ATOM      2  C   UNL     1       3.571   2.891  19.501  0.00  0.00    +0.000 A 
ATOM      3  C   UNL     1       4.789   3.009  18.828  0.00  0.00    +0.000 A 
ATOM      4  C   UNL     1       5.019   4.084  17.965  0.00  0.00    +0.000 A 
ATOM      5  C   UNL     1       4.026   5.067  17.808  0.00  0.00    +0.000 A 
ATOM      6  C   UNL     1       2.788   4.942  18.461  0.00  0.00    +0.000 A 
ATOM      7  C   UNL     1       1.770   6.036  18.209  0.00  0.00    +0.000 C 
ATOM      8  C   UNL     1       2.445   7.391  18.480  0.00  0.00    +0.000 C 
ATOM      9  C   UNL     1       3.785   7.570  17.702  0.00  0.00    +0.000 C 
ATOM     10  C   UNL     1       4.241   6.293  16.944  0.00  0.00    +0.000 C 
ATOM     11  C   UNL     1       5.695   6.438  16.447  0.00  0.00    +0.000 C 
ATOM     12  N   UNL     1       6.180   5.115  16.081  0.00  0.00    +0.000 N 
ATOM     13  C   UNL     1       6.429   4.732  14.707  0.00  0.00    +0.000 C 
ATOM     14  N   UNL     1       6.701   5.612  13.804  0.00  0.00    +0.000 NA
ATOM     15  N   UNL     1       6.356   3.365  14.297  0.00  0.00    +0.000 N 
ATOM     16  C   UNL     1       6.308   4.178  17.196  0.00  0.00    +0.000 C 
ATOM     17  H   UNL     1       6.805   6.616  13.976  0.00  0.00    +0.000 HD
ATOM     18  H   UNL     1       6.066   2.621  14.944  0.00  0.00    +0.000 HD
ENDROOT
BRANCH   1  20
ATOM     19  C   UNL     1       1.099   3.018  21.089  0.00  0.00    +0.000 C 
ATOM     20  O   UNL     1       1.346   3.743  19.942  0.00  0.00    +0.000 OA
ENDBRANCH   1  20
BRANCH  15  21
ATOM     21  O   UNL     1       6.495   3.044  13.002  0.00  0.00    +0.000 OA
ATOM     22  H   UNL     1       7.271   2.429  12.966  0.00  0.00    +0.000 HD
ENDBRANCH  15  21
TORSDOF 2
ENDMDL
MODEL 5
REMARK VINA RESULT:      -6.6      3.000      5.493
REMARK  Name = 
REMARK  3 active torsions:
REMARK  status: ('A' for Active; 'I' for Inactive)
REMARK    1  A    between atoms: C_1  and  O_2
REMARK    2  A    between atoms: O_2  and  C_3
REMARK    3  A    between atoms: N_17  and  O_18
REMARK                            x       y       z     vdW  Elec       q    Type
REMARK                         _______ _______ _______ _____ _____    ______ ____
ROOT
ATOM      1  C   UNL     1       2.620   8.340  18.277  0.00  0.00    +0.000 A 
ATOM      2  C   UNL     1       1.866   8.130  19.453  0.00  0.00    +0.000 A 
ATOM      3  C   UNL     1       1.901   6.901  20.114  0.00  0.00    +0.000 A 
ATOM      4  C   UNL     1       2.689   5.856  19.623  0.00  0.00    +0.000 A 
ATOM      5  C   UNL     1       3.477   6.066  18.478  0.00  0.00    +0.000 A 
ATOM      6  C   UNL     1       3.428   7.291  17.792  0.00  0.00    +0.000 A 
ATOM      7  C   UNL     1       4.290   7.415  16.552  0.00  0.00    +0.000 C 
ATOM      8  C   UNL     1       5.724   7.004  16.922  0.00  0.00    +0.000 C 
ATOM      9  C   UNL     1       5.798   5.610  17.619  0.00  0.00    +0.000 C 
ATOM     10  C   UNL     1       4.407   4.999  17.937  0.00  0.00    +0.000 C 
ATOM     11  C   UNL     1       4.542   3.780  18.875  0.00  0.00    +0.000 C 
ATOM     12  N   UNL     1       3.227   3.483  19.421  0.00  0.00    +0.000 N 
ATOM     13  C   UNL     1       2.480   2.300  19.047  0.00  0.00    +0.000 C 
ATOM     14  N   UNL     1       3.075   1.239  18.619  0.00  0.00    +0.000 NA
ATOM     15  N   UNL     1       1.053   2.275  19.115  0.00  0.00    +0.000 N 
ATOM     16  C   UNL     1       2.679   4.514  20.302  0.00  0.00    +0.000 C 
ATOM     17  H   UNL     1       4.091   1.124  18.547  0.00  0.00    +0.000 HD
ATOM     18  H   UNL     1       0.509   3.109  19.370  0.00  0.00    +0.000 HD
ENDROOT
BRANCH   1  20
ATOM     19  C   UNL     1       1.933  10.662  18.018  0.00  0.00    +0.000 C 
ATOM     20  O   UNL     1       2.583   9.519  17.601  0.00  0.00    +0.000 OA
ENDBRANCH   1  20
BRANCH  15  21
ATOM     21  O   UNL     1       0.378   1.203  18.673  0.00  0.00    +0.000 OA
ATOM     22  H   UNL     1       1.070   0.579  18.334  0.00  0.00    +0.000 HD
ENDBRANCH  15  21
TORSDOF 2
ENDMDL
MODEL 6
REMARK VINA RESULT:      -6.6      2.142      3.194
REMARK  Name = 
REMARK  3 active torsions:
REMARK  status: ('A' for Active; 'I' for Inactive)
REMARK    1  A    between atoms: C_1  and  O_2
REMARK    2  A    between atoms: O_2  and  C_3
REMARK    3  A    between atoms: N_17  and  O_18
REMARK                            x       y       z     vdW  Elec       q    Type
REMARK                         _______ _______ _______ _____ _____    ______ ____
ROOT
ATOM      1  C   UNL     1       1.336   7.923  19.854  0.00  0.00    +0.000 A 
ATOM      2  C   UNL     1       1.808   8.767  18.823  0.00  0.00    +0.000 A 
ATOM      3  C   UNL     1       2.831   8.349  17.971  0.00  0.00    +0.000 A 
ATOM      4  C   UNL     1       3.403   7.082  18.120  0.00  0.00    +0.000 A 
ATOM      5  C   UNL     1       2.913   6.217  19.114  0.00  0.00    +0.000 A 
ATOM      6  C   UNL     1       1.902   6.640  19.993  0.00  0.00    +0.000 A 
ATOM      7  C   UNL     1       1.459   5.649  21.050  0.00  0.00    +0.000 C 
ATOM      8  C   UNL     1       1.115   4.324  20.351  0.00  0.00    +0.000 C 
ATOM      9  C   UNL     1       2.262   3.807  19.428  0.00  0.00    +0.000 C 
ATOM     10  C   UNL     1       3.441   4.807  19.281  0.00  0.00    +0.000 C 
ATOM     11  C   UNL     1       4.390   4.375  18.142  0.00  0.00    +0.000 C 
ATOM     12  N   UNL     1       5.243   5.507  17.814  0.00  0.00    +0.000 N 
ATOM     13  C   UNL     1       6.659   5.526  18.117  0.00  0.00    +0.000 C 
ATOM     14  N   UNL     1       7.333   4.434  18.239  0.00  0.00    +0.000 NA
ATOM     15  N   UNL     1       7.355   6.758  18.317  0.00  0.00    +0.000 N 
ATOM     16  C   UNL     1       4.546   6.657  17.238  0.00  0.00    +0.000 C 
ATOM     17  H   UNL     1       6.956   3.492  18.097  0.00  0.00    +0.000 HD
ATOM     18  H   UNL     1       6.866   7.662  18.314  0.00  0.00    +0.000 HD
ENDROOT
BRANCH   1  20
ATOM     19  C   UNL     1       0.527   9.179  21.777  0.00  0.00    +0.000 C 
ATOM     20  O   UNL     1       0.359   8.318  20.713  0.00  0.00    +0.000 OA
ENDBRANCH   1  20
BRANCH  15  21
ATOM     21  O   UNL     1       8.643   6.748  18.692  0.00  0.00    +0.000 OA
ATOM     22  H   UNL     1       9.045   7.549  18.269  0.00  0.00    +0.000 HD
ENDBRANCH  15  21
TORSDOF 2
ENDMDL
MODEL 7
REMARK VINA RESULT:      -6.3      6.444      8.419
REMARK  Name = 
REMARK  3 active torsions:
REMARK  status: ('A' for Active; 'I' for Inactive)
REMARK    1  A    between atoms: C_1  and  O_2
REMARK    2  A    between atoms: O_2  and  C_3
REMARK    3  A    between atoms: N_17  and  O_18
REMARK                            x       y       z     vdW  Elec       q    Type
REMARK                         _______ _______ _______ _____ _____    ______ ____
ROOT
ATOM      1  C   UNL     1       1.879   8.233  19.420  0.00  0.00    +0.000 A 
ATOM      2  C   UNL     1       2.199   8.943  18.242  0.00  0.00    +0.000 A 
ATOM      3  C   UNL     1       1.577  10.158  17.949  0.00  0.00    +0.000 A 
ATOM      4  C   UNL     1       0.629  10.695  18.824  0.00  0.00    +0.000 A 
ATOM      5  C   UNL     1       0.332  10.020  20.020  0.00  0.00    +0.000 A 
ATOM      6  C   UNL     1       0.934   8.783  20.309  0.00  0.00    +0.000 A 
ATOM      7  C   UNL     1       0.531   8.115  21.608  0.00  0.00    +0.000 C 
ATOM      8  C   UNL     1       0.704   9.136  22.745  0.00  0.00    +0.000 C 
ATOM      9  C   UNL     1      -0.023  10.487  22.467  0.00  0.00    +0.000 C 
ATOM     10  C   UNL     1      -0.633  10.584  21.042  0.00  0.00    +0.000 C 
ATOM     11  C   UNL     1      -1.072  12.030  20.728  0.00  0.00    +0.000 C 
ATOM     12  N   UNL     1      -1.287  12.135  19.293  0.00  0.00    +0.000 N 
ATOM     13  C   UNL     1      -2.605  12.294  18.715  0.00  0.00    +0.000 C 
ATOM     14  N   UNL     1      -3.574  12.818  19.386  0.00  0.00    +0.000 NA
ATOM     15  N   UNL     1      -2.887  11.850  17.385  0.00  0.00    +0.000 N 
ATOM     16  C   UNL     1      -0.084  11.975  18.477  0.00  0.00    +0.000 C 
ATOM     17  H   UNL     1      -3.493  13.194  20.336  0.00  0.00    +0.000 HD
ATOM     18  H   UNL     1      -2.187  11.352  16.822  0.00  0.00    +0.000 HD
ENDROOT
BRANCH   1  20
ATOM     19  C   UNL     1       3.156   6.244  18.830  0.00  0.00    +0.000 C 
ATOM     20  O   UNL     1       2.451   7.035  19.714  0.00  0.00    +0.000 OA
ENDBRANCH   1  20
BRANCH  15  21
ATOM     21  O   UNL     1      -4.138  11.920  16.906  0.00  0.00    +0.000 OA
ATOM     22  H   UNL     1      -4.632  11.188  17.356  0.00  0.00    +0.000 HD
ENDBRANCH  15  21
TORSDOF 2
ENDMDL
MODEL 8
REMARK VINA RESULT:      -6.2      2.794      6.096
REMARK  Name = 
REMARK  3 active torsions:
REMARK  status: ('A' for Active; 'I' for Inactive)
REMARK    1  A    between atoms: C_1  and  O_2
REMARK    2  A    between atoms: O_2  and  C_3
REMARK    3  A    between atoms: N_17  and  O_18
REMARK                            x       y       z     vdW  Elec       q    Type
REMARK                         _______ _______ _______ _____ _____    ______ ____
ROOT
ATOM      1  C   UNL     1       5.862   5.016  15.532  0.00  0.00    +0.000 A 
ATOM      2  C   UNL     1       5.819   3.635  15.235  0.00  0.00    +0.000 A 
ATOM      3  C   UNL     1       5.112   2.751  16.051  0.00  0.00    +0.000 A 
ATOM      4  C   UNL     1       4.429   3.220  17.176  0.00  0.00    +0.000 A 
ATOM      5  C   UNL     1       4.429   4.596  17.459  0.00  0.00    +0.000 A 
ATOM      6  C   UNL     1       5.159   5.490  16.658  0.00  0.00    +0.000 A 
ATOM      7  C   UNL     1       5.123   6.951  17.057  0.00  0.00    +0.000 C 
ATOM      8  C   UNL     1       3.651   7.369  17.214  0.00  0.00    +0.000 C 
ATOM      9  C   UNL     1       2.849   6.425  18.162  0.00  0.00    +0.000 C 
ATOM     10  C   UNL     1       3.650   5.176  18.622  0.00  0.00    +0.000 C 
ATOM     11  C   UNL     1       2.722   4.148  19.304  0.00  0.00    +0.000 C 
ATOM     12  N   UNL     1       3.433   2.881  19.380  0.00  0.00    +0.000 N 
ATOM     13  C   UNL     1       3.901   2.327  20.633  0.00  0.00    +0.000 C 
ATOM     14  N   UNL     1       3.339   2.631  21.753  0.00  0.00    +0.000 NA
ATOM     15  N   UNL     1       5.023   1.441  20.676  0.00  0.00    +0.000 N 
ATOM     16  C   UNL     1       3.718   2.257  18.088  0.00  0.00    +0.000 C 
ATOM     17  H   UNL     1       2.516   3.234  21.852  0.00  0.00    +0.000 HD
ATOM     18  H   UNL     1       5.568   1.218  19.834  0.00  0.00    +0.000 HD
ENDROOT
BRANCH   1  20
ATOM     19  C   UNL     1       7.505   5.554  13.817  0.00  0.00    +0.000 C 
ATOM     20  O   UNL     1       6.565   5.893  14.767  0.00  0.00    +0.000 OA
ENDBRANCH   1  20
BRANCH  15  21
ATOM     21  O   UNL     1       5.498   1.017  21.856  0.00  0.00    +0.000 OA
ATOM     22  H   UNL     1       6.469   0.879  21.714  0.00  0.00    +0.000 HD
ENDBRANCH  15  21
TORSDOF 2
ENDMDL
MODEL 9
REMARK VINA RESULT:      -6.2      8.946     11.351
REMARK  Name = 
REMARK  3 active torsions:
REMARK  status: ('A' for Active; 'I' for Inactive)
REMARK    1  A    between atoms: C_1  and  O_2
REMARK    2  A    between atoms: O_2  and  C_3
REMARK    3  A    between atoms: N_17  and  O_18
REMARK                            x       y       z     vdW  Elec       q    Type
REMARK                         _______ _______ _______ _____ _____    ______ ____
ROOT
ATOM      1  C   UNL     1      -0.662  10.380  18.569  0.00  0.00    +0.000 A 
ATOM      2  C   UNL     1      -1.266   9.911  17.381  0.00  0.00    +0.000 A 
ATOM      3  C   UNL     1      -2.604  10.195  17.099  0.00  0.00    +0.000 A 
ATOM      4  C   UNL     1      -3.367  10.956  17.989  0.00  0.00    +0.000 A 
ATOM      5  C   UNL     1      -2.767  11.464  19.153  0.00  0.00    +0.000 A 
ATOM      6  C   UNL     1      -1.429  11.161  19.458  0.00  0.00    +0.000 A 
ATOM      7  C   UNL     1      -0.877  11.730  20.749  0.00  0.00    +0.000 C 
ATOM      8  C   UNL     1      -1.156  13.242  20.765  0.00  0.00    +0.000 C 
ATOM      9  C   UNL     1      -2.654  13.586  20.501  0.00  0.00    +0.000 C 
ATOM     10  C   UNL     1      -3.520  12.354  20.122  0.00  0.00    +0.000 C 
ATOM     11  C   UNL     1      -4.902  12.794  19.592  0.00  0.00    +0.000 C 
ATOM     12  N   UNL     1      -5.512  11.654  18.925  0.00  0.00    +0.000 N 
ATOM     13  C   UNL     1      -6.659  10.957  19.470  0.00  0.00    +0.000 C 
ATOM     14  N   UNL     1      -7.482  11.544  20.270  0.00  0.00    +0.000 NA
ATOM     15  N   UNL     1      -6.904   9.584  19.159  0.00  0.00    +0.000 N 
ATOM     16  C   UNL     1      -4.824  11.211  17.712  0.00  0.00    +0.000 C 
ATOM     17  H   UNL     1      -7.428  12.529  20.549  0.00  0.00    +0.000 HD
ATOM     18  H   UNL     1      -6.248   9.031  18.594  0.00  0.00    +0.000 HD
ENDROOT
BRANCH   1  20
ATOM     19  C   UNL     1       1.536   9.475  18.043  0.00  0.00    +0.000 C 
ATOM     20  O   UNL     1       0.630  10.095  18.878  0.00  0.00    +0.000 OA
ENDBRANCH   1  20
BRANCH  15  21
ATOM     21  O   UNL     1      -7.917   8.933  19.751  0.00  0.00    +0.000 OA
ATOM     22  H   UNL     1      -8.673   9.574  19.756  0.00  0.00    +0.000 HD
ENDBRANCH  15  21
TORSDOF 2
ENDMDL
