MODEL 1
REMARK VINA RESULT:      -7.6      0.000      0.000
REMARK  Name = 
REMARK  6 active torsions:
REMARK  status: ('A' for Active; 'I' for Inactive)
REMARK    1  A    between atoms: C_1  and  O_2
REMARK    2  A    between atoms: O_2  and  C_3
REMARK    3  A    between atoms: C_3  and  C_5
REMARK    4  A    between atoms: C_8  and  C_9
REMARK    5  A    between atoms: C_14  and  N_15
REMARK    6  A    between atoms: C_16  and  C_17
REMARK                            x       y       z     vdW  Elec       q    Type
REMARK                         _______ _______ _______ _____ _____    ______ ____
ROOT
ATOM      1  C   UNL     1       3.434   6.462  18.939  0.00  0.00    +0.000 C 
ATOM      2  O   UNL     1       3.442   5.873  20.024  0.00  0.00    +0.000 OA
ATOM      3  N   UNL     1       2.596   7.556  18.704  0.00  0.00    +0.000 N 
ATOM      4  C   UNL     1       2.615   8.501  17.607  0.00  0.00    +0.000 C 
ATOM      5  C   UNL     1       2.033   9.788  18.188  0.00  0.00    +0.000 C 
ATOM      6  C   UNL     1       0.978   9.309  19.191  0.00  0.00    +0.000 C 
ATOM      7  C   UNL     1       1.545   7.928  19.658  0.00  0.00    +0.000 C 
ENDROOT
BRANCH   6   8
ATOM      8  N   UNL     1       0.742  10.319  20.238  0.00  0.00    +0.000 N 
ATOM      9  C   UNL     1      -0.456  10.303  20.949  0.00  0.00    +0.000 A 
ATOM     10  C   UNL     1      -0.414  10.254  22.439  0.00  0.00    +0.000 C 
ATOM     11  N   UNL     1      -1.289  11.025  20.205  0.00  0.00    +0.000 NA
ATOM     12  C   UNL     1      -0.468  12.074  19.855  0.00  0.00    +0.000 A 
ATOM     13  C   UNL     1      -0.806  13.407  19.608  0.00  0.00    +0.000 A 
ATOM     14  C   UNL     1       0.135  14.368  19.996  0.00  0.00    +0.000 A 
ATOM     15  C   UNL     1       1.391  13.989  20.488  0.00  0.00    +0.000 A 
ATOM     16  C   UNL     1       1.818  12.649  20.478  0.00  0.00    +0.000 A 
ATOM     17  C   UNL     1       0.864  11.703  20.085  0.00  0.00    +0.000 A 
ENDBRANCH   6   8
BRANCH   1  21
ATOM     18  C   UNL     1       5.932   5.026  15.689  0.00  0.00    +0.000 A 
ATOM     19  C   UNL     1       6.262   6.199  16.376  0.00  0.00    +0.000 A 
ATOM     20  C   UNL     1       5.459   6.666  17.424  0.00  0.00    +0.000 A 
ATOM     21  C   UNL     1       4.348   5.943  17.862  0.00  0.00    +0.000 A 
ATOM     22  C   UNL     1       4.016   4.760  17.172  0.00  0.00    +0.000 A 
ATOM     23  C   UNL     1       4.799   4.304  16.090  0.00  0.00    +0.000 A 
BRANCH  18  24
ATOM     24  C   UNL     1       6.791   4.655  14.534  0.00  0.00    +0.000 C 
ATOM     25  O   UNL     1       7.753   5.317  14.165  0.00  0.00    +0.000 OA
BRANCH  24  27
ATOM     26  C   UNL     1       6.291   3.631  12.499  0.00  0.00    +0.000 C 
ATOM     27  O   UNL     1       6.331   3.527  13.922  0.00  0.00    +0.000 OA
ENDBRANCH  24  27
ENDBRANCH  18  24
ENDBRANCH   1  21
TORSDOF 4
ENDMDL
MODEL 2
REMARK VINA RESULT:      -7.4      2.848      3.991
REMARK  Name = 
REMARK  6 active torsions:
REMARK  status: ('A' for Active; 'I' for Inactive)
REMARK    1  A    between atoms: C_1  and  O_2
REMARK    2  A    between atoms: O_2  and  C_3
REMARK    3  A    between atoms: C_3  and  C_5
REMARK    4  A    between atoms: C_8  and  C_9
REMARK    5  A    between atoms: C_14  and  N_15
REMARK    6  A    between atoms: C_16  and  C_17
REMARK                            x       y       z     vdW  Elec       q    Type
REMARK                         _______ _______ _______ _____ _____    ______ ____
ROOT
ATOM      1  C   UNL     1       2.106   8.123  18.321  0.00  0.00    +0.000 C 
ATOM      2  O   UNL     1       2.124   8.765  17.267  0.00  0.00    +0.000 OA
ATOM      3  N   UNL     1       1.643   8.686  19.515  0.00  0.00    +0.000 N 
ATOM      4  C   UNL     1       1.328   8.033  20.768  0.00  0.00    +0.000 C 
ATOM      5  C   UNL     1       0.262   8.917  21.412  0.00  0.00    +0.000 C 
ATOM      6  C   UNL     1       0.644  10.340  20.995  0.00  0.00    +0.000 C 
ATOM      7  C   UNL     1       1.350  10.119  19.616  0.00  0.00    +0.000 C 
ENDROOT
BRANCH   6   8
ATOM      8  N   UNL     1      -0.530  11.231  21.004  0.00  0.00    +0.000 N 
ATOM      9  C   UNL     1      -0.639  12.231  20.041  0.00  0.00    +0.000 A 
ATOM     10  C   UNL     1      -1.873  12.300  19.205  0.00  0.00    +0.000 C 
ATOM     11  N   UNL     1       0.022  13.262  20.560  0.00  0.00    +0.000 NA
ATOM     12  C   UNL     1      -0.426  13.219  21.861  0.00  0.00    +0.000 A 
ATOM     13  C   UNL     1      -0.614  14.272  22.759  0.00  0.00    +0.000 A 
ATOM     14  C   UNL     1      -1.687  14.144  23.650  0.00  0.00    +0.000 A 
ATOM     15  C   UNL     1      -2.442  12.965  23.704  0.00  0.00    +0.000 A 
ATOM     16  C   UNL     1      -2.074  11.814  22.984  0.00  0.00    +0.000 A 
ATOM     17  C   UNL     1      -0.997  11.961  22.101  0.00  0.00    +0.000 A 
ENDBRANCH   6   8
BRANCH   1  21
ATOM     18  C   UNL     1       3.610   4.050  18.417  0.00  0.00    +0.000 A 
ATOM     19  C   UNL     1       2.267   4.306  18.125  0.00  0.00    +0.000 A 
ATOM     20  C   UNL     1       1.777   5.617  18.094  0.00  0.00    +0.000 A 
ATOM     21  C   UNL     1       2.625   6.711  18.282  0.00  0.00    +0.000 A 
ATOM     22  C   UNL     1       3.979   6.454  18.574  0.00  0.00    +0.000 A 
ATOM     23  C   UNL     1       4.471   5.134  18.645  0.00  0.00    +0.000 A 
BRANCH  18  24
ATOM     24  C   UNL     1       4.021   2.625  18.516  0.00  0.00    +0.000 C 
ATOM     25  O   UNL     1       3.657   1.758  17.731  0.00  0.00    +0.000 OA
BRANCH  24  27
ATOM     26  C   UNL     1       4.048   2.205  20.810  0.00  0.00    +0.000 C 
ATOM     27  O   UNL     1       4.800   2.414  19.615  0.00  0.00    +0.000 OA
ENDBRANCH  24  27
ENDBRANCH  18  24
ENDBRANCH   1  21
TORSDOF 4
ENDMDL
MODEL 3
REMARK VINA RESULT:      -7.4      1.460      2.519
REMARK  Name = 
REMARK  6 active torsions:
REMARK  status: ('A' for Active; 'I' for Inactive)
REMARK    1  A    between atoms: C_1  and  O_2
REMARK    2  A    between atoms: O_2  and  C_3
REMARK    3  A    between atoms: C_3  and  C_5
REMARK    4  A    between atoms: C_8  and  C_9
REMARK    5  A    between atoms: C_14  and  N_15
REMARK    6  A    between atoms: C_16  and  C_17
REMARK                            x       y       z     vdW  Elec       q    Type
REMARK                         _______ _______ _______ _____ _____    ______ ____
ROOT
ATOM      1  C   UNL     1       2.335   7.242  19.302  0.00  0.00    +0.000 C 
ATOM      2  O   UNL     1       2.017   6.755  20.391  0.00  0.00    +0.000 OA
ATOM      3  N   UNL     1       1.773   8.435  18.838  0.00  0.00    +0.000 N 
ATOM      4  C   UNL     1       2.184   9.265  17.725  0.00  0.00    +0.000 C 
ATOM      5  C   UNL     1       1.737  10.676  18.104  0.00  0.00    +0.000 C 
ATOM      6  C   UNL     1       0.431  10.466  18.878  0.00  0.00    +0.000 C 
ATOM      7  C   UNL     1       0.634   9.056  19.524  0.00  0.00    +0.000 C 
ENDROOT
BRANCH   6   8
ATOM      8  N   UNL     1       0.173  11.587  19.799  0.00  0.00    +0.000 N 
ATOM      9  C   UNL     1       1.161  11.974  20.702  0.00  0.00    +0.000 A 
ATOM     10  C   UNL     1       1.605  13.398  20.723  0.00  0.00    +0.000 C 
ATOM     11  N   UNL     1       0.964  11.191  21.759  0.00  0.00    +0.000 NA
ATOM     12  C   UNL     1      -0.408  11.240  21.857  0.00  0.00    +0.000 A 
ATOM     13  C   UNL     1      -1.209  11.159  22.999  0.00  0.00    +0.000 A 
ATOM     14  C   UNL     1      -2.380  11.925  22.991  0.00  0.00    +0.000 A 
ATOM     15  C   UNL     1      -2.772  12.630  21.845  0.00  0.00    +0.000 A 
ATOM     16  C   UNL     1      -2.099  12.487  20.619  0.00  0.00    +0.000 A 
ATOM     17  C   UNL     1      -0.932  11.715  20.646  0.00  0.00    +0.000 A 
ENDBRANCH   6   8
BRANCH   1  21
ATOM     18  C   UNL     1       5.389   5.167  17.014  0.00  0.00    +0.000 A 
ATOM     19  C   UNL     1       4.689   4.507  18.030  0.00  0.00    +0.000 A 
ATOM     20  C   UNL     1       3.705   5.173  18.771  0.00  0.00    +0.000 A 
ATOM     21  C   UNL     1       3.341   6.488  18.474  0.00  0.00    +0.000 A 
ATOM     22  C   UNL     1       4.044   7.152  17.450  0.00  0.00    +0.000 A 
ATOM     23  C   UNL     1       5.065   6.501  16.725  0.00  0.00    +0.000 A 
BRANCH  18  24
ATOM     24  C   UNL     1       6.478   4.410  16.342  0.00  0.00    +0.000 C 
ATOM     25  O   UNL     1       7.666   4.565  16.595  0.00  0.00    +0.000 OA
BRANCH  24  27
ATOM     26  C   UNL     1       6.272   4.003  14.055  0.00  0.00    +0.000 C 
ATOM     27  O   UNL     1       5.979   3.577  15.386  0.00  0.00    +0.000 OA
ENDBRANCH  24  27
ENDBRANCH  18  24
ENDBRANCH   1  21
TORSDOF 4
ENDMDL
MODEL 4
REMARK VINA RESULT:      -7.4      0.593      1.047
REMARK  Name = 
REMARK  6 active torsions:
REMARK  status: ('A' for Active; 'I' for Inactive)
REMARK    1  A    between atoms: C_1  and  O_2
REMARK    2  A    between atoms: O_2  and  C_3
REMARK    3  A    between atoms: C_3  and  C_5
REMARK    4  A    between atoms: C_8  and  C_9
REMARK    5  A    between atoms: C_14  and  N_15
REMARK    6  A    between atoms: C_16  and  C_17
REMARK                            x       y       z     vdW  Elec       q    Type
REMARK                         _______ _______ _______ _____ _____    ______ ____
ROOT
ATOM      1  C   UNL     1       2.985   6.793  18.882  0.00  0.00    +0.000 C 
ATOM      2  O   UNL     1       3.009   6.171  19.948  0.00  0.00    +0.000 OA
ATOM      3  N   UNL     1       2.202   7.941  18.719  0.00  0.00    +0.000 N 
ATOM      4  C   UNL     1       2.225   8.916  17.649  0.00  0.00    +0.000 C 
ATOM      5  C   UNL     1       1.748  10.215  18.295  0.00  0.00    +0.000 C 
ATOM      6  C   UNL     1       0.715   9.767  19.334  0.00  0.00    +0.000 C 
ATOM      7  C   UNL     1       1.221   8.342  19.733  0.00  0.00    +0.000 C 
ENDROOT
BRANCH   6   8
ATOM      8  N   UNL     1       0.589  10.756  20.420  0.00  0.00    +0.000 N 
ATOM      9  C   UNL     1      -0.611  10.854  21.121  0.00  0.00    +0.000 A 
ATOM     10  C   UNL     1      -0.591  10.741  22.609  0.00  0.00    +0.000 C 
ATOM     11  N   UNL     1      -1.344  11.699  20.402  0.00  0.00    +0.000 NA
ATOM     12  C   UNL     1      -0.402  12.656  20.100  0.00  0.00    +0.000 A 
ATOM     13  C   UNL     1      -0.577  14.028  19.906  0.00  0.00    +0.000 A 
ATOM     14  C   UNL     1       0.467  14.854  20.338  0.00  0.00    +0.000 A 
ATOM     15  C   UNL     1       1.663  14.310  20.822  0.00  0.00    +0.000 A 
ATOM     16  C   UNL     1       1.929  12.930  20.761  0.00  0.00    +0.000 A 
ATOM     17  C   UNL     1       0.875  12.120  20.324  0.00  0.00    +0.000 A 
ENDBRANCH   6   8
BRANCH   1  21
ATOM     18  C   UNL     1       5.551   5.280  15.721  0.00  0.00    +0.000 A 
ATOM     19  C   UNL     1       4.802   4.402  16.512  0.00  0.00    +0.000 A 
ATOM     20  C   UNL     1       3.974   4.885  17.533  0.00  0.00    +0.000 A 
ATOM     21  C   UNL     1       3.815   6.256  17.747  0.00  0.00    +0.000 A 
ATOM     22  C   UNL     1       4.567   7.141  16.950  0.00  0.00    +0.000 A 
ATOM     23  C   UNL     1       5.433   6.659  15.945  0.00  0.00    +0.000 A 
BRANCH  18  24
ATOM     24  C   UNL     1       6.470   4.673  14.722  0.00  0.00    +0.000 C 
ATOM     25  O   UNL     1       7.550   5.160  14.413  0.00  0.00    +0.000 OA
BRANCH  24  27
ATOM     26  C   UNL     1       5.961   3.546  12.745  0.00  0.00    +0.000 C 
ATOM     27  O   UNL     1       5.925   3.551  14.172  0.00  0.00    +0.000 OA
ENDBRANCH  24  27
ENDBRANCH  18  24
ENDBRANCH   1  21
TORSDOF 4
ENDMDL
MODEL 5
REMARK VINA RESULT:      -7.3      3.170      9.456
REMARK  Name = 
REMARK  6 active torsions:
REMARK  status: ('A' for Active; 'I' for Inactive)
REMARK    1  A    between atoms: C_1  and  O_2
REMARK    2  A    between atoms: O_2  and  C_3
REMARK    3  A    between atoms: C_3  and  C_5
REMARK    4  A    between atoms: C_8  and  C_9
REMARK    5  A    between atoms: C_14  and  N_15
REMARK    6  A    between atoms: C_16  and  C_17
REMARK                            x       y       z     vdW  Elec       q    Type
REMARK                         _______ _______ _______ _____ _____    ______ ____
ROOT
ATOM      1  C   UNL     1       1.930   8.289  19.132  0.00  0.00    +0.000 C 
ATOM      2  O   UNL     1       2.476   8.818  18.159  0.00  0.00    +0.000 OA
ATOM      3  N   UNL     1       1.926   6.902  19.308  0.00  0.00    +0.000 N 
ATOM      4  C   UNL     1       1.554   6.132  20.476  0.00  0.00    +0.000 C 
ATOM      5  C   UNL     1       2.376   4.849  20.377  0.00  0.00    +0.000 C 
ATOM      6  C   UNL     1       2.463   4.568  18.873  0.00  0.00    +0.000 C 
ATOM      7  C   UNL     1       2.390   6.000  18.248  0.00  0.00    +0.000 C 
ENDROOT
BRANCH   6   8
ATOM      8  N   UNL     1       3.654   3.762  18.550  0.00  0.00    +0.000 N 
ATOM      9  C   UNL     1       4.449   3.270  19.583  0.00  0.00    +0.000 A 
ATOM     10  C   UNL     1       4.736   1.808  19.642  0.00  0.00    +0.000 C 
ATOM     11  N   UNL     1       5.307   4.255  19.835  0.00  0.00    +0.000 NA
ATOM     12  C   UNL     1       5.637   4.636  18.554  0.00  0.00    +0.000 A 
ATOM     13  C   UNL     1       6.842   5.159  18.078  0.00  0.00    +0.000 A 
ATOM     14  C   UNL     1       7.208   4.789  16.779  0.00  0.00    +0.000 A 
ATOM     15  C   UNL     1       6.344   4.035  15.973  0.00  0.00    +0.000 A 
ATOM     16  C   UNL     1       5.025   3.746  16.368  0.00  0.00    +0.000 A 
ATOM     17  C   UNL     1       4.677   4.126  17.669  0.00  0.00    +0.000 A 
ENDBRANCH   6   8
BRANCH   1  21
ATOM     18  C   UNL     1      -0.239  10.829  21.909  0.00  0.00    +0.000 A 
ATOM     19  C   UNL     1       0.447   9.698  22.365  0.00  0.00    +0.000 A 
ATOM     20  C   UNL     1       1.146   8.876  21.473  0.00  0.00    +0.000 A 
ATOM     21  C   UNL     1       1.242   9.196  20.117  0.00  0.00    +0.000 A 
ATOM     22  C   UNL     1       0.553  10.336  19.657  0.00  0.00    +0.000 A 
ATOM     23  C   UNL     1      -0.186  11.147  20.544  0.00  0.00    +0.000 A 
BRANCH  18  24
ATOM     24  C   UNL     1      -1.028  11.591  22.912  0.00  0.00    +0.000 C 
ATOM     25  O   UNL     1      -2.098  11.207  23.366  0.00  0.00    +0.000 OA
BRANCH  24  27
ATOM     26  C   UNL     1      -1.341  13.877  23.257  0.00  0.00    +0.000 C 
ATOM     27  O   UNL     1      -0.429  12.780  23.208  0.00  0.00    +0.000 OA
ENDBRANCH  24  27
ENDBRANCH  18  24
ENDBRANCH   1  21
TORSDOF 4
ENDMDL
MODEL 6
REMARK VINA RESULT:      -7.3      2.716      4.138
REMARK  Name = 
REMARK  6 active torsions:
REMARK  status: ('A' for Active; 'I' for Inactive)
REMARK    1  A    between atoms: C_1  and  O_2
REMARK    2  A    between atoms: O_2  and  C_3
REMARK    3  A    between atoms: C_3  and  C_5
REMARK    4  A    between atoms: C_8  and  C_9
REMARK    5  A    between atoms: C_14  and  N_15
REMARK    6  A    between atoms: C_16  and  C_17
REMARK                            x       y       z     vdW  Elec       q    Type
REMARK                         _______ _______ _______ _____ _____    ______ ____
ROOT
ATOM      1  C   UNL     1       1.591   8.912  18.761  0.00  0.00    +0.000 C 
ATOM      2  O   UNL     1       1.354   9.392  17.649  0.00  0.00    +0.000 OA
ATOM      3  N   UNL     1       1.131   9.517  19.936  0.00  0.00    +0.000 N 
ATOM      4  C   UNL     1       1.104   8.989  21.283  0.00  0.00    +0.000 C 
ATOM      5  C   UNL     1      -0.069   9.698  21.957  0.00  0.00    +0.000 C 
ATOM      6  C   UNL     1      -0.071  11.100  21.340  0.00  0.00    +0.000 C 
ATOM      7  C   UNL     1       0.525  10.852  19.915  0.00  0.00    +0.000 C 
ENDROOT
BRANCH   6   8
ATOM      8  N   UNL     1      -1.414  11.706  21.402  0.00  0.00    +0.000 N 
ATOM      9  C   UNL     1      -1.799  12.619  20.422  0.00  0.00    +0.000 A 
ATOM     10  C   UNL     1      -3.062  12.378  19.665  0.00  0.00    +0.000 C 
ATOM     11  N   UNL     1      -1.359  13.790  20.873  0.00  0.00    +0.000 NA
ATOM     12  C   UNL     1      -1.712  13.698  22.200  0.00  0.00    +0.000 A 
ATOM     13  C   UNL     1      -2.081  14.717  23.082  0.00  0.00    +0.000 A 
ATOM     14  C   UNL     1      -3.045  14.388  24.041  0.00  0.00    +0.000 A 
ATOM     15  C   UNL     1      -3.512  13.073  24.173  0.00  0.00    +0.000 A 
ATOM     16  C   UNL     1      -2.935  12.006  23.460  0.00  0.00    +0.000 A 
ATOM     17  C   UNL     1      -1.971  12.355  22.508  0.00  0.00    +0.000 A 
ENDBRANCH   6   8
BRANCH   1  21
ATOM     18  C   UNL     1       3.813   5.180  18.829  0.00  0.00    +0.000 A 
ATOM     19  C   UNL     1       4.080   6.151  17.857  0.00  0.00    +0.000 A 
ATOM     20  C   UNL     1       3.365   7.354  17.831  0.00  0.00    +0.000 A 
ATOM     21  C   UNL     1       2.417   7.655  18.812  0.00  0.00    +0.000 A 
ATOM     22  C   UNL     1       2.149   6.679  19.792  0.00  0.00    +0.000 A 
ATOM     23  C   UNL     1       2.837   5.447  19.801  0.00  0.00    +0.000 A 
BRANCH  18  24
ATOM     24  C   UNL     1       4.556   3.897  18.725  0.00  0.00    +0.000 C 
ATOM     25  O   UNL     1       5.564   3.644  19.373  0.00  0.00    +0.000 OA
BRANCH  24  27
ATOM     26  C   UNL     1       3.360   1.932  18.339  0.00  0.00    +0.000 C 
ATOM     27  O   UNL     1       4.000   3.082  17.785  0.00  0.00    +0.000 OA
ENDBRANCH  24  27
ENDBRANCH  18  24
ENDBRANCH   1  21
TORSDOF 4
ENDMDL
MODEL 7
REMARK VINA RESULT:      -7.3      3.266      9.475
REMARK  Name = 
REMARK  6 active torsions:
REMARK  status: ('A' for Active; 'I' for Inactive)
REMARK    1  A    between atoms: C_1  and  O_2
REMARK    2  A    between atoms: O_2  and  C_3
REMARK    3  A    between atoms: C_3  and  C_5
REMARK    4  A    between atoms: C_8  and  C_9
REMARK    5  A    between atoms: C_14  and  N_15
REMARK    6  A    between atoms: C_16  and  C_17
REMARK                            x       y       z     vdW  Elec       q    Type
REMARK                         _______ _______ _______ _____ _____    ______ ____
ROOT
ATOM      1  C   UNL     1       1.471   9.638  18.860  0.00  0.00    +0.000 C 
ATOM      2  O   UNL     1       1.666  10.301  17.837  0.00  0.00    +0.000 OA
ATOM      3  N   UNL     1       1.837   8.291  18.943  0.00  0.00    +0.000 N 
ATOM      4  C   UNL     1       1.906   7.434  20.108  0.00  0.00    +0.000 C 
ATOM      5  C   UNL     1       2.976   6.399  19.769  0.00  0.00    +0.000 C 
ATOM      6  C   UNL     1       2.822   6.171  18.262  0.00  0.00    +0.000 C 
ATOM      7  C   UNL     1       2.281   7.549  17.757  0.00  0.00    +0.000 C 
ENDROOT
BRANCH   6   8
ATOM      8  N   UNL     1       4.082   5.693  17.664  0.00  0.00    +0.000 N 
ATOM      9  C   UNL     1       4.405   4.340  17.740  0.00  0.00    +0.000 A 
ATOM     10  C   UNL     1       4.720   3.600  16.483  0.00  0.00    +0.000 C 
ATOM     11  N   UNL     1       5.029   4.216  18.908  0.00  0.00    +0.000 NA
ATOM     12  C   UNL     1       5.837   5.330  18.882  0.00  0.00    +0.000 A 
ATOM     13  C   UNL     1       7.101   5.510  19.449  0.00  0.00    +0.000 A 
ATOM     14  C   UNL     1       7.989   6.325  18.738  0.00  0.00    +0.000 A 
ATOM     15  C   UNL     1       7.575   7.011  17.588  0.00  0.00    +0.000 A 
ATOM     16  C   UNL     1       6.229   7.034  17.182  0.00  0.00    +0.000 A 
ATOM     17  C   UNL     1       5.355   6.216  17.907  0.00  0.00    +0.000 A 
ENDBRANCH   6   8
BRANCH   1  21
ATOM     18  C   UNL     1      -0.601  11.719  22.060  0.00  0.00    +0.000 A 
ATOM     19  C   UNL     1      -0.788  10.347  21.865  0.00  0.00    +0.000 A 
ATOM     20  C   UNL     1      -0.124   9.672  20.834  0.00  0.00    +0.000 A 
ATOM     21  C   UNL     1       0.799  10.329  20.016  0.00  0.00    +0.000 A 
ATOM     22  C   UNL     1       0.990  11.710  20.213  0.00  0.00    +0.000 A 
ATOM     23  C   UNL     1       0.294  12.405  21.226  0.00  0.00    +0.000 A 
BRANCH  18  24
ATOM     24  C   UNL     1      -1.415  12.369  23.120  0.00  0.00    +0.000 C 
ATOM     25  O   UNL     1      -2.530  11.983  23.449  0.00  0.00    +0.000 OA
BRANCH  24  27
ATOM     26  C   UNL     1      -1.669  14.540  23.935  0.00  0.00    +0.000 C 
ATOM     27  O   UNL     1      -0.782  13.466  23.624  0.00  0.00    +0.000 OA
ENDBRANCH  24  27
ENDBRANCH  18  24
ENDBRANCH   1  21
TORSDOF 4
ENDMDL
MODEL 8
REMARK VINA RESULT:      -7.3      2.685      4.134
REMARK  Name = 
REMARK  6 active torsions:
REMARK  status: ('A' for Active; 'I' for Inactive)
REMARK    1  A    between atoms: C_1  and  O_2
REMARK    2  A    between atoms: O_2  and  C_3
REMARK    3  A    between atoms: C_3  and  C_5
REMARK    4  A    between atoms: C_8  and  C_9
REMARK    5  A    between atoms: C_14  and  N_15
REMARK    6  A    between atoms: C_16  and  C_17
REMARK                            x       y       z     vdW  Elec       q    Type
REMARK                         _______ _______ _______ _____ _____    ______ ____
ROOT
ATOM      1  C   UNL     1       1.786   8.696  18.912  0.00  0.00    +0.000 C 
ATOM      2  O   UNL     1       1.839   9.396  17.896  0.00  0.00    +0.000 OA
ATOM      3  N   UNL     1       1.212   9.165  20.097  0.00  0.00    +0.000 N 
ATOM      4  C   UNL     1       0.852   8.428  21.290  0.00  0.00    +0.000 C 
ATOM      5  C   UNL     1      -0.306   9.215  21.901  0.00  0.00    +0.000 C 
ATOM      6  C   UNL     1       0.021  10.678  21.586  0.00  0.00    +0.000 C 
ATOM      7  C   UNL     1       0.830  10.573  20.252  0.00  0.00    +0.000 C 
ENDROOT
BRANCH   6   8
ATOM      8  N   UNL     1      -1.201  11.502  21.559  0.00  0.00    +0.000 N 
ATOM      9  C   UNL     1      -1.328  12.508  20.603  0.00  0.00    +0.000 A 
ATOM     10  C   UNL     1      -2.530  12.519  19.719  0.00  0.00    +0.000 C 
ATOM     11  N   UNL     1      -0.747  13.566  21.161  0.00  0.00    +0.000 NA
ATOM     12  C   UNL     1      -1.244  13.480  22.442  0.00  0.00    +0.000 A 
ATOM     13  C   UNL     1      -1.526  14.509  23.344  0.00  0.00    +0.000 A 
ATOM     14  C   UNL     1      -2.624  14.309  24.189  0.00  0.00    +0.000 A 
ATOM     15  C   UNL     1      -3.314  13.089  24.199  0.00  0.00    +0.000 A 
ATOM     16  C   UNL     1      -2.853  11.970  23.481  0.00  0.00    +0.000 A 
ATOM     17  C   UNL     1      -1.752  12.189  22.644  0.00  0.00    +0.000 A 
ENDBRANCH   6   8
BRANCH   1  21
ATOM     18  C   UNL     1       3.705   4.803  18.755  0.00  0.00    +0.000 A 
ATOM     19  C   UNL     1       2.832   5.125  19.799  0.00  0.00    +0.000 A 
ATOM     20  C   UNL     1       2.212   6.379  19.854  0.00  0.00    +0.000 A 
ATOM     21  C   UNL     1       2.388   7.319  18.836  0.00  0.00    +0.000 A 
ATOM     22  C   UNL     1       3.265   6.994  17.783  0.00  0.00    +0.000 A 
ATOM     23  C   UNL     1       3.924   5.747  17.741  0.00  0.00    +0.000 A 
BRANCH  18  24
ATOM     24  C   UNL     1       4.387   3.483  18.826  0.00  0.00    +0.000 C 
ATOM     25  O   UNL     1       5.191   3.183  19.699  0.00  0.00    +0.000 OA
BRANCH  24  27
ATOM     26  C   UNL     1       2.742   2.110  17.904  0.00  0.00    +0.000 C 
ATOM     27  O   UNL     1       4.038   2.693  17.771  0.00  0.00    +0.000 OA
ENDBRANCH  24  27
ENDBRANCH  18  24
ENDBRANCH   1  21
TORSDOF 4
ENDMDL
MODEL 9
REMARK VINA RESULT:      -7.3      3.162      4.332
REMARK  Name = 
REMARK  6 active torsions:
REMARK  status: ('A' for Active; 'I' for Inactive)
REMARK    1  A    between atoms: C_1  and  O_2
REMARK    2  A    between atoms: O_2  and  C_3
REMARK    3  A    between atoms: C_3  and  C_5
REMARK    4  A    between atoms: C_8  and  C_9
REMARK    5  A    between atoms: C_14  and  N_15
REMARK    6  A    between atoms: C_16  and  C_17
REMARK                            x       y       z     vdW  Elec       q    Type
REMARK                         _______ _______ _______ _____ _____    ______ ____
ROOT
ATOM      1  C   UNL     1       1.819   8.126  19.322  0.00  0.00    +0.000 C 
ATOM      2  O   UNL     1       1.784   8.577  18.174  0.00  0.00    +0.000 OA
ATOM      3  N   UNL     1       1.355   8.863  20.416  0.00  0.00    +0.000 N 
ATOM      4  C   UNL     1       1.101   8.422  21.771  0.00  0.00    +0.000 C 
ATOM      5  C   UNL     1       0.006   9.354  22.286  0.00  0.00    +0.000 C 
ATOM      6  C   UNL     1       0.309  10.701  21.621  0.00  0.00    +0.000 C 
ATOM      7  C   UNL     1       0.995  10.278  20.280  0.00  0.00    +0.000 C 
ENDROOT
BRANCH   6   8
ATOM      8  N   UNL     1      -0.907  11.527  21.514  0.00  0.00    +0.000 N 
ATOM      9  C   UNL     1      -0.956  12.556  20.576  0.00  0.00    +0.000 A 
ATOM     10  C   UNL     1      -2.081  12.591  19.597  0.00  0.00    +0.000 C 
ATOM     11  N   UNL     1      -0.423  13.600  21.206  0.00  0.00    +0.000 NA
ATOM     12  C   UNL     1      -1.023  13.483  22.439  0.00  0.00    +0.000 A 
ATOM     13  C   UNL     1      -1.379  14.489  23.341  0.00  0.00    +0.000 A 
ATOM     14  C   UNL     1      -2.543  14.270  24.087  0.00  0.00    +0.000 A 
ATOM     15  C   UNL     1      -3.230  13.051  24.010  0.00  0.00    +0.000 A 
ATOM     16  C   UNL     1      -2.711  11.950  23.305  0.00  0.00    +0.000 A 
ATOM     17  C   UNL     1      -1.545  12.188  22.567  0.00  0.00    +0.000 A 
ENDBRANCH   6   8
BRANCH   1  21
ATOM     18  C   UNL     1       3.365   4.088  19.734  0.00  0.00    +0.000 A 
ATOM     19  C   UNL     1       4.033   5.028  18.942  0.00  0.00    +0.000 A 
ATOM     20  C   UNL     1       3.537   6.330  18.806  0.00  0.00    +0.000 A 
ATOM     21  C   UNL     1       2.407   6.752  19.509  0.00  0.00    +0.000 A 
ATOM     22  C   UNL     1       1.735   5.806  20.308  0.00  0.00    +0.000 A 
ATOM     23  C   UNL     1       2.206   4.481  20.419  0.00  0.00    +0.000 A 
BRANCH  18  24
ATOM     24  C   UNL     1       3.913   2.706  19.748  0.00  0.00    +0.000 C 
ATOM     25  O   UNL     1       5.028   2.424  20.169  0.00  0.00    +0.000 OA
BRANCH  24  27
ATOM     26  C   UNL     1       2.856   2.021  17.785  0.00  0.00    +0.000 C 
ATOM     27  O   UNL     1       3.037   1.824  19.187  0.00  0.00    +0.000 OA
ENDBRANCH  24  27
ENDBRANCH  18  24
ENDBRANCH   1  21
TORSDOF 4
ENDMDL
