MODEL 1
REMARK VINA RESULT:      -8.3      0.000      0.000
REMARK  Name = 
REMARK  10 active torsions:
REMARK  status: ('A' for Active; 'I' for Inactive)
REMARK    1  A    between atoms: C_1  and  C_2
REMARK    2  A    between atoms: C_2  and  N_3
REMARK    3  A    between atoms: C_2  and  C_20
REMARK    4  A    between atoms: N_3  and  C_4
REMARK    5  A    between atoms: C_4  and  C_5
REMARK    6  A    between atoms: N_7  and  C_8
REMARK    7  A    between atoms: C_13  and  C_14
REMARK    8  A    between atoms: N_16  and  C_17
REMARK    9  A    between atoms: C_23  and  S_24
REMARK   10  A    between atoms: S_24  and  N_25
REMARK                            x       y       z     vdW  Elec       q    Type
REMARK                         _______ _______ _______ _____ _____    ______ ____
ROOT
ATOM      1  C   UNL     1       0.947   8.390  20.780  0.00  0.00    +0.000 C 
ENDROOT
BRANCH   1   2
ATOM      2  C   UNL     1       0.934   9.910  20.804  0.00  0.00    +0.000 C 
ATOM      3  O   UNL     1       1.046  10.534  21.856  0.00  0.00    +0.000 OA
ATOM      4  N   UNL     1       0.799  10.474  19.543  0.00  0.00    +0.000 N 
ATOM      5  H   UNL     1       0.351   9.880  18.848  0.00  0.00    +0.000 HD
BRANCH   4   6
ATOM      6  C   UNL     1       0.876  11.866  19.331  0.00  0.00    +0.000 A 
ATOM      7  C   UNL     1       2.095  12.521  19.591  0.00  0.00    +0.000 A 
ATOM      8  C   UNL     1       2.237  13.895  19.388  0.00  0.00    +0.000 A 
ATOM      9  C   UNL     1       1.154  14.639  18.939  0.00  0.00    +0.000 A 
ATOM     10  C   UNL     1      -0.053  13.999  18.656  0.00  0.00    +0.000 A 
ATOM     11  C   UNL     1      -0.201  12.607  18.823  0.00  0.00    +0.000 A 
BRANCH  11  12
ATOM     12  C   UNL     1      -1.529  12.049  18.452  0.00  0.00    +0.000 C 
ATOM     13  O   UNL     1      -2.288  11.685  19.349  0.00  0.00    +0.000 OA
ATOM     14  N   UNL     1      -1.843  11.919  17.106  0.00  0.00    +0.000 N 
ATOM     15  H   UNL     1      -1.101  12.034  16.422  0.00  0.00    +0.000 HD
BRANCH  14  16
ATOM     16  C   UNL     1      -3.034  11.224  16.716  0.00  0.00    +0.000 C 
ATOM     17  C   UNL     1      -3.381  10.876  15.298  0.00  0.00    +0.000 C 
ATOM     18  C   UNL     1      -2.928   9.800  16.240  0.00  0.00    +0.000 C 
ENDBRANCH  14  16
ENDBRANCH  11  12
ENDBRANCH   4   6
ENDBRANCH   1   2
BRANCH   1  19
ATOM     19  N   UNL     1       2.280   7.883  20.392  0.00  0.00    +0.000 NA
ATOM     20  H   UNL     1       2.685   8.548  19.728  0.00  0.00    +0.000 HD
BRANCH  19  22
ATOM     21  C   UNL     1       1.782   5.435  20.616  0.00  0.00    +0.000 C 
ATOM     22  C   UNL     1       2.158   6.595  19.681  0.00  0.00    +0.000 C 
BRANCH  22  23
ATOM     23  C   UNL     1       3.454   6.248  18.958  0.00  0.00    +0.000 A 
ATOM     24  C   UNL     1       3.745   6.837  17.717  0.00  0.00    +0.000 A 
ATOM     25  C   UNL     1       4.850   6.419  16.971  0.00  0.00    +0.000 A 
ATOM     26  C   UNL     1       5.685   5.419  17.476  0.00  0.00    +0.000 A 
ATOM     27  C   UNL     1       5.436   4.845  18.724  0.00  0.00    +0.000 A 
ATOM     28  C   UNL     1       4.328   5.271  19.465  0.00  0.00    +0.000 A 
BRANCH  26  29
ATOM     29  S   UNL     1       6.989   4.776  16.461  0.00  0.00    +0.000 S 
ATOM     30  O   UNL     1       7.241   5.690  15.373  0.00  0.00    +0.000 OA
ATOM     31  O   UNL     1       8.038   4.276  17.315  0.00  0.00    +0.000 OA
BRANCH  29  32
ATOM     32  N   UNL     1       6.267   3.428  15.771  0.00  0.00    +0.000 NA
ATOM     33  H   UNL     1       6.051   3.626  14.793  0.00  0.00    +0.000 HD
ATOM     34  H   UNL     1       6.872   2.617  15.897  0.00  0.00    +0.000 HD
ENDBRANCH  29  32
ENDBRANCH  26  29
ENDBRANCH  22  23
ENDBRANCH  19  22
ENDBRANCH   1  19
TORSDOF 9
ENDMDL
MODEL 2
REMARK VINA RESULT:      -8.1      3.676      9.902
REMARK  Name = 
REMARK  10 active torsions:
REMARK  status: ('A' for Active; 'I' for Inactive)
REMARK    1  A    between atoms: C_1  and  C_2
REMARK    2  A    between atoms: C_2  and  N_3
REMARK    3  A    between atoms: C_2  and  C_20
REMARK    4  A    between atoms: N_3  and  C_4
REMARK    5  A    between atoms: C_4  and  C_5
REMARK    6  A    between atoms: N_7  and  C_8
REMARK    7  A    between atoms: C_13  and  C_14
REMARK    8  A    between atoms: N_16  and  C_17
REMARK    9  A    between atoms: C_23  and  S_24
REMARK   10  A    between atoms: S_24  and  N_25
REMARK                            x       y       z     vdW  Elec       q    Type
REMARK                         _______ _______ _______ _____ _____    ______ ____
ROOT
ATOM      1  C   UNL     1       2.558   8.283  18.002  0.00  0.00    +0.000 C 
ENDROOT
BRANCH   1   2
ATOM      2  C   UNL     1       2.727   6.874  18.549  0.00  0.00    +0.000 C 
ATOM      3  O   UNL     1       3.027   6.676  19.723  0.00  0.00    +0.000 OA
ATOM      4  N   UNL     1       2.496   5.890  17.599  0.00  0.00    +0.000 N 
ATOM      5  H   UNL     1       2.632   6.180  16.631  0.00  0.00    +0.000 HD
BRANCH   4   6
ATOM      6  C   UNL     1       2.491   4.518  17.925  0.00  0.00    +0.000 A 
ATOM      7  C   UNL     1       1.267   3.908  18.257  0.00  0.00    +0.000 A 
ATOM      8  C   UNL     1       1.195   2.551  18.576  0.00  0.00    +0.000 A 
ATOM      9  C   UNL     1       2.354   1.786  18.587  0.00  0.00    +0.000 A 
ATOM     10  C   UNL     1       3.570   2.372  18.238  0.00  0.00    +0.000 A 
ATOM     11  C   UNL     1       3.653   3.733  17.879  0.00  0.00    +0.000 A 
BRANCH  11  12
ATOM     12  C   UNL     1       5.005   4.220  17.496  0.00  0.00    +0.000 C 
ATOM     13  O   UNL     1       5.452   3.912  16.392  0.00  0.00    +0.000 OA
ATOM     14  N   UNL     1       5.728   4.966  18.416  0.00  0.00    +0.000 N 
ATOM     15  H   UNL     1       5.398   5.003  19.376  0.00  0.00    +0.000 HD
BRANCH  14  16
ATOM     16  C   UNL     1       7.097   5.296  18.147  0.00  0.00    +0.000 C 
ATOM     17  C   UNL     1       7.614   6.698  18.008  0.00  0.00    +0.000 C 
ATOM     18  C   UNL     1       7.931   5.905  19.241  0.00  0.00    +0.000 C 
ENDBRANCH  14  16
ENDBRANCH  11  12
ENDBRANCH   4   6
ENDBRANCH   1   2
BRANCH   1  19
ATOM     19  N   UNL     1       1.127   8.643  17.915  0.00  0.00    +0.000 NA
ATOM     20  H   UNL     1       0.932   8.916  16.948  0.00  0.00    +0.000 HD
BRANCH  19  22
ATOM     21  C   UNL     1       0.930   9.518  20.258  0.00  0.00    +0.000 C 
ATOM     22  C   UNL     1       0.838   9.823  18.754  0.00  0.00    +0.000 C 
BRANCH  22  23
ATOM     23  C   UNL     1      -0.545  10.383  18.447  0.00  0.00    +0.000 A 
ATOM     24  C   UNL     1      -1.079  11.410  19.243  0.00  0.00    +0.000 A 
ATOM     25  C   UNL     1      -2.401  11.831  19.071  0.00  0.00    +0.000 A 
ATOM     26  C   UNL     1      -3.192  11.235  18.085  0.00  0.00    +0.000 A 
ATOM     27  C   UNL     1      -2.671  10.238  17.259  0.00  0.00    +0.000 A 
ATOM     28  C   UNL     1      -1.347   9.824  17.435  0.00  0.00    +0.000 A 
BRANCH  26  29
ATOM     29  S   UNL     1      -4.912  11.653  17.977  0.00  0.00    +0.000 S 
ATOM     30  O   UNL     1      -5.190  12.195  16.669  0.00  0.00    +0.000 OA
ATOM     31  O   UNL     1      -5.687  10.582  18.555  0.00  0.00    +0.000 OA
BRANCH  29  32
ATOM     32  N   UNL     1      -5.029  12.943  19.044  0.00  0.00    +0.000 NA
ATOM     33  H   UNL     1      -4.282  12.875  19.737  0.00  0.00    +0.000 HD
ATOM     34  H   UNL     1      -5.019  13.818  18.520  0.00  0.00    +0.000 HD
ENDBRANCH  29  32
ENDBRANCH  26  29
ENDBRANCH  22  23
ENDBRANCH  19  22
ENDBRANCH   1  19
TORSDOF 9
ENDMDL
MODEL 3
REMARK VINA RESULT:      -8.1      6.389      9.919
REMARK  Name = 
REMARK  10 active torsions:
REMARK  status: ('A' for Active; 'I' for Inactive)
REMARK    1  A    between atoms: C_1  and  C_2
REMARK    2  A    between atoms: C_2  and  N_3
REMARK    3  A    between atoms: C_2  and  C_20
REMARK    4  A    between atoms: N_3  and  C_4
REMARK    5  A    between atoms: C_4  and  C_5
REMARK    6  A    between atoms: N_7  and  C_8
REMARK    7  A    between atoms: C_13  and  C_14
REMARK    8  A    between atoms: N_16  and  C_17
REMARK    9  A    between atoms: C_23  and  S_24
REMARK   10  A    between atoms: S_24  and  N_25
REMARK                            x       y       z     vdW  Elec       q    Type
REMARK                         _______ _______ _______ _____ _____    ______ ____
ROOT
ATOM      1  C   UNL     1       8.498   8.254  18.506  0.00  0.00    +0.000 C 
ENDROOT
BRANCH   1   2
ATOM      2  C   UNL     1       7.471   7.534  17.645  0.00  0.00    +0.000 C 
ATOM      3  O   UNL     1       6.616   8.152  17.019  0.00  0.00    +0.000 OA
ATOM      4  N   UNL     1       7.628   6.156  17.651  0.00  0.00    +0.000 N 
ATOM      5  H   UNL     1       8.099   5.775  18.470  0.00  0.00    +0.000 HD
BRANCH   4   6
ATOM      6  C   UNL     1       6.851   5.309  16.833  0.00  0.00    +0.000 A 
ATOM      7  C   UNL     1       7.290   5.051  15.520  0.00  0.00    +0.000 A 
ATOM      8  C   UNL     1       6.571   4.212  14.667  0.00  0.00    +0.000 A 
ATOM      9  C   UNL     1       5.390   3.631  15.109  0.00  0.00    +0.000 A 
ATOM     10  C   UNL     1       4.956   3.859  16.415  0.00  0.00    +0.000 A 
ATOM     11  C   UNL     1       5.689   4.676  17.299  0.00  0.00    +0.000 A 
BRANCH  11  12
ATOM     12  C   UNL     1       5.131   4.807  18.672  0.00  0.00    +0.000 C 
ATOM     13  O   UNL     1       5.906   4.795  19.627  0.00  0.00    +0.000 OA
ATOM     14  N   UNL     1       3.754   4.893  18.824  0.00  0.00    +0.000 N 
ATOM     15  H   UNL     1       3.164   4.683  18.025  0.00  0.00    +0.000 HD
BRANCH  14  16
ATOM     16  C   UNL     1       3.178   4.839  20.136  0.00  0.00    +0.000 C 
ATOM     17  C   UNL     1       1.864   5.462  20.505  0.00  0.00    +0.000 C 
ATOM     18  C   UNL     1       1.970   3.972  20.370  0.00  0.00    +0.000 C 
ENDBRANCH  14  16
ENDBRANCH  11  12
ENDBRANCH   4   6
ENDBRANCH   1   2
BRANCH   1  19
ATOM     19  N   UNL     1       8.507   9.702  18.209  0.00  0.00    +0.000 NA
ATOM     20  H   UNL     1       8.749   9.817  17.221  0.00  0.00    +0.000 HD
BRANCH  19  22
ATOM     21  C   UNL     1       9.241  10.457  20.486  0.00  0.00    +0.000 C 
ATOM     22  C   UNL     1       9.562  10.383  18.985  0.00  0.00    +0.000 C 
BRANCH  22  23
ATOM     23  C   UNL     1       9.798  11.794  18.460  0.00  0.00    +0.000 A 
ATOM     24  C   UNL     1      10.925  12.069  17.668  0.00  0.00    +0.000 A 
ATOM     25  C   UNL     1      11.238  13.382  17.304  0.00  0.00    +0.000 A 
ATOM     26  C   UNL     1      10.409  14.428  17.718  0.00  0.00    +0.000 A 
ATOM     27  C   UNL     1       9.265  14.175  18.474  0.00  0.00    +0.000 A 
ATOM     28  C   UNL     1       8.957  12.858  18.832  0.00  0.00    +0.000 A 
BRANCH  26  29
ATOM     29  S   UNL     1      10.895  16.104  17.396  0.00  0.00    +0.000 S 
ATOM     30  O   UNL     1      10.013  16.999  18.105  0.00  0.00    +0.000 OA
ATOM     31  O   UNL     1      12.331  16.195  17.484  0.00  0.00    +0.000 OA
BRANCH  29  32
ATOM     32  N   UNL     1      10.515  16.274  15.771  0.00  0.00    +0.000 NA
ATOM     33  H   UNL     1       9.513  16.448  15.676  0.00  0.00    +0.000 HD
ATOM     34  H   UNL     1      11.095  17.007  15.363  0.00  0.00    +0.000 HD
ENDBRANCH  29  32
ENDBRANCH  26  29
ENDBRANCH  22  23
ENDBRANCH  19  22
ENDBRANCH   1  19
TORSDOF 9
ENDMDL
MODEL 4
REMARK VINA RESULT:      -8.1      1.940      2.138
REMARK  Name = 
REMARK  10 active torsions:
REMARK  status: ('A' for Active; 'I' for Inactive)
REMARK    1  A    between atoms: C_1  and  C_2
REMARK    2  A    between atoms: C_2  and  N_3
REMARK    3  A    between atoms: C_2  and  C_20
REMARK    4  A    between atoms: N_3  and  C_4
REMARK    5  A    between atoms: C_4  and  C_5
REMARK    6  A    between atoms: N_7  and  C_8
REMARK    7  A    between atoms: C_13  and  C_14
REMARK    8  A    between atoms: N_16  and  C_17
REMARK    9  A    between atoms: C_23  and  S_24
REMARK   10  A    between atoms: S_24  and  N_25
REMARK                            x       y       z     vdW  Elec       q    Type
REMARK                         _______ _______ _______ _____ _____    ______ ____
ROOT
ATOM      1  C   UNL     1       1.912   7.624  20.303  0.00  0.00    +0.000 C 
ENDROOT
BRANCH   1   2
ATOM      2  C   UNL     1       0.745   8.462  20.801  0.00  0.00    +0.000 C 
ATOM      3  O   UNL     1      -0.116   7.987  21.536  0.00  0.00    +0.000 OA
ATOM      4  N   UNL     1       0.785   9.773  20.349  0.00  0.00    +0.000 N 
ATOM      5  H   UNL     1       1.305   9.919  19.484  0.00  0.00    +0.000 HD
BRANCH   4   6
ATOM      6  C   UNL     1      -0.140  10.745  20.783  0.00  0.00    +0.000 A 
ATOM      7  C   UNL     1      -0.054  11.214  22.107  0.00  0.00    +0.000 A 
ATOM      8  C   UNL     1      -0.933  12.185  22.590  0.00  0.00    +0.000 A 
ATOM      9  C   UNL     1      -1.925  12.688  21.761  0.00  0.00    +0.000 A 
ATOM     10  C   UNL     1      -2.008  12.249  20.439  0.00  0.00    +0.000 A 
ATOM     11  C   UNL     1      -1.106  11.295  19.926  0.00  0.00    +0.000 A 
BRANCH  11  12
ATOM     12  C   UNL     1      -1.285  10.941  18.493  0.00  0.00    +0.000 C 
ATOM     13  O   UNL     1      -0.335  10.454  17.882  0.00  0.00    +0.000 OA
ATOM     14  N   UNL     1      -2.504  11.215  17.888  0.00  0.00    +0.000 N 
ATOM     15  H   UNL     1      -3.167  11.806  18.380  0.00  0.00    +0.000 HD
BRANCH  14  16
ATOM     16  C   UNL     1      -2.649  11.052  16.471  0.00  0.00    +0.000 C 
ATOM     17  C   UNL     1      -3.091   9.779  15.810  0.00  0.00    +0.000 C 
ATOM     18  C   UNL     1      -4.031  10.946  15.884  0.00  0.00    +0.000 C 
ENDBRANCH  14  16
ENDBRANCH  11  12
ENDBRANCH   4   6
ENDBRANCH   1   2
BRANCH   1  19
ATOM     19  N   UNL     1       1.932   6.305  20.970  0.00  0.00    +0.000 NA
ATOM     20  H   UNL     1       2.806   6.235  21.497  0.00  0.00    +0.000 HD
BRANCH  19  22
ATOM     21  C   UNL     1       1.877   3.823  20.609  0.00  0.00    +0.000 C 
ATOM     22  C   UNL     1       1.953   5.219  19.970  0.00  0.00    +0.000 C 
BRANCH  22  23
ATOM     23  C   UNL     1       3.205   5.299  19.106  0.00  0.00    +0.000 A 
ATOM     24  C   UNL     1       3.096   5.258  17.706  0.00  0.00    +0.000 A 
ATOM     25  C   UNL     1       4.238   5.180  16.904  0.00  0.00    +0.000 A 
ATOM     26  C   UNL     1       5.500   5.160  17.502  0.00  0.00    +0.000 A 
ATOM     27  C   UNL     1       5.635   5.236  18.889  0.00  0.00    +0.000 A 
ATOM     28  C   UNL     1       4.487   5.318  19.685  0.00  0.00    +0.000 A 
BRANCH  26  29
ATOM     29  S   UNL     1       6.938   4.895  16.496  0.00  0.00    +0.000 S 
ATOM     30  O   UNL     1       6.645   3.892  15.501  0.00  0.00    +0.000 OA
ATOM     31  O   UNL     1       7.513   6.175  16.164  0.00  0.00    +0.000 OA
BRANCH  29  32
ATOM     32  N   UNL     1       7.998   4.174  17.579  0.00  0.00    +0.000 NA
ATOM     33  H   UNL     1       8.484   4.900  18.107  0.00  0.00    +0.000 HD
ATOM     34  H   UNL     1       7.485   3.518  18.167  0.00  0.00    +0.000 HD
ENDBRANCH  29  32
ENDBRANCH  26  29
ENDBRANCH  22  23
ENDBRANCH  19  22
ENDBRANCH   1  19
TORSDOF 9
ENDMDL
MODEL 5
REMARK VINA RESULT:      -8.0      0.964      1.276
REMARK  Name = 
REMARK  10 active torsions:
REMARK  status: ('A' for Active; 'I' for Inactive)
REMARK    1  A    between atoms: C_1  and  C_2
REMARK    2  A    between atoms: C_2  and  N_3
REMARK    3  A    between atoms: C_2  and  C_20
REMARK    4  A    between atoms: N_3  and  C_4
REMARK    5  A    between atoms: C_4  and  C_5
REMARK    6  A    between atoms: N_7  and  C_8
REMARK    7  A    between atoms: C_13  and  C_14
REMARK    8  A    between atoms: N_16  and  C_17
REMARK    9  A    between atoms: C_23  and  S_24
REMARK   10  A    between atoms: S_24  and  N_25
REMARK                            x       y       z     vdW  Elec       q    Type
REMARK                         _______ _______ _______ _____ _____    ______ ____
ROOT
ATOM      1  C   UNL     1       1.237   8.427  20.504  0.00  0.00    +0.000 C 
ENDROOT
BRANCH   1   2
ATOM      2  C   UNL     1       1.004   9.929  20.548  0.00  0.00    +0.000 C 
ATOM      3  O   UNL     1       0.801  10.514  21.608  0.00  0.00    +0.000 OA
ATOM      4  N   UNL     1       1.061  10.525  19.297  0.00  0.00    +0.000 N 
ATOM      5  H   UNL     1       0.858   9.908  18.511  0.00  0.00    +0.000 HD
BRANCH   4   6
ATOM      6  C   UNL     1       0.983  11.923  19.127  0.00  0.00    +0.000 A 
ATOM      7  C   UNL     1       2.136  12.696  19.360  0.00  0.00    +0.000 A 
ATOM      8  C   UNL     1       2.124  14.083  19.196  0.00  0.00    +0.000 A 
ATOM      9  C   UNL     1       0.951  14.720  18.816  0.00  0.00    +0.000 A 
ATOM     10  C   UNL     1      -0.193  13.964  18.559  0.00  0.00    +0.000 A 
ATOM     11  C   UNL     1      -0.187  12.560  18.686  0.00  0.00    +0.000 A 
BRANCH  11  12
ATOM     12  C   UNL     1      -1.464  11.876  18.350  0.00  0.00    +0.000 C 
ATOM     13  O   UNL     1      -2.197  11.509  19.267  0.00  0.00    +0.000 OA
ATOM     14  N   UNL     1      -1.759  11.638  17.014  0.00  0.00    +0.000 N 
ATOM     15  H   UNL     1      -1.025  11.770  16.325  0.00  0.00    +0.000 HD
BRANCH  14  16
ATOM     16  C   UNL     1      -2.889  10.827  16.668  0.00  0.00    +0.000 C 
ATOM     17  C   UNL     1      -4.254  11.369  16.362  0.00  0.00    +0.000 C 
ATOM     18  C   UNL     1      -3.395  10.844  15.251  0.00  0.00    +0.000 C 
ENDBRANCH  14  16
ENDBRANCH  11  12
ENDBRANCH   4   6
ENDBRANCH   1   2
BRANCH   1  19
ATOM     19  N   UNL     1       2.171   8.074  19.414  0.00  0.00    +0.000 NA
ATOM     20  H   UNL     1       1.900   8.609  18.585  0.00  0.00    +0.000 HD
BRANCH  19  22
ATOM     21  C   UNL     1       2.051   5.727  20.291  0.00  0.00    +0.000 C 
ATOM     22  C   UNL     1       2.038   6.647  19.060  0.00  0.00    +0.000 C 
BRANCH  22  23
ATOM     23  C   UNL     1       3.148   6.217  18.109  0.00  0.00    +0.000 A 
ATOM     24  C   UNL     1       3.227   4.882  17.680  0.00  0.00    +0.000 A 
ATOM     25  C   UNL     1       4.320   4.436  16.932  0.00  0.00    +0.000 A 
ATOM     26  C   UNL     1       5.335   5.335  16.592  0.00  0.00    +0.000 A 
ATOM     27  C   UNL     1       5.260   6.674  16.975  0.00  0.00    +0.000 A 
ATOM     28  C   UNL     1       4.161   7.113  17.723  0.00  0.00    +0.000 A 
BRANCH  26  29
ATOM     29  S   UNL     1       6.797   4.735  15.785  0.00  0.00    +0.000 S 
ATOM     30  O   UNL     1       6.461   3.582  14.985  0.00  0.00    +0.000 OA
ATOM     31  O   UNL     1       7.530   5.860  15.259  0.00  0.00    +0.000 OA
BRANCH  29  32
ATOM     32  N   UNL     1       7.697   4.153  17.076  0.00  0.00    +0.000 NA
ATOM     33  H   UNL     1       7.118   3.523  17.633  0.00  0.00    +0.000 HD
ATOM     34  H   UNL     1       8.550   3.718  16.725  0.00  0.00    +0.000 HD
ENDBRANCH  29  32
ENDBRANCH  26  29
ENDBRANCH  22  23
ENDBRANCH  19  22
ENDBRANCH   1  19
TORSDOF 9
ENDMDL
MODEL 6
REMARK VINA RESULT:      -8.0      3.608      9.926
REMARK  Name = 
REMARK  10 active torsions:
REMARK  status: ('A' for Active; 'I' for Inactive)
REMARK    1  A    between atoms: C_1  and  C_2
REMARK    2  A    between atoms: C_2  and  N_3
REMARK    3  A    between atoms: C_2  and  C_20
REMARK    4  A    between atoms: N_3  and  C_4
REMARK    5  A    between atoms: C_4  and  C_5
REMARK    6  A    between atoms: N_7  and  C_8
REMARK    7  A    between atoms: C_13  and  C_14
REMARK    8  A    between atoms: N_16  and  C_17
REMARK    9  A    between atoms: C_23  and  S_24
REMARK   10  A    between atoms: S_24  and  N_25
REMARK                            x       y       z     vdW  Elec       q    Type
REMARK                         _______ _______ _______ _____ _____    ______ ____
ROOT
ATOM      1  C   UNL     1       2.154   8.243  17.921  0.00  0.00    +0.000 C 
ENDROOT
BRANCH   1   2
ATOM      2  C   UNL     1       2.418   6.882  18.547  0.00  0.00    +0.000 C 
ATOM      3  O   UNL     1       2.659   6.766  19.745  0.00  0.00    +0.000 OA
ATOM      4  N   UNL     1       2.342   5.840  17.635  0.00  0.00    +0.000 N 
ATOM      5  H   UNL     1       2.512   6.098  16.664  0.00  0.00    +0.000 HD
BRANCH   4   6
ATOM      6  C   UNL     1       2.444   4.489  18.029  0.00  0.00    +0.000 A 
ATOM      7  C   UNL     1       1.282   3.825  18.465  0.00  0.00    +0.000 A 
ATOM      8  C   UNL     1       1.317   2.484  18.855  0.00  0.00    +0.000 A 
ATOM      9  C   UNL     1       2.521   1.793  18.833  0.00  0.00    +0.000 A 
ATOM     10  C   UNL     1       3.675   2.432  18.380  0.00  0.00    +0.000 A 
ATOM     11  C   UNL     1       3.648   3.775  17.950  0.00  0.00    +0.000 A 
BRANCH  11  12
ATOM     12  C   UNL     1       4.942   4.322  17.460  0.00  0.00    +0.000 C 
ATOM     13  O   UNL     1       5.285   4.081  16.303  0.00  0.00    +0.000 OA
ATOM     14  N   UNL     1       5.733   5.047  18.340  0.00  0.00    +0.000 N 
ATOM     15  H   UNL     1       5.500   5.029  19.328  0.00  0.00    +0.000 HD
BRANCH  14  16
ATOM     16  C   UNL     1       7.058   5.433  17.954  0.00  0.00    +0.000 C 
ATOM     17  C   UNL     1       7.501   6.855  17.765  0.00  0.00    +0.000 C 
ATOM     18  C   UNL     1       7.955   6.087  18.971  0.00  0.00    +0.000 C 
ENDBRANCH  14  16
ENDBRANCH  11  12
ENDBRANCH   4   6
ENDBRANCH   1   2
BRANCH   1  19
ATOM     19  N   UNL     1       1.416   9.116  18.858  0.00  0.00    +0.000 NA
ATOM     20  H   UNL     1       0.558   8.628  19.129  0.00  0.00    +0.000 HD
BRANCH  19  22
ATOM     21  C   UNL     1       1.761  11.595  18.695  0.00  0.00    +0.000 C 
ATOM     22  C   UNL     1       0.999  10.362  18.185  0.00  0.00    +0.000 C 
BRANCH  22  23
ATOM     23  C   UNL     1      -0.496  10.599  18.357  0.00  0.00    +0.000 A 
ATOM     24  C   UNL     1      -1.413   9.917  17.540  0.00  0.00    +0.000 A 
ATOM     25  C   UNL     1      -2.775  10.232  17.580  0.00  0.00    +0.000 A 
ATOM     26  C   UNL     1      -3.228  11.222  18.455  0.00  0.00    +0.000 A 
ATOM     27  C   UNL     1      -2.341  11.887  19.301  0.00  0.00    +0.000 A 
ATOM     28  C   UNL     1      -0.980  11.565  19.257  0.00  0.00    +0.000 A 
BRANCH  26  29
ATOM     29  S   UNL     1      -4.925  11.734  18.388  0.00  0.00    +0.000 S 
ATOM     30  O   UNL     1      -5.774  10.567  18.358  0.00  0.00    +0.000 OA
ATOM     31  O   UNL     1      -5.121  12.815  19.323  0.00  0.00    +0.000 OA
BRANCH  29  32
ATOM     32  N   UNL     1      -5.027  12.416  16.858  0.00  0.00    +0.000 NA
ATOM     33  H   UNL     1      -4.447  13.255  16.825  0.00  0.00    +0.000 HD
ATOM     34  H   UNL     1      -4.774  11.719  16.159  0.00  0.00    +0.000 HD
ENDBRANCH  29  32
ENDBRANCH  26  29
ENDBRANCH  22  23
ENDBRANCH  19  22
ENDBRANCH   1  19
TORSDOF 9
ENDMDL
MODEL 7
REMARK VINA RESULT:      -8.0      1.115      1.577
REMARK  Name = 
REMARK  10 active torsions:
REMARK  status: ('A' for Active; 'I' for Inactive)
REMARK    1  A    between atoms: C_1  and  C_2
REMARK    2  A    between atoms: C_2  and  N_3
REMARK    3  A    between atoms: C_2  and  C_20
REMARK    4  A    between atoms: N_3  and  C_4
REMARK    5  A    between atoms: C_4  and  C_5
REMARK    6  A    between atoms: N_7  and  C_8
REMARK    7  A    between atoms: C_13  and  C_14
REMARK    8  A    between atoms: N_16  and  C_17
REMARK    9  A    between atoms: C_23  and  S_24
REMARK   10  A    between atoms: S_24  and  N_25
REMARK                            x       y       z     vdW  Elec       q    Type
REMARK                         _______ _______ _______ _____ _____    ______ ____
ROOT
ATOM      1  C   UNL     1       0.760   8.105  21.147  0.00  0.00    +0.000 C 
ENDROOT
BRANCH   1   2
ATOM      2  C   UNL     1       0.557   9.605  21.006  0.00  0.00    +0.000 C 
ATOM      3  O   UNL     1       0.332  10.315  21.983  0.00  0.00    +0.000 OA
ATOM      4  N   UNL     1       0.667  10.049  19.696  0.00  0.00    +0.000 N 
ATOM      5  H   UNL     1       0.477   9.347  18.983  0.00  0.00    +0.000 HD
BRANCH   4   6
ATOM      6  C   UNL     1       0.623  11.418  19.361  0.00  0.00    +0.000 A 
ATOM      7  C   UNL     1       1.736  12.223  19.667  0.00  0.00    +0.000 A 
ATOM      8  C   UNL     1       1.758  13.582  19.348  0.00  0.00    +0.000 A 
ATOM      9  C   UNL     1       0.656  14.162  18.735  0.00  0.00    +0.000 A 
ATOM     10  C   UNL     1      -0.445  13.371  18.405  0.00  0.00    +0.000 A 
ATOM     11  C   UNL     1      -0.467  11.990  18.689  0.00  0.00    +0.000 A 
BRANCH  11  12
ATOM     12  C   UNL     1      -1.688  11.260  18.253  0.00  0.00    +0.000 C 
ATOM     13  O   UNL     1      -1.659  10.031  18.217  0.00  0.00    +0.000 OA
ATOM     14  N   UNL     1      -2.798  11.996  17.861  0.00  0.00    +0.000 N 
ATOM     15  H   UNL     1      -2.689  12.994  17.709  0.00  0.00    +0.000 HD
BRANCH  14  16
ATOM     16  C   UNL     1      -3.921  11.329  17.269  0.00  0.00    +0.000 C 
ATOM     17  C   UNL     1      -5.147  10.910  18.026  0.00  0.00    +0.000 C 
ATOM     18  C   UNL     1      -5.211  12.085  17.095  0.00  0.00    +0.000 C 
ENDBRANCH  14  16
ENDBRANCH  11  12
ENDBRANCH   4   6
ENDBRANCH   1   2
BRANCH   1  19
ATOM     19  N   UNL     1       2.064   7.697  20.581  0.00  0.00    +0.000 NA
ATOM     20  H   UNL     1       2.298   8.355  19.833  0.00  0.00    +0.000 HD
BRANCH  19  22
ATOM     21  C   UNL     1       1.923   5.227  20.990  0.00  0.00    +0.000 C 
ATOM     22  C   UNL     1       1.963   6.364  19.957  0.00  0.00    +0.000 C 
BRANCH  22  23
ATOM     23  C   UNL     1       3.124   6.122  19.000  0.00  0.00    +0.000 A 
ATOM     24  C   UNL     1       4.056   5.107  19.270  0.00  0.00    +0.000 A 
ATOM     25  C   UNL     1       5.207   4.969  18.489  0.00  0.00    +0.000 A 
ATOM     26  C   UNL     1       5.420   5.839  17.417  0.00  0.00    +0.000 A 
ATOM     27  C   UNL     1       4.489   6.832  17.107  0.00  0.00    +0.000 A 
ATOM     28  C   UNL     1       3.339   6.961  17.893  0.00  0.00    +0.000 A 
BRANCH  26  29
ATOM     29  S   UNL     1       6.955   5.769  16.529  0.00  0.00    +0.000 S 
ATOM     30  O   UNL     1       6.700   5.359  15.169  0.00  0.00    +0.000 OA
ATOM     31  O   UNL     1       7.733   6.938  16.856  0.00  0.00    +0.000 OA
BRANCH  29  32
ATOM     32  N   UNL     1       7.728   4.473  17.263  0.00  0.00    +0.000 NA
ATOM     33  H   UNL     1       7.655   3.653  16.660  0.00  0.00    +0.000 HD
ATOM     34  H   UNL     1       8.689   4.732  17.482  0.00  0.00    +0.000 HD
ENDBRANCH  29  32
ENDBRANCH  26  29
ENDBRANCH  22  23
ENDBRANCH  19  22
ENDBRANCH   1  19
TORSDOF 9
ENDMDL
MODEL 8
REMARK VINA RESULT:      -7.8      2.624      3.707
REMARK  Name = 
REMARK  10 active torsions:
REMARK  status: ('A' for Active; 'I' for Inactive)
REMARK    1  A    between atoms: C_1  and  C_2
REMARK    2  A    between atoms: C_2  and  N_3
REMARK    3  A    between atoms: C_2  and  C_20
REMARK    4  A    between atoms: N_3  and  C_4
REMARK    5  A    between atoms: C_4  and  C_5
REMARK    6  A    between atoms: N_7  and  C_8
REMARK    7  A    between atoms: C_13  and  C_14
REMARK    8  A    between atoms: N_16  and  C_17
REMARK    9  A    between atoms: C_23  and  S_24
REMARK   10  A    between atoms: S_24  and  N_25
REMARK                            x       y       z     vdW  Elec       q    Type
REMARK                         _______ _______ _______ _____ _____    ______ ____
ROOT
ATOM      1  C   UNL     1       1.817   7.666  20.125  0.00  0.00    +0.000 C 
ENDROOT
BRANCH   1   2
ATOM      2  C   UNL     1       1.356   8.721  21.118  0.00  0.00    +0.000 C 
ATOM      3  O   UNL     1       1.879   8.830  22.224  0.00  0.00    +0.000 OA
ATOM      4  N   UNL     1       0.326   9.513  20.632  0.00  0.00    +0.000 N 
ATOM      5  H   UNL     1      -0.241   9.088  19.900  0.00  0.00    +0.000 HD
BRANCH   4   6
ATOM      6  C   UNL     1      -0.171  10.621  21.349  0.00  0.00    +0.000 A 
ATOM      7  C   UNL     1      -0.991  10.386  22.470  0.00  0.00    +0.000 A 
ATOM      8  C   UNL     1      -1.503  11.441  23.227  0.00  0.00    +0.000 A 
ATOM      9  C   UNL     1      -1.218  12.750  22.864  0.00  0.00    +0.000 A 
ATOM     10  C   UNL     1      -0.388  12.997  21.770  0.00  0.00    +0.000 A 
ATOM     11  C   UNL     1       0.165  11.942  21.016  0.00  0.00    +0.000 A 
BRANCH  11  12
ATOM     12  C   UNL     1       1.059  12.345  19.898  0.00  0.00    +0.000 C 
ATOM     13  O   UNL     1       0.975  11.743  18.828  0.00  0.00    +0.000 OA
ATOM     14  N   UNL     1       1.984  13.356  20.118  0.00  0.00    +0.000 N 
ATOM     15  H   UNL     1       2.149  13.662  21.072  0.00  0.00    +0.000 HD
BRANCH  14  16
ATOM     16  C   UNL     1       2.975  13.644  19.123  0.00  0.00    +0.000 C 
ATOM     17  C   UNL     1       2.886  14.784  18.151  0.00  0.00    +0.000 C 
ATOM     18  C   UNL     1       3.853  14.854  19.295  0.00  0.00    +0.000 C 
ENDBRANCH  14  16
ENDBRANCH  11  12
ENDBRANCH   4   6
ENDBRANCH   1   2
BRANCH   1  19
ATOM     19  N   UNL     1       1.985   6.357  20.791  0.00  0.00    +0.000 NA
ATOM     20  H   UNL     1       2.951   6.299  21.126  0.00  0.00    +0.000 HD
BRANCH  19  22
ATOM     21  C   UNL     1       1.364   3.945  20.493  0.00  0.00    +0.000 C 
ATOM     22  C   UNL     1       1.805   5.257  19.824  0.00  0.00    +0.000 C 
BRANCH  22  23
ATOM     23  C   UNL     1       3.088   5.006  19.041  0.00  0.00    +0.000 A 
ATOM     24  C   UNL     1       4.334   5.140  19.674  0.00  0.00    +0.000 A 
ATOM     25  C   UNL     1       5.520   5.062  18.939  0.00  0.00    +0.000 A 
ATOM     26  C   UNL     1       5.463   4.829  17.562  0.00  0.00    +0.000 A 
ATOM     27  C   UNL     1       4.238   4.656  16.918  0.00  0.00    +0.000 A 
ATOM     28  C   UNL     1       3.055   4.734  17.662  0.00  0.00    +0.000 A 
BRANCH  26  29
ATOM     29  S   UNL     1       6.955   4.893  16.605  0.00  0.00    +0.000 S 
ATOM     30  O   UNL     1       6.829   4.016  15.466  0.00  0.00    +0.000 OA
ATOM     31  O   UNL     1       7.370   6.269  16.484  0.00  0.00    +0.000 OA
BRANCH  29  32
ATOM     32  N   UNL     1       8.063   4.160  17.630  0.00  0.00    +0.000 NA
ATOM     33  H   UNL     1       7.917   3.150  17.615  0.00  0.00    +0.000 HD
ATOM     34  H   UNL     1       9.007   4.438  17.363  0.00  0.00    +0.000 HD
ENDBRANCH  29  32
ENDBRANCH  26  29
ENDBRANCH  22  23
ENDBRANCH  19  22
ENDBRANCH   1  19
TORSDOF 9
ENDMDL
MODEL 9
REMARK VINA RESULT:      -7.8      0.801      1.163
REMARK  Name = 
REMARK  10 active torsions:
REMARK  status: ('A' for Active; 'I' for Inactive)
REMARK    1  A    between atoms: C_1  and  C_2
REMARK    2  A    between atoms: C_2  and  N_3
REMARK    3  A    between atoms: C_2  and  C_20
REMARK    4  A    between atoms: N_3  and  C_4
REMARK    5  A    between atoms: C_4  and  C_5
REMARK    6  A    between atoms: N_7  and  C_8
REMARK    7  A    between atoms: C_13  and  C_14
REMARK    8  A    between atoms: N_16  and  C_17
REMARK    9  A    between atoms: C_23  and  S_24
REMARK   10  A    between atoms: S_24  and  N_25
REMARK                            x       y       z     vdW  Elec       q    Type
REMARK                         _______ _______ _______ _____ _____    ______ ____
ROOT
ATOM      1  C   UNL     1       1.814   8.496  18.926  0.00  0.00    +0.000 C 
ENDROOT
BRANCH   1   2
ATOM      2  C   UNL     1       1.376   9.875  19.391  0.00  0.00    +0.000 C 
ATOM      3  O   UNL     1       1.032  10.080  20.552  0.00  0.00    +0.000 OA
ATOM      4  N   UNL     1       1.424  10.830  18.385  0.00  0.00    +0.000 N 
ATOM      5  H   UNL     1       1.355  10.465  17.436  0.00  0.00    +0.000 HD
BRANCH   4   6
ATOM      6  C   UNL     1       1.165  12.194  18.632  0.00  0.00    +0.000 A 
ATOM      7  C   UNL     1       2.252  13.053  18.879  0.00  0.00    +0.000 A 
ATOM      8  C   UNL     1       2.061  14.415  19.116  0.00  0.00    +0.000 A 
ATOM      9  C   UNL     1       0.775  14.936  19.130  0.00  0.00    +0.000 A 
ATOM     10  C   UNL     1      -0.311  14.101  18.864  0.00  0.00    +0.000 A 
ATOM     11  C   UNL     1      -0.131  12.731  18.588  0.00  0.00    +0.000 A 
BRANCH  11  12
ATOM     12  C   UNL     1      -1.369  11.964  18.288  0.00  0.00    +0.000 C 
ATOM     13  O   UNL     1      -2.002  11.475  19.223  0.00  0.00    +0.000 OA
ATOM     14  N   UNL     1      -1.739  11.791  16.961  0.00  0.00    +0.000 N 
ATOM     15  H   UNL     1      -1.070  12.030  16.236  0.00  0.00    +0.000 HD
BRANCH  14  16
ATOM     16  C   UNL     1      -2.822  10.911  16.633  0.00  0.00    +0.000 C 
ATOM     17  C   UNL     1      -3.613  10.986  15.360  0.00  0.00    +0.000 C 
ATOM     18  C   UNL     1      -2.623   9.877  15.557  0.00  0.00    +0.000 C 
ENDBRANCH  14  16
ENDBRANCH  11  12
ENDBRANCH   4   6
ENDBRANCH   1   2
BRANCH   1  19
ATOM     19  N   UNL     1       2.087   7.615  20.082  0.00  0.00    +0.000 NA
ATOM     20  H   UNL     1       3.060   7.762  20.363  0.00  0.00    +0.000 HD
BRANCH  19  22
ATOM     21  C   UNL     1       1.713   5.271  20.891  0.00  0.00    +0.000 C 
ATOM     22  C   UNL     1       1.968   6.197  19.691  0.00  0.00    +0.000 C 
BRANCH  22  23
ATOM     23  C   UNL     1       3.221   5.728  18.962  0.00  0.00    +0.000 A 
ATOM     24  C   UNL     1       4.337   5.290  19.693  0.00  0.00    +0.000 A 
ATOM     25  C   UNL     1       5.543   5.000  19.049  0.00  0.00    +0.000 A 
ATOM     26  C   UNL     1       5.631   5.129  17.661  0.00  0.00    +0.000 A 
ATOM     27  C   UNL     1       4.525   5.526  16.909  0.00  0.00    +0.000 A 
ATOM     28  C   UNL     1       3.321   5.813  17.562  0.00  0.00    +0.000 A 
BRANCH  26  29
ATOM     29  S   UNL     1       7.203   4.919  16.864  0.00  0.00    +0.000 S 
ATOM     30  O   UNL     1       7.533   6.122  16.138  0.00  0.00    +0.000 OA
ATOM     31  O   UNL     1       8.114   4.296  17.792  0.00  0.00    +0.000 OA
BRANCH  29  32
ATOM     32  N   UNL     1       6.856   3.760  15.701  0.00  0.00    +0.000 NA
ATOM     33  H   UNL     1       5.859   3.543  15.730  0.00  0.00    +0.000 HD
ATOM     34  H   UNL     1       7.174   4.090  14.790  0.00  0.00    +0.000 HD
ENDBRANCH  29  32
ENDBRANCH  26  29
ENDBRANCH  22  23
ENDBRANCH  19  22
ENDBRANCH   1  19
TORSDOF 9
ENDMDL
