MODEL 1
REMARK VINA RESULT:      -7.2      0.000      0.000
REMARK  Name = 
REMARK  9 active torsions:
REMARK  status: ('A' for Active; 'I' for Inactive)
REMARK    1  A    between atoms: C_1  and  C_2
REMARK    2  A    between atoms: C_2  and  C_3
REMARK    3  A    between atoms: C_3  and  C_4
REMARK    4  A    between atoms: C_4  and  O_5
REMARK    5  A    between atoms: O_5  and  C_6
REMARK    6  A    between atoms: C_9  and  C_10
REMARK    7  A    between atoms: C_12  and  O_13
REMARK    8  A    between atoms: C_17  and  O_18
REMARK    9  A    between atoms: O_18  and  C_19
REMARK                            x       y       z     vdW  Elec       q    Type
REMARK                         _______ _______ _______ _____ _____    ______ ____
ROOT
ATOM      1  C   UNL     1       6.180   6.192  16.751  0.00  0.00    +0.000 A 
ATOM      2  C   UNL     1       5.044   6.437  17.537  0.00  0.00    +0.000 A 
ATOM      3  C   UNL     1       4.007   5.507  17.699  0.00  0.00    +0.000 A 
ATOM      4  C   UNL     1       2.840   5.743  18.470  0.00  0.00    +0.000 A 
ATOM      5  C   UNL     1       2.576   7.027  19.209  0.00  0.00    +0.000 C 
ATOM      6  N   UNL     1       1.845   4.831  18.589  0.00  0.00    +0.000 NA
ATOM      7  C   UNL     1       2.023   3.671  17.950  0.00  0.00    +0.000 A 
ATOM      8  C   UNL     1       3.115   3.324  17.188  0.00  0.00    +0.000 A 
ATOM      9  C   UNL     1       4.138   4.264  17.047  0.00  0.00    +0.000 A 
ATOM     10  C   UNL     1       5.286   3.998  16.268  0.00  0.00    +0.000 A 
ATOM     11  C   UNL     1       6.297   4.956  16.100  0.00  0.00    +0.000 A 
ENDROOT
BRANCH   7  12
ATOM     12  O   UNL     1       0.983   2.816  18.092  0.00  0.00    +0.000 OA
ATOM     13  H   UNL     1       1.171   2.214  17.349  0.00  0.00    +0.000 HD
ENDBRANCH   7  12
BRANCH  11  14
ATOM     14  O   UNL     1       7.429   4.748  15.352  0.00  0.00    +0.000 OA
ATOM     15  C   UNL     1       7.267   4.771  13.938  0.00  0.00    +0.000 C 
ENDBRANCH  11  14
BRANCH   1  16
ATOM     16  O   UNL     1       7.185   7.128  16.578  0.00  0.00    +0.000 OA
BRANCH  16  17
ATOM     17  C   UNL     1       7.745   7.624  17.794  0.00  0.00    +0.000 C 
BRANCH  17  18
ATOM     18  C   UNL     1       7.968   9.129  17.776  0.00  0.00    +0.000 C 
BRANCH  18  20
ATOM     19  C   UNL     1       9.549  10.877  18.695  0.00  0.00    +0.000 C 
ATOM     20  C   UNL     1       8.958   9.496  18.887  0.00  0.00    +0.000 C 
ENDBRANCH  18  20
ENDBRANCH  17  18
ENDBRANCH  16  17
ENDBRANCH   1  16
TORSDOF 6
ENDMDL
MODEL 2
REMARK VINA RESULT:      -7.0      1.898      4.938
REMARK  Name = 
REMARK  9 active torsions:
REMARK  status: ('A' for Active; 'I' for Inactive)
REMARK    1  A    between atoms: C_1  and  C_2
REMARK    2  A    between atoms: C_2  and  C_3
REMARK    3  A    between atoms: C_3  and  C_4
REMARK    4  A    between atoms: C_4  and  O_5
REMARK    5  A    between atoms: O_5  and  C_6
REMARK    6  A    between atoms: C_9  and  C_10
REMARK    7  A    between atoms: C_12  and  O_13
REMARK    8  A    between atoms: C_17  and  O_18
REMARK    9  A    between atoms: O_18  and  C_19
REMARK                            x       y       z     vdW  Elec       q    Type
REMARK                         _______ _______ _______ _____ _____    ______ ____
ROOT
ATOM      1  C   UNL     1       5.930   4.599  16.153  0.00  0.00    +0.000 A 
ATOM      2  C   UNL     1       4.861   3.821  16.621  0.00  0.00    +0.000 A 
ATOM      3  C   UNL     1       4.171   4.098  17.811  0.00  0.00    +0.000 A 
ATOM      4  C   UNL     1       3.104   3.311  18.314  0.00  0.00    +0.000 A 
ATOM      5  C   UNL     1       2.582   2.078  17.626  0.00  0.00    +0.000 C 
ATOM      6  N   UNL     1       2.473   3.593  19.479  0.00  0.00    +0.000 NA
ATOM      7  C   UNL     1       2.896   4.676  20.137  0.00  0.00    +0.000 A 
ATOM      8  C   UNL     1       3.908   5.522  19.742  0.00  0.00    +0.000 A 
ATOM      9  C   UNL     1       4.575   5.228  18.550  0.00  0.00    +0.000 A 
ATOM     10  C   UNL     1       5.637   6.032  18.079  0.00  0.00    +0.000 A 
ATOM     11  C   UNL     1       6.328   5.717  16.900  0.00  0.00    +0.000 A 
ENDROOT
BRANCH   7  12
ATOM     12  O   UNL     1       2.239   4.887  21.301  0.00  0.00    +0.000 OA
ATOM     13  H   UNL     1       3.003   4.968  21.902  0.00  0.00    +0.000 HD
ENDBRANCH   7  12
BRANCH  11  14
ATOM     14  O   UNL     1       7.368   6.462  16.403  0.00  0.00    +0.000 OA
ATOM     15  C   UNL     1       7.770   7.586  17.179  0.00  0.00    +0.000 C 
ENDBRANCH  11  14
BRANCH   1  16
ATOM     16  O   UNL     1       6.619   4.301  14.991  0.00  0.00    +0.000 OA
BRANCH  16  17
ATOM     17  C   UNL     1       5.788   4.097  13.848  0.00  0.00    +0.000 C 
BRANCH  17  18
ATOM     18  C   UNL     1       6.569   3.673  12.613  0.00  0.00    +0.000 C 
BRANCH  18  20
ATOM     19  C   UNL     1       4.342   3.248  11.489  0.00  0.00    +0.000 C 
ATOM     20  C   UNL     1       5.716   2.691  11.802  0.00  0.00    +0.000 C 
ENDBRANCH  18  20
ENDBRANCH  17  18
ENDBRANCH  16  17
ENDBRANCH   1  16
TORSDOF 6
ENDMDL
MODEL 3
REMARK VINA RESULT:      -7.0      2.486      4.214
REMARK  Name = 
REMARK  9 active torsions:
REMARK  status: ('A' for Active; 'I' for Inactive)
REMARK    1  A    between atoms: C_1  and  C_2
REMARK    2  A    between atoms: C_2  and  C_3
REMARK    3  A    between atoms: C_3  and  C_4
REMARK    4  A    between atoms: C_4  and  O_5
REMARK    5  A    between atoms: O_5  and  C_6
REMARK    6  A    between atoms: C_9  and  C_10
REMARK    7  A    between atoms: C_12  and  O_13
REMARK    8  A    between atoms: C_17  and  O_18
REMARK    9  A    between atoms: O_18  and  C_19
REMARK                            x       y       z     vdW  Elec       q    Type
REMARK                         _______ _______ _______ _____ _____    ______ ____
ROOT
ATOM      1  C   UNL     1       3.787   6.038  17.493  0.00  0.00    +0.000 A 
ATOM      2  C   UNL     1       3.715   4.665  17.774  0.00  0.00    +0.000 A 
ATOM      3  C   UNL     1       2.997   4.139  18.859  0.00  0.00    +0.000 A 
ATOM      4  C   UNL     1       2.930   2.758  19.174  0.00  0.00    +0.000 A 
ATOM      5  C   UNL     1       3.627   1.687  18.378  0.00  0.00    +0.000 C 
ATOM      6  N   UNL     1       2.246   2.285  20.242  0.00  0.00    +0.000 NA
ATOM      7  C   UNL     1       1.609   3.191  20.990  0.00  0.00    +0.000 A 
ATOM      8  C   UNL     1       1.589   4.550  20.775  0.00  0.00    +0.000 A 
ATOM      9  C   UNL     1       2.306   5.049  19.684  0.00  0.00    +0.000 A 
ATOM     10  C   UNL     1       2.354   6.432  19.400  0.00  0.00    +0.000 A 
ATOM     11  C   UNL     1       3.102   6.934  18.325  0.00  0.00    +0.000 A 
ENDROOT
BRANCH   7  12
ATOM     12  O   UNL     1       0.965   2.653  22.052  0.00  0.00    +0.000 OA
ATOM     13  H   UNL     1       0.542   1.892  21.611  0.00  0.00    +0.000 HD
ENDBRANCH   7  12
BRANCH  11  14
ATOM     14  O   UNL     1       3.184   8.267  18.010  0.00  0.00    +0.000 OA
ATOM     15  C   UNL     1       1.950   8.951  17.822  0.00  0.00    +0.000 C 
ENDBRANCH  11  14
BRANCH   1  16
ATOM     16  O   UNL     1       4.520   6.546  16.435  0.00  0.00    +0.000 OA
BRANCH  16  17
ATOM     17  C   UNL     1       5.897   6.173  16.437  0.00  0.00    +0.000 C 
BRANCH  17  18
ATOM     18  C   UNL     1       6.742   7.021  17.375  0.00  0.00    +0.000 C 
BRANCH  18  20
ATOM     19  C   UNL     1       7.580   4.663  17.750  0.00  0.00    +0.000 C 
ATOM     20  C   UNL     1       7.598   6.094  18.245  0.00  0.00    +0.000 C 
ENDBRANCH  18  20
ENDBRANCH  17  18
ENDBRANCH  16  17
ENDBRANCH   1  16
TORSDOF 6
ENDMDL
MODEL 4
REMARK VINA RESULT:      -6.8      2.802      4.778
REMARK  Name = 
REMARK  9 active torsions:
REMARK  status: ('A' for Active; 'I' for Inactive)
REMARK    1  A    between atoms: C_1  and  C_2
REMARK    2  A    between atoms: C_2  and  C_3
REMARK    3  A    between atoms: C_3  and  C_4
REMARK    4  A    between atoms: C_4  and  O_5
REMARK    5  A    between atoms: O_5  and  C_6
REMARK    6  A    between atoms: C_9  and  C_10
REMARK    7  A    between atoms: C_12  and  O_13
REMARK    8  A    between atoms: C_17  and  O_18
REMARK    9  A    between atoms: O_18  and  C_19
REMARK                            x       y       z     vdW  Elec       q    Type
REMARK                         _______ _______ _______ _____ _____    ______ ____
ROOT
ATOM      1  C   UNL     1       3.935   5.681  17.415  0.00  0.00    +0.000 A 
ATOM      2  C   UNL     1       3.805   4.328  17.765  0.00  0.00    +0.000 A 
ATOM      3  C   UNL     1       3.056   3.887  18.866  0.00  0.00    +0.000 A 
ATOM      4  C   UNL     1       2.931   2.528  19.250  0.00  0.00    +0.000 A 
ATOM      5  C   UNL     1       3.592   1.391  18.518  0.00  0.00    +0.000 C 
ATOM      6  N   UNL     1       2.218   2.137  20.333  0.00  0.00    +0.000 NA
ATOM      7  C   UNL     1       1.611   3.105  21.026  0.00  0.00    +0.000 A 
ATOM      8  C   UNL     1       1.647   4.451  20.742  0.00  0.00    +0.000 A 
ATOM      9  C   UNL     1       2.394   4.864  19.636  0.00  0.00    +0.000 A 
ATOM     10  C   UNL     1       2.500   6.228  19.283  0.00  0.00    +0.000 A 
ATOM     11  C   UNL     1       3.278   6.645  18.193  0.00  0.00    +0.000 A 
ENDROOT
BRANCH   7  12
ATOM     12  O   UNL     1       0.935   2.648  22.107  0.00  0.00    +0.000 OA
ATOM     13  H   UNL     1       1.211   1.713  22.082  0.00  0.00    +0.000 HD
ENDBRANCH   7  12
BRANCH  11  14
ATOM     14  O   UNL     1       3.416   7.955  17.811  0.00  0.00    +0.000 OA
ATOM     15  C   UNL     1       2.226   8.736  17.781  0.00  0.00    +0.000 C 
ENDBRANCH  11  14
BRANCH   1  16
ATOM     16  O   UNL     1       4.697   6.105  16.341  0.00  0.00    +0.000 OA
BRANCH  16  17
ATOM     17  C   UNL     1       6.104   5.934  16.511  0.00  0.00    +0.000 C 
BRANCH  17  18
ATOM     18  C   UNL     1       6.724   5.022  15.464  0.00  0.00    +0.000 C 
BRANCH  18  20
ATOM     19  C   UNL     1       6.185   3.740  13.350  0.00  0.00    +0.000 C 
ATOM     20  C   UNL     1       5.633   4.584  14.481  0.00  0.00    +0.000 C 
ENDBRANCH  18  20
ENDBRANCH  17  18
ENDBRANCH  16  17
ENDBRANCH   1  16
TORSDOF 6
ENDMDL
MODEL 5
REMARK VINA RESULT:      -6.8      3.125      5.502
REMARK  Name = 
REMARK  9 active torsions:
REMARK  status: ('A' for Active; 'I' for Inactive)
REMARK    1  A    between atoms: C_1  and  C_2
REMARK    2  A    between atoms: C_2  and  C_3
REMARK    3  A    between atoms: C_3  and  C_4
REMARK    4  A    between atoms: C_4  and  O_5
REMARK    5  A    between atoms: O_5  and  C_6
REMARK    6  A    between atoms: C_9  and  C_10
REMARK    7  A    between atoms: C_12  and  O_13
REMARK    8  A    between atoms: C_17  and  O_18
REMARK    9  A    between atoms: O_18  and  C_19
REMARK                            x       y       z     vdW  Elec       q    Type
REMARK                         _______ _______ _______ _____ _____    ______ ____
ROOT
ATOM      1  C   UNL     1       4.452   4.507  19.008  0.00  0.00    +0.000 A 
ATOM      2  C   UNL     1       3.494   5.327  19.623  0.00  0.00    +0.000 A 
ATOM      3  C   UNL     1       3.048   6.536  19.069  0.00  0.00    +0.000 A 
ATOM      4  C   UNL     1       2.099   7.391  19.685  0.00  0.00    +0.000 A 
ATOM      5  C   UNL     1       1.455   7.101  21.015  0.00  0.00    +0.000 C 
ATOM      6  N   UNL     1       1.706   8.564  19.135  0.00  0.00    +0.000 NA
ATOM      7  C   UNL     1       2.247   8.878  17.954  0.00  0.00    +0.000 A 
ATOM      8  C   UNL     1       3.162   8.123  17.255  0.00  0.00    +0.000 A 
ATOM      9  C   UNL     1       3.585   6.920  17.824  0.00  0.00    +0.000 A 
ATOM     10  C   UNL     1       4.535   6.093  17.184  0.00  0.00    +0.000 A 
ATOM     11  C   UNL     1       4.986   4.902  17.773  0.00  0.00    +0.000 A 
ENDROOT
BRANCH   7  12
ATOM     12  O   UNL     1       1.828  10.071  17.472  0.00  0.00    +0.000 OA
ATOM     13  H   UNL     1       0.888   9.859  17.319  0.00  0.00    +0.000 HD
ENDBRANCH   7  12
BRANCH  11  14
ATOM     14  O   UNL     1       5.908   4.066  17.195  0.00  0.00    +0.000 OA
ATOM     15  C   UNL     1       7.085   4.681  16.681  0.00  0.00    +0.000 C 
ENDBRANCH  11  14
BRANCH   1  16
ATOM     16  O   UNL     1       4.902   3.328  19.577  0.00  0.00    +0.000 OA
BRANCH  16  17
ATOM     17  C   UNL     1       3.888   2.343  19.775  0.00  0.00    +0.000 C 
BRANCH  17  18
ATOM     18  C   UNL     1       3.556   1.569  18.508  0.00  0.00    +0.000 C 
BRANCH  18  20
ATOM     19  C   UNL     1       1.210   2.423  18.917  0.00  0.00    +0.000 C 
ATOM     20  C   UNL     1       2.287   2.160  17.885  0.00  0.00    +0.000 C 
ENDBRANCH  18  20
ENDBRANCH  17  18
ENDBRANCH  16  17
ENDBRANCH   1  16
TORSDOF 6
ENDMDL
MODEL 6
REMARK VINA RESULT:      -6.7      1.522      1.979
REMARK  Name = 
REMARK  9 active torsions:
REMARK  status: ('A' for Active; 'I' for Inactive)
REMARK    1  A    between atoms: C_1  and  C_2
REMARK    2  A    between atoms: C_2  and  C_3
REMARK    3  A    between atoms: C_3  and  C_4
REMARK    4  A    between atoms: C_4  and  O_5
REMARK    5  A    between atoms: O_5  and  C_6
REMARK    6  A    between atoms: C_9  and  C_10
REMARK    7  A    between atoms: C_12  and  O_13
REMARK    8  A    between atoms: C_17  and  O_18
REMARK    9  A    between atoms: O_18  and  C_19
REMARK                            x       y       z     vdW  Elec       q    Type
REMARK                         _______ _______ _______ _____ _____    ______ ____
ROOT
ATOM      1  C   UNL     1       5.171   6.012  16.599  0.00  0.00    +0.000 A 
ATOM      2  C   UNL     1       4.207   6.027  17.618  0.00  0.00    +0.000 A 
ATOM      3  C   UNL     1       3.379   4.933  17.909  0.00  0.00    +0.000 A 
ATOM      4  C   UNL     1       2.383   4.935  18.918  0.00  0.00    +0.000 A 
ATOM      5  C   UNL     1       2.094   6.119  19.800  0.00  0.00    +0.000 C 
ATOM      6  N   UNL     1       1.585   3.868  19.159  0.00  0.00    +0.000 NA
ATOM      7  C   UNL     1       1.793   2.786  18.403  0.00  0.00    +0.000 A 
ATOM      8  C   UNL     1       2.736   2.661  17.408  0.00  0.00    +0.000 A 
ATOM      9  C   UNL     1       3.553   3.763  17.142  0.00  0.00    +0.000 A 
ATOM     10  C   UNL     1       4.534   3.728  16.126  0.00  0.00    +0.000 A 
ATOM     11  C   UNL     1       5.330   4.847  15.837  0.00  0.00    +0.000 A 
ENDROOT
BRANCH   7  12
ATOM     12  O   UNL     1       0.948   1.766  18.682  0.00  0.00    +0.000 OA
ATOM     13  H   UNL     1       0.104   2.188  18.435  0.00  0.00    +0.000 HD
ENDBRANCH   7  12
BRANCH  11  14
ATOM     14  O   UNL     1       6.293   4.865  14.859  0.00  0.00    +0.000 OA
ATOM     15  C   UNL     1       6.119   3.952  13.781  0.00  0.00    +0.000 C 
ENDBRANCH  11  14
BRANCH   1  16
ATOM     16  O   UNL     1       5.964   7.108  16.305  0.00  0.00    +0.000 OA
BRANCH  16  17
ATOM     17  C   UNL     1       6.528   7.752  17.446  0.00  0.00    +0.000 C 
BRANCH  17  18
ATOM     18  C   UNL     1       7.924   7.250  17.784  0.00  0.00    +0.000 C 
BRANCH  18  20
ATOM     19  C   UNL     1       7.906   4.780  18.335  0.00  0.00    +0.000 C 
ATOM     20  C   UNL     1       7.815   6.189  18.885  0.00  0.00    +0.000 C 
ENDBRANCH  18  20
ENDBRANCH  17  18
ENDBRANCH  16  17
ENDBRANCH   1  16
TORSDOF 6
ENDMDL
MODEL 7
REMARK VINA RESULT:      -6.6      2.629      5.788
REMARK  Name = 
REMARK  9 active torsions:
REMARK  status: ('A' for Active; 'I' for Inactive)
REMARK    1  A    between atoms: C_1  and  C_2
REMARK    2  A    between atoms: C_2  and  C_3
REMARK    3  A    between atoms: C_3  and  C_4
REMARK    4  A    between atoms: C_4  and  O_5
REMARK    5  A    between atoms: O_5  and  C_6
REMARK    6  A    between atoms: C_9  and  C_10
REMARK    7  A    between atoms: C_12  and  O_13
REMARK    8  A    between atoms: C_17  and  O_18
REMARK    9  A    between atoms: O_18  and  C_19
REMARK                            x       y       z     vdW  Elec       q    Type
REMARK                         _______ _______ _______ _____ _____    ______ ____
ROOT
ATOM      1  C   UNL     1       3.837   3.346  19.401  0.00  0.00    +0.000 A 
ATOM      2  C   UNL     1       4.998   4.132  19.338  0.00  0.00    +0.000 A 
ATOM      3  C   UNL     1       5.649   4.447  18.135  0.00  0.00    +0.000 A 
ATOM      4  C   UNL     1       6.835   5.219  18.051  0.00  0.00    +0.000 A 
ATOM      5  C   UNL     1       7.542   5.793  19.249  0.00  0.00    +0.000 C 
ATOM      6  N   UNL     1       7.451   5.486  16.875  0.00  0.00    +0.000 NA
ATOM      7  C   UNL     1       6.870   4.998  15.775  0.00  0.00    +0.000 A 
ATOM      8  C   UNL     1       5.715   4.251  15.731  0.00  0.00    +0.000 A 
ATOM      9  C   UNL     1       5.082   3.957  16.941  0.00  0.00    +0.000 A 
ATOM     10  C   UNL     1       3.902   3.182  16.990  0.00  0.00    +0.000 A 
ATOM     11  C   UNL     1       3.287   2.858  18.208  0.00  0.00    +0.000 A 
ENDROOT
BRANCH   7  12
ATOM     12  O   UNL     1       7.549   5.283  14.639  0.00  0.00    +0.000 OA
ATOM     13  H   UNL     1       7.167   6.158  14.442  0.00  0.00    +0.000 HD
ENDBRANCH   7  12
BRANCH  11  14
ATOM     14  O   UNL     1       2.143   2.107  18.309  0.00  0.00    +0.000 OA
ATOM     15  C   UNL     1       0.911   2.818  18.263  0.00  0.00    +0.000 C 
ENDBRANCH  11  14
BRANCH   1  16
ATOM     16  O   UNL     1       3.220   3.022  20.597  0.00  0.00    +0.000 OA
BRANCH  16  17
ATOM     17  C   UNL     1       2.730   4.143  21.332  0.00  0.00    +0.000 C 
BRANCH  17  18
ATOM     18  C   UNL     1       1.569   4.844  20.643  0.00  0.00    +0.000 C 
BRANCH  18  20
ATOM     19  C   UNL     1       2.464   6.719  19.199  0.00  0.00    +0.000 C 
ATOM     20  C   UNL     1       1.882   6.341  20.546  0.00  0.00    +0.000 C 
ENDBRANCH  18  20
ENDBRANCH  17  18
ENDBRANCH  16  17
ENDBRANCH   1  16
TORSDOF 6
ENDMDL
MODEL 8
REMARK VINA RESULT:      -6.6      2.457      6.118
REMARK  Name = 
REMARK  9 active torsions:
REMARK  status: ('A' for Active; 'I' for Inactive)
REMARK    1  A    between atoms: C_1  and  C_2
REMARK    2  A    between atoms: C_2  and  C_3
REMARK    3  A    between atoms: C_3  and  C_4
REMARK    4  A    between atoms: C_4  and  O_5
REMARK    5  A    between atoms: O_5  and  C_6
REMARK    6  A    between atoms: C_9  and  C_10
REMARK    7  A    between atoms: C_12  and  O_13
REMARK    8  A    between atoms: C_17  and  O_18
REMARK    9  A    between atoms: O_18  and  C_19
REMARK                            x       y       z     vdW  Elec       q    Type
REMARK                         _______ _______ _______ _____ _____    ______ ____
ROOT
ATOM      1  C   UNL     1       4.205   4.266  18.675  0.00  0.00    +0.000 A 
ATOM      2  C   UNL     1       5.250   5.166  18.419  0.00  0.00    +0.000 A 
ATOM      3  C   UNL     1       5.925   5.233  17.191  0.00  0.00    +0.000 A 
ATOM      4  C   UNL     1       6.998   6.119  16.920  0.00  0.00    +0.000 A 
ATOM      5  C   UNL     1       7.545   7.098  17.924  0.00  0.00    +0.000 C 
ATOM      6  N   UNL     1       7.644   6.142  15.729  0.00  0.00    +0.000 NA
ATOM      7  C   UNL     1       7.204   5.290  14.798  0.00  0.00    +0.000 A 
ATOM      8  C   UNL     1       6.165   4.398  14.940  0.00  0.00    +0.000 A 
ATOM      9  C   UNL     1       5.505   4.356  16.170  0.00  0.00    +0.000 A 
ATOM     10  C   UNL     1       4.441   3.459  16.408  0.00  0.00    +0.000 A 
ATOM     11  C   UNL     1       3.801   3.393  17.655  0.00  0.00    +0.000 A 
ENDROOT
BRANCH   7  12
ATOM     12  O   UNL     1       7.906   5.351  13.642  0.00  0.00    +0.000 OA
ATOM     13  H   UNL     1       8.692   5.833  13.959  0.00  0.00    +0.000 HD
ENDBRANCH   7  12
BRANCH  11  14
ATOM     14  O   UNL     1       2.767   2.538  17.938  0.00  0.00    +0.000 OA
ATOM     15  C   UNL     1       3.118   1.292  18.531  0.00  0.00    +0.000 C 
ENDBRANCH  11  14
BRANCH   1  16
ATOM     16  O   UNL     1       3.565   4.193  19.900  0.00  0.00    +0.000 OA
BRANCH  16  17
ATOM     17  C   UNL     1       2.853   5.375  20.265  0.00  0.00    +0.000 C 
BRANCH  17  18
ATOM     18  C   UNL     1       1.446   5.091  20.767  0.00  0.00    +0.000 C 
BRANCH  18  20
ATOM     19  C   UNL     1       1.389   2.727  21.669  0.00  0.00    +0.000 C 
ATOM     20  C   UNL     1       1.105   3.625  20.482  0.00  0.00    +0.000 C 
ENDBRANCH  18  20
ENDBRANCH  17  18
ENDBRANCH  16  17
ENDBRANCH   1  16
TORSDOF 6
ENDMDL
MODEL 9
REMARK VINA RESULT:      -6.5      1.117      1.344
REMARK  Name = 
REMARK  9 active torsions:
REMARK  status: ('A' for Active; 'I' for Inactive)
REMARK    1  A    between atoms: C_1  and  C_2
REMARK    2  A    between atoms: C_2  and  C_3
REMARK    3  A    between atoms: C_3  and  C_4
REMARK    4  A    between atoms: C_4  and  O_5
REMARK    5  A    between atoms: O_5  and  C_6
REMARK    6  A    between atoms: C_9  and  C_10
REMARK    7  A    between atoms: C_12  and  O_13
REMARK    8  A    between atoms: C_17  and  O_18
REMARK    9  A    between atoms: O_18  and  C_19
REMARK                            x       y       z     vdW  Elec       q    Type
REMARK                         _______ _______ _______ _____ _____    ______ ____
ROOT
ATOM      1  C   UNL     1       4.997   6.005  17.329  0.00  0.00    +0.000 A 
ATOM      2  C   UNL     1       4.005   5.936  18.320  0.00  0.00    +0.000 A 
ATOM      3  C   UNL     1       3.092   4.875  18.422  0.00  0.00    +0.000 A 
ATOM      4  C   UNL     1       2.069   4.798  19.400  0.00  0.00    +0.000 A 
ATOM      5  C   UNL     1       1.838   5.851  20.450  0.00  0.00    +0.000 C 
ATOM      6  N   UNL     1       1.189   3.770  19.457  0.00  0.00    +0.000 NA
ATOM      7  C   UNL     1       1.342   2.804  18.546  0.00  0.00    +0.000 A 
ATOM      8  C   UNL     1       2.304   2.763  17.562  0.00  0.00    +0.000 A 
ATOM      9  C   UNL     1       3.205   3.828  17.486  0.00  0.00    +0.000 A 
ATOM     10  C   UNL     1       4.212   3.875  16.496  0.00  0.00    +0.000 A 
ATOM     11  C   UNL     1       5.094   4.962  16.399  0.00  0.00    +0.000 A 
ENDROOT
BRANCH   7  12
ATOM     12  O   UNL     1       0.418   1.820  18.646  0.00  0.00    +0.000 OA
ATOM     13  H   UNL     1      -0.354   2.292  18.283  0.00  0.00    +0.000 HD
ENDBRANCH   7  12
BRANCH  11  14
ATOM     14  O   UNL     1       6.086   5.057  15.455  0.00  0.00    +0.000 OA
ATOM     15  C   UNL     1       6.205   3.966  14.549  0.00  0.00    +0.000 C 
ENDBRANCH  11  14
BRANCH   1  16
ATOM     16  O   UNL     1       5.874   7.070  17.224  0.00  0.00    +0.000 OA
BRANCH  16  17
ATOM     17  C   UNL     1       7.082   6.915  17.969  0.00  0.00    +0.000 C 
BRANCH  17  18
ATOM     18  C   UNL     1       8.191   7.847  17.504  0.00  0.00    +0.000 C 
BRANCH  18  20
ATOM     19  C   UNL     1       8.949  10.003  18.592  0.00  0.00    +0.000 C 
ATOM     20  C   UNL     1       7.819   9.286  17.881  0.00  0.00    +0.000 C 
ENDBRANCH  18  20
ENDBRANCH  17  18
ENDBRANCH  16  17
ENDBRANCH   1  16
TORSDOF 6
ENDMDL
