MODEL 1
REMARK VINA RESULT:      -8.1      0.000      0.000
REMARK  Name = 
REMARK  2 active torsions:
REMARK  status: ('A' for Active; 'I' for Inactive)
REMARK    1  A    between atoms: C_1  and  N_2
REMARK    2  A    between atoms: C_6  and  C_7
REMARK                            x       y       z     vdW  Elec       q    Type
REMARK                         _______ _______ _______ _____ _____    ______ ____
ROOT
ATOM      1  C   UNL     1       3.216   5.017  17.813  0.00  0.00    +0.000 C 
ATOM      2  C   UNL     1       3.263   6.401  18.467  0.00  0.00    +0.000 C 
ATOM      3  C   UNL     1       4.209   7.263  17.633  0.00  0.00    +0.000 C 
ATOM      4  C   UNL     1       5.611   6.641  17.546  0.00  0.00    +0.000 C 
ATOM      5  N   UNL     1       5.553   5.217  17.181  0.00  0.00    +0.000 N 
ATOM      6  C   UNL     1       5.860   4.834  15.917  0.00  0.00    +0.000 A 
ATOM      7  N   UNL     1       5.459   3.765  15.256  0.00  0.00    +0.000 NA
ATOM      8  C   UNL     1       6.093   3.866  14.039  0.00  0.00    +0.000 A 
ATOM      9  C   UNL     1       6.073   3.041  12.908  0.00  0.00    +0.000 A 
ATOM     10  C   UNL     1       6.836   3.431  11.791  0.00  0.00    +0.000 A 
ATOM     11  C   UNL     1       7.594   4.609  11.808  0.00  0.00    +0.000 A 
ATOM     12  C   UNL     1       7.626   5.440  12.934  0.00  0.00    +0.000 A 
ATOM     13  C   UNL     1       6.854   5.023  14.014  0.00  0.00    +0.000 A 
ATOM     14  O   UNL     1       6.711   5.644  15.210  0.00  0.00    +0.000 OA
ATOM     15  C   UNL     1       4.605   4.386  17.943  0.00  0.00    +0.000 C 
ENDROOT
BRANCH   1  21
ATOM     16  C   UNL     1       2.438   4.650  20.743  0.00  0.00    +0.000 C 
ATOM     17  N   UNL     1       1.828   3.978  19.626  0.00  0.00    +0.000 N 
ATOM     18  C   UNL     1       0.944   2.948  19.689  0.00  0.00    +0.000 A 
ATOM     19  N   UNL     1       0.573   2.623  18.473  0.00  0.00    +0.000 NA
ATOM     20  N   UNL     1       1.282   3.410  17.589  0.00  0.00    +0.000 NA
ATOM     21  C   UNL     1       2.079   4.188  18.293  0.00  0.00    +0.000 A 
ENDBRANCH   1  21
TORSDOF 1
ENDMDL
MODEL 2
REMARK VINA RESULT:      -7.8      1.001      1.399
REMARK  Name = 
REMARK  2 active torsions:
REMARK  status: ('A' for Active; 'I' for Inactive)
REMARK    1  A    between atoms: C_1  and  N_2
REMARK    2  A    between atoms: C_6  and  C_7
REMARK                            x       y       z     vdW  Elec       q    Type
REMARK                         _______ _______ _______ _____ _____    ______ ____
ROOT
ATOM      1  C   UNL     1       4.191   4.515  18.452  0.00  0.00    +0.000 C 
ATOM      2  C   UNL     1       4.415   5.794  19.264  0.00  0.00    +0.000 C 
ATOM      3  C   UNL     1       5.255   6.735  18.401  0.00  0.00    +0.000 C 
ATOM      4  C   UNL     1       6.590   6.090  17.998  0.00  0.00    +0.000 C 
ATOM      5  N   UNL     1       6.400   4.732  17.465  0.00  0.00    +0.000 N 
ATOM      6  C   UNL     1       6.476   4.519  16.128  0.00  0.00    +0.000 A 
ATOM      7  N   UNL     1       5.918   3.562  15.411  0.00  0.00    +0.000 NA
ATOM      8  C   UNL     1       6.348   3.811  14.129  0.00  0.00    +0.000 A 
ATOM      9  C   UNL     1       6.100   3.150  12.919  0.00  0.00    +0.000 A 
ATOM     10  C   UNL     1       6.689   3.667  11.750  0.00  0.00    +0.000 A 
ATOM     11  C   UNL     1       7.500   4.809  11.792  0.00  0.00    +0.000 A 
ATOM     12  C   UNL     1       7.758   5.476  12.995  0.00  0.00    +0.000 A 
ATOM     13  C   UNL     1       7.153   4.938  14.126  0.00  0.00    +0.000 A 
ATOM     14  O   UNL     1       7.240   5.393  15.400  0.00  0.00    +0.000 OA
ATOM     15  C   UNL     1       5.548   3.832  18.262  0.00  0.00    +0.000 C 
ENDROOT
BRANCH   1  21
ATOM     16  C   UNL     1       1.288   4.549  17.507  0.00  0.00    +0.000 C 
ATOM     17  N   UNL     1       1.798   3.781  18.612  0.00  0.00    +0.000 N 
ATOM     18  C   UNL     1       1.062   3.093  19.525  0.00  0.00    +0.000 A 
ATOM     19  N   UNL     1       1.871   2.481  20.357  0.00  0.00    +0.000 NA
ATOM     20  N   UNL     1       3.164   2.830  20.027  0.00  0.00    +0.000 NA
ATOM     21  C   UNL     1       3.107   3.661  19.005  0.00  0.00    +0.000 A 
ENDBRANCH   1  21
TORSDOF 1
ENDMDL
MODEL 3
REMARK VINA RESULT:      -7.5      0.751      1.247
REMARK  Name = 
REMARK  2 active torsions:
REMARK  status: ('A' for Active; 'I' for Inactive)
REMARK    1  A    between atoms: C_1  and  N_2
REMARK    2  A    between atoms: C_6  and  C_7
REMARK                            x       y       z     vdW  Elec       q    Type
REMARK                         _______ _______ _______ _____ _____    ______ ____
ROOT
ATOM      1  C   UNL     1       3.570   4.948  18.146  0.00  0.00    +0.000 C 
ATOM      2  C   UNL     1       3.632   6.349  18.762  0.00  0.00    +0.000 C 
ATOM      3  C   UNL     1       4.477   7.216  17.829  0.00  0.00    +0.000 C 
ATOM      4  C   UNL     1       5.884   6.630  17.634  0.00  0.00    +0.000 C 
ATOM      5  N   UNL     1       5.837   5.196  17.308  0.00  0.00    +0.000 N 
ATOM      6  C   UNL     1       6.045   4.791  16.031  0.00  0.00    +0.000 A 
ATOM      7  N   UNL     1       5.620   3.695  15.432  0.00  0.00    +0.000 NA
ATOM      8  C   UNL     1       6.142   3.783  14.162  0.00  0.00    +0.000 A 
ATOM      9  C   UNL     1       6.049   2.930  13.056  0.00  0.00    +0.000 A 
ATOM     10  C   UNL     1       6.701   3.313  11.869  0.00  0.00    +0.000 A 
ATOM     11  C   UNL     1       7.423   4.511  11.793  0.00  0.00    +0.000 A 
ATOM     12  C   UNL     1       7.527   5.370  12.893  0.00  0.00    +0.000 A 
ATOM     13  C   UNL     1       6.864   4.959  14.044  0.00  0.00    +0.000 A 
ATOM     14  O   UNL     1       6.807   5.606  15.235  0.00  0.00    +0.000 OA
ATOM     15  C   UNL     1       4.983   4.359  18.168  0.00  0.00    +0.000 C 
ENDROOT
BRANCH   1  21
ATOM     16  C   UNL     1       2.843   2.137  17.201  0.00  0.00    +0.000 C 
ATOM     17  N   UNL     1       2.151   2.881  18.220  0.00  0.00    +0.000 N 
ATOM     18  C   UNL     1       0.969   2.547  18.801  0.00  0.00    +0.000 A 
ATOM     19  N   UNL     1       0.670   3.440  19.715  0.00  0.00    +0.000 NA
ATOM     20  N   UNL     1       1.642   4.418  19.687  0.00  0.00    +0.000 NA
ATOM     21  C   UNL     1       2.504   4.100  18.742  0.00  0.00    +0.000 A 
ENDBRANCH   1  21
TORSDOF 1
ENDMDL
MODEL 4
REMARK VINA RESULT:      -7.5      2.046      6.668
REMARK  Name = 
REMARK  2 active torsions:
REMARK  status: ('A' for Active; 'I' for Inactive)
REMARK    1  A    between atoms: C_1  and  N_2
REMARK    2  A    between atoms: C_6  and  C_7
REMARK                            x       y       z     vdW  Elec       q    Type
REMARK                         _______ _______ _______ _____ _____    ______ ____
ROOT
ATOM      1  C   UNL     1       6.620   5.064  16.118  0.00  0.00    +0.000 C 
ATOM      2  C   UNL     1       7.928   5.284  16.884  0.00  0.00    +0.000 C 
ATOM      3  C   UNL     1       7.648   4.972  18.354  0.00  0.00    +0.000 C 
ATOM      4  C   UNL     1       6.521   5.853  18.913  0.00  0.00    +0.000 C 
ATOM      5  N   UNL     1       5.347   5.864  18.027  0.00  0.00    +0.000 N 
ATOM      6  C   UNL     1       4.250   5.136  18.355  0.00  0.00    +0.000 A 
ATOM      7  N   UNL     1       3.323   4.635  17.562  0.00  0.00    +0.000 NA
ATOM      8  C   UNL     1       2.444   4.020  18.423  0.00  0.00    +0.000 A 
ATOM      9  C   UNL     1       1.257   3.312  18.192  0.00  0.00    +0.000 A 
ATOM     10  C   UNL     1       0.576   2.783  19.304  0.00  0.00    +0.000 A 
ATOM     11  C   UNL     1       1.067   2.959  20.605  0.00  0.00    +0.000 A 
ATOM     12  C   UNL     1       2.249   3.668  20.848  0.00  0.00    +0.000 A 
ATOM     13  C   UNL     1       2.895   4.169  19.723  0.00  0.00    +0.000 A 
ATOM     14  O   UNL     1       4.047   4.882  19.687  0.00  0.00    +0.000 OA
ATOM     15  C   UNL     1       5.610   6.111  16.598  0.00  0.00    +0.000 C 
ENDROOT
BRANCH   1  21
ATOM     16  C   UNL     1       4.904   3.400  14.218  0.00  0.00    +0.000 C 
ATOM     17  N   UNL     1       6.079   4.145  13.848  0.00  0.00    +0.000 N 
ATOM     18  C   UNL     1       6.725   4.092  12.654  0.00  0.00    +0.000 A 
ATOM     19  N   UNL     1       7.727   4.939  12.668  0.00  0.00    +0.000 NA
ATOM     20  N   UNL     1       7.784   5.509  13.923  0.00  0.00    +0.000 NA
ATOM     21  C   UNL     1       6.817   4.981  14.647  0.00  0.00    +0.000 A 
ENDBRANCH   1  21
TORSDOF 1
ENDMDL
MODEL 5
REMARK VINA RESULT:      -7.3      1.804      6.725
REMARK  Name = 
REMARK  2 active torsions:
REMARK  status: ('A' for Active; 'I' for Inactive)
REMARK    1  A    between atoms: C_1  and  N_2
REMARK    2  A    between atoms: C_6  and  C_7
REMARK                            x       y       z     vdW  Elec       q    Type
REMARK                         _______ _______ _______ _____ _____    ______ ____
ROOT
ATOM      1  C   UNL     1       6.258   4.454  15.477  0.00  0.00    +0.000 C 
ATOM      2  C   UNL     1       7.618   4.905  16.017  0.00  0.00    +0.000 C 
ATOM      3  C   UNL     1       7.491   5.005  17.537  0.00  0.00    +0.000 C 
ATOM      4  C   UNL     1       6.378   5.982  17.947  0.00  0.00    +0.000 C 
ATOM      5  N   UNL     1       5.128   5.721  17.216  0.00  0.00    +0.000 N 
ATOM      6  C   UNL     1       4.104   5.088  17.840  0.00  0.00    +0.000 A 
ATOM      7  N   UNL     1       3.133   4.368  17.312  0.00  0.00    +0.000 NA
ATOM      8  C   UNL     1       2.368   3.995  18.393  0.00  0.00    +0.000 A 
ATOM      9  C   UNL     1       1.202   3.224  18.486  0.00  0.00    +0.000 A 
ATOM     10  C   UNL     1       0.653   3.008  19.764  0.00  0.00    +0.000 A 
ATOM     11  C   UNL     1       1.252   3.547  20.910  0.00  0.00    +0.000 A 
ATOM     12  C   UNL     1       2.415   4.322  20.830  0.00  0.00    +0.000 A 
ATOM     13  C   UNL     1       2.929   4.507  19.550  0.00  0.00    +0.000 A 
ATOM     14  O   UNL     1       4.037   5.207  19.204  0.00  0.00    +0.000 OA
ATOM     15  C   UNL     1       5.246   5.570  15.755  0.00  0.00    +0.000 C 
ENDROOT
BRANCH   1  21
ATOM     16  C   UNL     1       8.137   5.558  13.339  0.00  0.00    +0.000 C 
ATOM     17  N   UNL     1       7.118   4.565  13.124  0.00  0.00    +0.000 N 
ATOM     18  C   UNL     1       6.697   4.087  11.923  0.00  0.00    +0.000 A 
ATOM     19  N   UNL     1       5.786   3.164  12.122  0.00  0.00    +0.000 NA
ATOM     20  N   UNL     1       5.553   3.082  13.479  0.00  0.00    +0.000 NA
ATOM     21  C   UNL     1       6.323   3.972  14.073  0.00  0.00    +0.000 A 
ENDBRANCH   1  21
TORSDOF 1
ENDMDL
MODEL 6
REMARK VINA RESULT:      -7.3      2.578      6.763
REMARK  Name = 
REMARK  2 active torsions:
REMARK  status: ('A' for Active; 'I' for Inactive)
REMARK    1  A    between atoms: C_1  and  N_2
REMARK    2  A    between atoms: C_6  and  C_7
REMARK                            x       y       z     vdW  Elec       q    Type
REMARK                         _______ _______ _______ _____ _____    ______ ____
ROOT
ATOM      1  C   UNL     1       6.594   6.013  16.934  0.00  0.00    +0.000 C 
ATOM      2  C   UNL     1       6.707   5.826  15.418  0.00  0.00    +0.000 C 
ATOM      3  C   UNL     1       5.498   5.003  14.974  0.00  0.00    +0.000 C 
ATOM      4  C   UNL     1       5.439   3.650  15.699  0.00  0.00    +0.000 C 
ATOM      5  N   UNL     1       5.609   3.803  17.152  0.00  0.00    +0.000 N 
ATOM      6  C   UNL     1       4.530   3.713  17.969  0.00  0.00    +0.000 A 
ATOM      7  N   UNL     1       4.351   4.243  19.164  0.00  0.00    +0.000 NA
ATOM      8  C   UNL     1       3.100   3.810  19.537  0.00  0.00    +0.000 A 
ATOM      9  C   UNL     1       2.346   4.033  20.696  0.00  0.00    +0.000 A 
ATOM     10  C   UNL     1       1.068   3.449  20.776  0.00  0.00    +0.000 A 
ATOM     11  C   UNL     1       0.562   2.667  19.729  0.00  0.00    +0.000 A 
ATOM     12  C   UNL     1       1.308   2.433  18.568  0.00  0.00    +0.000 A 
ATOM     13  C   UNL     1       2.563   3.033  18.525  0.00  0.00    +0.000 A 
ATOM     14  O   UNL     1       3.472   2.965  17.522  0.00  0.00    +0.000 OA
ATOM     15  C   UNL     1       6.741   4.638  17.592  0.00  0.00    +0.000 C 
ENDROOT
BRANCH   1  21
ATOM     16  C   UNL     1       8.185   5.843  19.534  0.00  0.00    +0.000 C 
ATOM     17  N   UNL     1       8.110   6.995  18.675  0.00  0.00    +0.000 N 
ATOM     18  C   UNL     1       8.573   8.241  18.954  0.00  0.00    +0.000 A 
ATOM     19  N   UNL     1       8.366   9.020  17.918  0.00  0.00    +0.000 NA
ATOM     20  N   UNL     1       7.690   8.287  16.964  0.00  0.00    +0.000 NA
ATOM     21  C   UNL     1       7.490   7.079  17.453  0.00  0.00    +0.000 A 
ENDBRANCH   1  21
TORSDOF 1
ENDMDL
MODEL 7
REMARK VINA RESULT:      -7.2      4.622      7.024
REMARK  Name = 
REMARK  2 active torsions:
REMARK  status: ('A' for Active; 'I' for Inactive)
REMARK    1  A    between atoms: C_1  and  N_2
REMARK    2  A    between atoms: C_6  and  C_7
REMARK                            x       y       z     vdW  Elec       q    Type
REMARK                         _______ _______ _______ _____ _____    ______ ____
ROOT
ATOM      1  C   UNL     1       0.601   9.197  20.270  0.00  0.00    +0.000 C 
ATOM      2  C   UNL     1       0.736  10.174  19.099  0.00  0.00    +0.000 C 
ATOM      3  C   UNL     1       1.081   9.348  17.860  0.00  0.00    +0.000 C 
ATOM      4  C   UNL     1       2.370   8.538  18.061  0.00  0.00    +0.000 C 
ATOM      5  N   UNL     1       2.359   7.804  19.336  0.00  0.00    +0.000 N 
ATOM      6  C   UNL     1       2.124   6.469  19.340  0.00  0.00    +0.000 A 
ATOM      7  N   UNL     1       1.627   5.720  20.307  0.00  0.00    +0.000 NA
ATOM      8  C   UNL     1       1.633   4.449  19.781  0.00  0.00    +0.000 A 
ATOM      9  C   UNL     1       1.229   3.219  20.316  0.00  0.00    +0.000 A 
ATOM     10  C   UNL     1       1.353   2.074  19.508  0.00  0.00    +0.000 A 
ATOM     11  C   UNL     1       1.865   2.158  18.206  0.00  0.00    +0.000 A 
ATOM     12  C   UNL     1       2.275   3.381  17.662  0.00  0.00    +0.000 A 
ATOM     13  C   UNL     1       2.130   4.489  18.490  0.00  0.00    +0.000 A 
ATOM     14  O   UNL     1       2.447   5.776  18.203  0.00  0.00    +0.000 OA
ATOM     15  C   UNL     1       1.977   8.577  20.531  0.00  0.00    +0.000 C 
ENDROOT
BRANCH   1  21
ATOM     16  C   UNL     1      -1.355  11.538  20.158  0.00  0.00    +0.000 C 
ATOM     17  N   UNL     1      -0.871  10.911  21.360  0.00  0.00    +0.000 N 
ATOM     18  C   UNL     1      -1.050  11.355  22.631  0.00  0.00    +0.000 A 
ATOM     19  N   UNL     1      -0.505  10.503  23.467  0.00  0.00    +0.000 NA
ATOM     20  N   UNL     1       0.105   9.513  22.725  0.00  0.00    +0.000 NA
ATOM     21  C   UNL     1      -0.074   9.798  21.451  0.00  0.00    +0.000 A 
ENDBRANCH   1  21
TORSDOF 1
ENDMDL
MODEL 8
REMARK VINA RESULT:      -7.2      5.979      8.638
REMARK  Name = 
REMARK  2 active torsions:
REMARK  status: ('A' for Active; 'I' for Inactive)
REMARK    1  A    between atoms: C_1  and  N_2
REMARK    2  A    between atoms: C_6  and  C_7
REMARK                            x       y       z     vdW  Elec       q    Type
REMARK                         _______ _______ _______ _____ _____    ______ ____
ROOT
ATOM      1  C   UNL     1       1.456   8.075  19.676  0.00  0.00    +0.000 C 
ATOM      2  C   UNL     1       1.511   8.163  21.204  0.00  0.00    +0.000 C 
ATOM      3  C   UNL     1       0.258   8.911  21.658  0.00  0.00    +0.000 C 
ATOM      4  C   UNL     1       0.172  10.307  21.022  0.00  0.00    +0.000 C 
ATOM      5  N   UNL     1       0.397  10.258  19.569  0.00  0.00    +0.000 N 
ATOM      6  C   UNL     1      -0.657  10.366  18.722  0.00  0.00    +0.000 A 
ATOM      7  N   UNL     1      -0.776   9.912  17.489  0.00  0.00    +0.000 NA
ATOM      8  C   UNL     1      -2.029  10.325  17.101  0.00  0.00    +0.000 A 
ATOM      9  C   UNL     1      -2.735  10.154  15.903  0.00  0.00    +0.000 A 
ATOM     10  C   UNL     1      -4.031  10.697  15.817  0.00  0.00    +0.000 A 
ATOM     11  C   UNL     1      -4.600  11.388  16.894  0.00  0.00    +0.000 A 
ATOM     12  C   UNL     1      -3.903  11.569  18.094  0.00  0.00    +0.000 A 
ATOM     13  C   UNL     1      -2.629  11.012  18.142  0.00  0.00    +0.000 A 
ATOM     14  O   UNL     1      -1.757  11.043  19.180  0.00  0.00    +0.000 OA
ATOM     15  C   UNL     1       1.573   9.495  19.116  0.00  0.00    +0.000 C 
ENDROOT
BRANCH   1  21
ATOM     16  C   UNL     1       1.707   5.182  20.621  0.00  0.00    +0.000 C 
ATOM     17  N   UNL     1       2.550   5.817  19.642  0.00  0.00    +0.000 N 
ATOM     18  C   UNL     1       3.694   5.311  19.112  0.00  0.00    +0.000 A 
ATOM     19  N   UNL     1       4.165   6.152  18.222  0.00  0.00    +0.000 NA
ATOM     20  N   UNL     1       3.351   7.266  18.217  0.00  0.00    +0.000 NA
ATOM     21  C   UNL     1       2.409   7.078  19.119  0.00  0.00    +0.000 A 
ENDBRANCH   1  21
TORSDOF 1
ENDMDL
MODEL 9
REMARK VINA RESULT:      -7.0      3.074      7.260
REMARK  Name = 
REMARK  2 active torsions:
REMARK  status: ('A' for Active; 'I' for Inactive)
REMARK    1  A    between atoms: C_1  and  N_2
REMARK    2  A    between atoms: C_6  and  C_7
REMARK                            x       y       z     vdW  Elec       q    Type
REMARK                         _______ _______ _______ _____ _____    ______ ____
ROOT
ATOM      1  C   UNL     1       3.982   4.298  17.809  0.00  0.00    +0.000 C 
ATOM      2  C   UNL     1       3.561   2.876  18.191  0.00  0.00    +0.000 C 
ATOM      3  C   UNL     1       2.333   2.996  19.093  0.00  0.00    +0.000 C 
ATOM      4  C   UNL     1       2.630   3.843  20.340  0.00  0.00    +0.000 C 
ATOM      5  N   UNL     1       3.294   5.109  19.993  0.00  0.00    +0.000 N 
ATOM      6  C   UNL     1       2.585   6.264  20.001  0.00  0.00    +0.000 A 
ATOM      7  N   UNL     1       2.806   7.374  19.323  0.00  0.00    +0.000 NA
ATOM      8  C   UNL     1       1.803   8.221  19.732  0.00  0.00    +0.000 A 
ATOM      9  C   UNL     1       1.496   9.541  19.376  0.00  0.00    +0.000 A 
ATOM     10  C   UNL     1       0.373  10.143  19.975  0.00  0.00    +0.000 A 
ATOM     11  C   UNL     1      -0.415   9.447  20.900  0.00  0.00    +0.000 A 
ATOM     12  C   UNL     1      -0.117   8.129  21.266  0.00  0.00    +0.000 A 
ATOM     13  C   UNL     1       0.996   7.568  20.648  0.00  0.00    +0.000 A 
ATOM     14  O   UNL     1       1.491   6.319  20.825  0.00  0.00    +0.000 OA
ATOM     15  C   UNL     1       4.447   5.012  19.081  0.00  0.00    +0.000 C 
ENDROOT
BRANCH   1  21
ATOM     16  C   UNL     1       4.834   6.827  16.326  0.00  0.00    +0.000 C 
ATOM     17  N   UNL     1       5.206   5.484  15.968  0.00  0.00    +0.000 N 
ATOM     18  C   UNL     1       5.836   5.097  14.828  0.00  0.00    +0.000 A 
ATOM     19  N   UNL     1       6.048   3.803  14.870  0.00  0.00    +0.000 NA
ATOM     20  N   UNL     1       5.484   3.318  16.032  0.00  0.00    +0.000 NA
ATOM     21  C   UNL     1       4.928   4.333  16.663  0.00  0.00    +0.000 A 
ENDBRANCH   1  21
TORSDOF 1
ENDMDL
