MODEL 1
REMARK VINA RESULT:      -7.4      0.000      0.000
REMARK  Name = 
REMARK  6 active torsions:
REMARK  status: ('A' for Active; 'I' for Inactive)
REMARK    1  A    between atoms: C_1  and  C_2
REMARK    2  A    between atoms: C_2  and  C_3
REMARK    3  A    between atoms: C_10  and  O_11
REMARK    4  A    between atoms: C_13  and  S_14
REMARK    5  A    between atoms: S_14  and  C_15
REMARK    6  A    between atoms: C_18  and  N_19
REMARK                            x       y       z     vdW  Elec       q    Type
REMARK                         _______ _______ _______ _____ _____    ______ ____
ROOT
ATOM      1  C   UNL     1       3.650   3.643  17.459  0.00  0.00    +0.000 A 
ATOM      2  N   UNL     1       4.151   3.479  16.188  0.00  0.00    +0.000 N 
ATOM      3  C   UNL     1       5.264   4.251  16.020  0.00  0.00    +0.000 A 
ATOM      4  N   UNL     1       5.964   4.324  14.874  0.00  0.00    +0.000 NA
ATOM      5  C   UNL     1       7.004   5.156  14.955  0.00  0.00    +0.000 A 
ATOM      6  N   UNL     1       7.767   5.332  13.813  0.00  0.00    +0.000 N 
ATOM      7  N   UNL     1       7.409   5.820  16.044  0.00  0.00    +0.000 NA
ATOM      8  C   UNL     1       6.667   5.704  17.160  0.00  0.00    +0.000 A 
ATOM      9  C   UNL     1       5.515   4.926  17.204  0.00  0.00    +0.000 A 
ATOM     10  C   UNL     1       4.446   4.585  18.094  0.00  0.00    +0.000 A 
ATOM     11  H   UNL     1       3.763   2.892  15.465  0.00  0.00    +0.000 HD
ATOM     12  H   UNL     1       7.697   4.524  13.211  0.00  0.00    +0.000 HD
ATOM     13  H   UNL     1       8.690   5.658  14.055  0.00  0.00    +0.000 HD
ENDROOT
BRANCH   1  15
ATOM     14  C   UNL     1       1.216   3.785  17.925  0.00  0.00    +0.000 C 
ATOM     15  C   UNL     1       2.446   2.888  17.918  0.00  0.00    +0.000 C 
ENDBRANCH   1  15
BRANCH   8  16
ATOM     16  O   UNL     1       7.188   6.375  18.227  0.00  0.00    +0.000 OA
ATOM     17  H   UNL     1       7.705   5.655  18.634  0.00  0.00    +0.000 HD
ENDBRANCH   8  16
BRANCH  10  18
ATOM     18  S   UNL     1       4.054   5.319  19.642  0.00  0.00    +0.000 S 
BRANCH  18  19
ATOM     19  C   UNL     1       2.962   6.671  19.251  0.00  0.00    +0.000 A 
ATOM     20  C   UNL     1       2.142   7.183  20.260  0.00  0.00    +0.000 A 
ATOM     21  C   UNL     1       1.375   8.328  20.052  0.00  0.00    +0.000 A 
ATOM     22  C   UNL     1       1.434   8.986  18.821  0.00  0.00    +0.000 A 
ATOM     23  C   UNL     1       2.241   8.486  17.790  0.00  0.00    +0.000 A 
ATOM     24  C   UNL     1       3.006   7.329  18.011  0.00  0.00    +0.000 A 
BRANCH  22  25
ATOM     25  N   UNL     1       0.671  10.231  18.638  0.00  0.00    +0.000 N 
ATOM     26  O   UNL     1      -0.381  10.170  17.995  0.00  0.00    +0.000 OA
ATOM     27  O   UNL     1       1.127  11.264  19.143  0.00  0.00    +0.000 OA
ENDBRANCH  22  25
ENDBRANCH  18  19
ENDBRANCH  10  18
TORSDOF 5
ENDMDL
MODEL 2
REMARK VINA RESULT:      -7.4      1.164      1.309
REMARK  Name = 
REMARK  6 active torsions:
REMARK  status: ('A' for Active; 'I' for Inactive)
REMARK    1  A    between atoms: C_1  and  C_2
REMARK    2  A    between atoms: C_2  and  C_3
REMARK    3  A    between atoms: C_10  and  O_11
REMARK    4  A    between atoms: C_13  and  S_14
REMARK    5  A    between atoms: S_14  and  C_15
REMARK    6  A    between atoms: C_18  and  N_19
REMARK                            x       y       z     vdW  Elec       q    Type
REMARK                         _______ _______ _______ _____ _____    ______ ____
ROOT
ATOM      1  C   UNL     1       2.596   3.929  17.946  0.00  0.00    +0.000 A 
ATOM      2  N   UNL     1       3.316   3.703  16.796  0.00  0.00    +0.000 N 
ATOM      3  C   UNL     1       4.595   4.156  16.948  0.00  0.00    +0.000 A 
ATOM      4  N   UNL     1       5.535   4.099  15.988  0.00  0.00    +0.000 NA
ATOM      5  C   UNL     1       6.703   4.616  16.374  0.00  0.00    +0.000 A 
ATOM      6  N   UNL     1       7.726   4.639  15.441  0.00  0.00    +0.000 N 
ATOM      7  N   UNL     1       7.000   5.088  17.590  0.00  0.00    +0.000 NA
ATOM      8  C   UNL     1       6.017   5.118  18.508  0.00  0.00    +0.000 A 
ATOM      9  C   UNL     1       4.730   4.676  18.226  0.00  0.00    +0.000 A 
ATOM     10  C   UNL     1       3.435   4.588  18.832  0.00  0.00    +0.000 A 
ATOM     11  H   UNL     1       2.971   3.280  15.947  0.00  0.00    +0.000 HD
ATOM     12  H   UNL     1       7.596   3.913  14.752  0.00  0.00    +0.000 HD
ATOM     13  H   UNL     1       8.620   4.693  15.904  0.00  0.00    +0.000 HD
ENDROOT
BRANCH   1  15
ATOM     14  C   UNL     1       1.056   2.195  18.831  0.00  0.00    +0.000 C 
ATOM     15  C   UNL     1       1.169   3.502  18.058  0.00  0.00    +0.000 C 
ENDBRANCH   1  15
BRANCH   8  16
ATOM     16  O   UNL     1       6.431   5.567  19.727  0.00  0.00    +0.000 OA
ATOM     17  H   UNL     1       5.818   5.070  20.300  0.00  0.00    +0.000 HD
ENDBRANCH   8  16
BRANCH  10  18
ATOM     18  S   UNL     1       2.894   5.318  20.337  0.00  0.00    +0.000 S 
BRANCH  18  19
ATOM     19  C   UNL     1       2.178   6.879  19.864  0.00  0.00    +0.000 A 
ATOM     20  C   UNL     1       1.487   7.618  20.828  0.00  0.00    +0.000 A 
ATOM     21  C   UNL     1       1.031   8.906  20.556  0.00  0.00    +0.000 A 
ATOM     22  C   UNL     1       1.277   9.478  19.305  0.00  0.00    +0.000 A 
ATOM     23  C   UNL     1       1.958   8.753  18.318  0.00  0.00    +0.000 A 
ATOM     24  C   UNL     1       2.410   7.454  18.603  0.00  0.00    +0.000 A 
BRANCH  22  25
ATOM     25  N   UNL     1       0.848  10.863  19.054  0.00  0.00    +0.000 N 
ATOM     26  O   UNL     1      -0.280  11.193  19.431  0.00  0.00    +0.000 OA
ATOM     27  O   UNL     1       1.647  11.617  18.484  0.00  0.00    +0.000 OA
ENDBRANCH  22  25
ENDBRANCH  18  19
ENDBRANCH  10  18
TORSDOF 5
ENDMDL
MODEL 3
REMARK VINA RESULT:      -7.3      1.118      1.613
REMARK  Name = 
REMARK  6 active torsions:
REMARK  status: ('A' for Active; 'I' for Inactive)
REMARK    1  A    between atoms: C_1  and  C_2
REMARK    2  A    between atoms: C_2  and  C_3
REMARK    3  A    between atoms: C_10  and  O_11
REMARK    4  A    between atoms: C_13  and  S_14
REMARK    5  A    between atoms: S_14  and  C_15
REMARK    6  A    between atoms: C_18  and  N_19
REMARK                            x       y       z     vdW  Elec       q    Type
REMARK                         _______ _______ _______ _____ _____    ______ ____
ROOT
ATOM      1  C   UNL     1       2.501   3.876  17.975  0.00  0.00    +0.000 A 
ATOM      2  N   UNL     1       3.207   3.669  16.813  0.00  0.00    +0.000 N 
ATOM      3  C   UNL     1       4.478   4.148  16.945  0.00  0.00    +0.000 A 
ATOM      4  N   UNL     1       5.402   4.114  15.969  0.00  0.00    +0.000 NA
ATOM      5  C   UNL     1       6.566   4.654  16.338  0.00  0.00    +0.000 A 
ATOM      6  N   UNL     1       7.572   4.703  15.388  0.00  0.00    +0.000 N 
ATOM      7  N   UNL     1       6.873   5.129  17.550  0.00  0.00    +0.000 NA
ATOM      8  C   UNL     1       5.906   5.135  18.485  0.00  0.00    +0.000 A 
ATOM      9  C   UNL     1       4.623   4.667  18.222  0.00  0.00    +0.000 A 
ATOM     10  C   UNL     1       3.340   4.549  18.850  0.00  0.00    +0.000 A 
ATOM     11  H   UNL     1       2.856   3.242  15.969  0.00  0.00    +0.000 HD
ATOM     12  H   UNL     1       7.446   3.976  14.699  0.00  0.00    +0.000 HD
ATOM     13  H   UNL     1       8.473   4.773  15.835  0.00  0.00    +0.000 HD
ENDROOT
BRANCH   1  15
ATOM     14  C   UNL     1       1.003   2.162  18.965  0.00  0.00    +0.000 C 
ATOM     15  C   UNL     1       1.085   3.419  18.110  0.00  0.00    +0.000 C 
ENDBRANCH   1  15
BRANCH   8  16
ATOM     16  O   UNL     1       6.331   5.589  19.699  0.00  0.00    +0.000 OA
ATOM     17  H   UNL     1       5.770   6.383  19.780  0.00  0.00    +0.000 HD
ENDBRANCH   8  16
BRANCH  10  18
ATOM     18  S   UNL     1       2.810   5.263  20.366  0.00  0.00    +0.000 S 
BRANCH  18  19
ATOM     19  C   UNL     1       2.293   6.915  19.946  0.00  0.00    +0.000 A 
ATOM     20  C   UNL     1       2.523   7.378  18.648  0.00  0.00    +0.000 A 
ATOM     21  C   UNL     1       2.015   8.603  18.221  0.00  0.00    +0.000 A 
ATOM     22  C   UNL     1       1.251   9.379  19.096  0.00  0.00    +0.000 A 
ATOM     23  C   UNL     1       1.014   8.941  20.406  0.00  0.00    +0.000 A 
ATOM     24  C   UNL     1       1.535   7.706  20.826  0.00  0.00    +0.000 A 
BRANCH  22  25
ATOM     25  N   UNL     1       0.664  10.638  18.611  0.00  0.00    +0.000 N 
ATOM     26  O   UNL     1      -0.526  10.629  18.282  0.00  0.00    +0.000 OA
ATOM     27  O   UNL     1       1.397  11.634  18.567  0.00  0.00    +0.000 OA
ENDBRANCH  22  25
ENDBRANCH  18  19
ENDBRANCH  10  18
TORSDOF 5
ENDMDL
MODEL 4
REMARK VINA RESULT:      -7.3      3.611      6.724
REMARK  Name = 
REMARK  6 active torsions:
REMARK  status: ('A' for Active; 'I' for Inactive)
REMARK    1  A    between atoms: C_1  and  C_2
REMARK    2  A    between atoms: C_2  and  C_3
REMARK    3  A    between atoms: C_10  and  O_11
REMARK    4  A    between atoms: C_13  and  S_14
REMARK    5  A    between atoms: S_14  and  C_15
REMARK    6  A    between atoms: C_18  and  N_19
REMARK                            x       y       z     vdW  Elec       q    Type
REMARK                         _______ _______ _______ _____ _____    ______ ____
ROOT
ATOM      1  C   UNL     1       3.202   6.449  18.036  0.00  0.00    +0.000 A 
ATOM      2  N   UNL     1       1.988   5.810  18.135  0.00  0.00    +0.000 N 
ATOM      3  C   UNL     1       2.175   4.497  18.459  0.00  0.00    +0.000 A 
ATOM      4  N   UNL     1       1.178   3.606  18.602  0.00  0.00    +0.000 NA
ATOM      5  C   UNL     1       1.616   2.383  18.908  0.00  0.00    +0.000 A 
ATOM      6  N   UNL     1       0.666   1.384  19.039  0.00  0.00    +0.000 N 
ATOM      7  N   UNL     1       2.885   2.027  19.136  0.00  0.00    +0.000 NA
ATOM      8  C   UNL     1       3.837   2.964  18.977  0.00  0.00    +0.000 A 
ATOM      9  C   UNL     1       3.535   4.266  18.593  0.00  0.00    +0.000 A 
ATOM     10  C   UNL     1       4.185   5.497  18.258  0.00  0.00    +0.000 A 
ATOM     11  H   UNL     1       1.080   6.224  17.982  0.00  0.00    +0.000 HD
ATOM     12  H   UNL     1      -0.230   1.774  19.290  0.00  0.00    +0.000 HD
ATOM     13  H   UNL     1       1.026   0.632  19.606  0.00  0.00    +0.000 HD
ENDROOT
BRANCH   1  15
ATOM     14  C   UNL     1       1.917   8.566  17.859  0.00  0.00    +0.000 C 
ATOM     15  C   UNL     1       3.282   7.907  17.720  0.00  0.00    +0.000 C 
ENDBRANCH   1  15
BRANCH   8  16
ATOM     16  O   UNL     1       5.089   2.518  19.281  0.00  0.00    +0.000 OA
ATOM     17  H   UNL     1       4.982   1.573  19.065  0.00  0.00    +0.000 HD
ENDBRANCH   8  16
BRANCH  10  18
ATOM     18  S   UNL     1       5.899   5.774  17.982  0.00  0.00    +0.000 S 
BRANCH  18  19
ATOM     19  C   UNL     1       6.228   5.083  16.373  0.00  0.00    +0.000 A 
ATOM     20  C   UNL     1       5.324   4.158  15.845  0.00  0.00    +0.000 A 
ATOM     21  C   UNL     1       5.452   3.693  14.537  0.00  0.00    +0.000 A 
ATOM     22  C   UNL     1       6.490   4.167  13.733  0.00  0.00    +0.000 A 
ATOM     23  C   UNL     1       7.416   5.088  14.243  0.00  0.00    +0.000 A 
ATOM     24  C   UNL     1       7.279   5.545  15.564  0.00  0.00    +0.000 A 
BRANCH  22  25
ATOM     25  N   UNL     1       6.574   3.720  12.334  0.00  0.00    +0.000 N 
ATOM     26  O   UNL     1       5.825   2.806  11.977  0.00  0.00    +0.000 OA
ATOM     27  O   UNL     1       7.388   4.290  11.596  0.00  0.00    +0.000 OA
ENDBRANCH  22  25
ENDBRANCH  18  19
ENDBRANCH  10  18
TORSDOF 5
ENDMDL
MODEL 5
REMARK VINA RESULT:      -7.1      0.241      1.036
REMARK  Name = 
REMARK  6 active torsions:
REMARK  status: ('A' for Active; 'I' for Inactive)
REMARK    1  A    between atoms: C_1  and  C_2
REMARK    2  A    between atoms: C_2  and  C_3
REMARK    3  A    between atoms: C_10  and  O_11
REMARK    4  A    between atoms: C_13  and  S_14
REMARK    5  A    between atoms: S_14  and  C_15
REMARK    6  A    between atoms: C_18  and  N_19
REMARK                            x       y       z     vdW  Elec       q    Type
REMARK                         _______ _______ _______ _____ _____    ______ ____
ROOT
ATOM      1  C   UNL     1       3.536   3.717  17.353  0.00  0.00    +0.000 A 
ATOM      2  N   UNL     1       4.064   3.628  16.086  0.00  0.00    +0.000 N 
ATOM      3  C   UNL     1       5.211   4.363  16.004  0.00  0.00    +0.000 A 
ATOM      4  N   UNL     1       5.944   4.494  14.884  0.00  0.00    +0.000 NA
ATOM      5  C   UNL     1       7.014   5.274  15.054  0.00  0.00    +0.000 A 
ATOM      6  N   UNL     1       7.814   5.503  13.947  0.00  0.00    +0.000 N 
ATOM      7  N   UNL     1       7.415   5.835  16.201  0.00  0.00    +0.000 NA
ATOM      8  C   UNL     1       6.639   5.667  17.286  0.00  0.00    +0.000 A 
ATOM      9  C   UNL     1       5.457   4.936  17.242  0.00  0.00    +0.000 A 
ATOM     10  C   UNL     1       4.351   4.573  18.078  0.00  0.00    +0.000 A 
ATOM     11  H   UNL     1       3.673   3.114  15.311  0.00  0.00    +0.000 HD
ATOM     12  H   UNL     1       7.729   4.747  13.284  0.00  0.00    +0.000 HD
ATOM     13  H   UNL     1       8.742   5.771  14.236  0.00  0.00    +0.000 HD
ENDROOT
BRANCH   1  15
ATOM     14  C   UNL     1       1.109   3.934  17.827  0.00  0.00    +0.000 C 
ATOM     15  C   UNL     1       2.290   2.980  17.724  0.00  0.00    +0.000 C 
ENDBRANCH   1  15
BRANCH   8  16
ATOM     16  O   UNL     1       7.157   6.233  18.413  0.00  0.00    +0.000 OA
ATOM     17  H   UNL     1       7.401   5.425  18.903  0.00  0.00    +0.000 HD
ENDBRANCH   8  16
BRANCH  10  18
ATOM     18  S   UNL     1       3.946   5.204  19.668  0.00  0.00    +0.000 S 
BRANCH  18  19
ATOM     19  C   UNL     1       3.063   6.719  19.355  0.00  0.00    +0.000 A 
ATOM     20  C   UNL     1       3.134   7.284  18.079  0.00  0.00    +0.000 A 
ATOM     21  C   UNL     1       2.353   8.385  17.735  0.00  0.00    +0.000 A 
ATOM     22  C   UNL     1       1.474   8.930  18.674  0.00  0.00    +0.000 A 
ATOM     23  C   UNL     1       1.391   8.388  19.964  0.00  0.00    +0.000 A 
ATOM     24  C   UNL     1       2.187   7.280  20.299  0.00  0.00    +0.000 A 
BRANCH  22  25
ATOM     25  N   UNL     1       0.606  10.050  18.277  0.00  0.00    +0.000 N 
ATOM     26  O   UNL     1      -0.431   9.785  17.663  0.00  0.00    +0.000 OA
ATOM     27  O   UNL     1       0.966  11.193  18.587  0.00  0.00    +0.000 OA
ENDBRANCH  22  25
ENDBRANCH  18  19
ENDBRANCH  10  18
TORSDOF 5
ENDMDL
MODEL 6
REMARK VINA RESULT:      -6.9      4.056      6.207
REMARK  Name = 
REMARK  6 active torsions:
REMARK  status: ('A' for Active; 'I' for Inactive)
REMARK    1  A    between atoms: C_1  and  C_2
REMARK    2  A    between atoms: C_2  and  C_3
REMARK    3  A    between atoms: C_10  and  O_11
REMARK    4  A    between atoms: C_13  and  S_14
REMARK    5  A    between atoms: S_14  and  C_15
REMARK    6  A    between atoms: C_18  and  N_19
REMARK                            x       y       z     vdW  Elec       q    Type
REMARK                         _______ _______ _______ _____ _____    ______ ____
ROOT
ATOM      1  C   UNL     1       3.308   6.195  18.445  0.00  0.00    +0.000 A 
ATOM      2  N   UNL     1       2.289   5.941  19.334  0.00  0.00    +0.000 N 
ATOM      3  C   UNL     1       2.506   4.750  19.965  0.00  0.00    +0.000 A 
ATOM      4  N   UNL     1       1.672   4.215  20.874  0.00  0.00    +0.000 NA
ATOM      5  C   UNL     1       2.097   3.038  21.339  0.00  0.00    +0.000 A 
ATOM      6  N   UNL     1       1.286   2.387  22.253  0.00  0.00    +0.000 N 
ATOM      7  N   UNL     1       3.251   2.433  21.035  0.00  0.00    +0.000 NA
ATOM      8  C   UNL     1       4.043   3.019  20.119  0.00  0.00    +0.000 A 
ATOM      9  C   UNL     1       3.696   4.214  19.498  0.00  0.00    +0.000 A 
ATOM     10  C   UNL     1       4.167   5.108  18.483  0.00  0.00    +0.000 A 
ATOM     11  H   UNL     1       1.484   6.524  19.504  0.00  0.00    +0.000 HD
ATOM     12  H   UNL     1       0.707   3.048  22.750  0.00  0.00    +0.000 HD
ATOM     13  H   UNL     1       1.828   1.735  22.799  0.00  0.00    +0.000 HD
ENDROOT
BRANCH   1  15
ATOM     14  C   UNL     1       2.224   8.400  18.083  0.00  0.00    +0.000 C 
ATOM     15  C   UNL     1       3.331   7.454  17.639  0.00  0.00    +0.000 C 
ENDBRANCH   1  15
BRANCH   8  16
ATOM     16  O   UNL     1       5.216   2.353  19.916  0.00  0.00    +0.000 OA
ATOM     17  H   UNL     1       5.060   1.573  20.481  0.00  0.00    +0.000 HD
ENDBRANCH   8  16
BRANCH  10  18
ATOM     18  S   UNL     1       5.475   4.850  17.338  0.00  0.00    +0.000 S 
BRANCH  18  19
ATOM     19  C   UNL     1       6.627   6.174  17.643  0.00  0.00    +0.000 A 
ATOM     20  C   UNL     1       6.460   7.378  16.955  0.00  0.00    +0.000 A 
ATOM     21  C   UNL     1       7.240   8.493  17.256  0.00  0.00    +0.000 A 
ATOM     22  C   UNL     1       8.196   8.415  18.271  0.00  0.00    +0.000 A 
ATOM     23  C   UNL     1       8.390   7.216  18.970  0.00  0.00    +0.000 A 
ATOM     24  C   UNL     1       7.600   6.097  18.654  0.00  0.00    +0.000 A 
BRANCH  22  25
ATOM     25  N   UNL     1       8.965   9.618  18.625  0.00  0.00    +0.000 N 
ATOM     26  O   UNL     1       9.192  10.439  17.730  0.00  0.00    +0.000 OA
ATOM     27  O   UNL     1       9.336   9.739  19.799  0.00  0.00    +0.000 OA
ENDBRANCH  22  25
ENDBRANCH  18  19
ENDBRANCH  10  18
TORSDOF 5
ENDMDL
MODEL 7
REMARK VINA RESULT:      -6.7      3.615      6.861
REMARK  Name = 
REMARK  6 active torsions:
REMARK  status: ('A' for Active; 'I' for Inactive)
REMARK    1  A    between atoms: C_1  and  C_2
REMARK    2  A    between atoms: C_2  and  C_3
REMARK    3  A    between atoms: C_10  and  O_11
REMARK    4  A    between atoms: C_13  and  S_14
REMARK    5  A    between atoms: S_14  and  C_15
REMARK    6  A    between atoms: C_18  and  N_19
REMARK                            x       y       z     vdW  Elec       q    Type
REMARK                         _______ _______ _______ _____ _____    ______ ____
ROOT
ATOM      1  C   UNL     1       3.359   6.838  17.999  0.00  0.00    +0.000 A 
ATOM      2  N   UNL     1       2.193   6.222  18.391  0.00  0.00    +0.000 N 
ATOM      3  C   UNL     1       2.456   4.953  18.820  0.00  0.00    +0.000 A 
ATOM      4  N   UNL     1       1.516   4.090  19.244  0.00  0.00    +0.000 NA
ATOM      5  C   UNL     1       2.020   2.907  19.600  0.00  0.00    +0.000 A 
ATOM      6  N   UNL     1       1.126   1.935  20.015  0.00  0.00    +0.000 N 
ATOM      7  N   UNL     1       3.315   2.571  19.629  0.00  0.00    +0.000 NA
ATOM      8  C   UNL     1       4.207   3.478  19.193  0.00  0.00    +0.000 A 
ATOM      9  C   UNL     1       3.821   4.730  18.726  0.00  0.00    +0.000 A 
ATOM     10  C   UNL     1       4.380   5.912  18.141  0.00  0.00    +0.000 A 
ATOM     11  H   UNL     1       1.267   6.622  18.363  0.00  0.00    +0.000 HD
ATOM     12  H   UNL     1       0.286   2.358  20.382  0.00  0.00    +0.000 HD
ATOM     13  H   UNL     1       1.594   1.250  20.587  0.00  0.00    +0.000 HD
ENDROOT
BRANCH   1  15
ATOM     14  C   UNL     1       2.018   8.916  17.785  0.00  0.00    +0.000 C 
ATOM     15  C   UNL     1       3.359   8.251  17.511  0.00  0.00    +0.000 C 
ENDBRANCH   1  15
BRANCH   8  16
ATOM     16  O   UNL     1       5.501   3.062  19.309  0.00  0.00    +0.000 OA
ATOM     17  H   UNL     1       5.927   3.913  19.522  0.00  0.00    +0.000 HD
ENDBRANCH   8  16
BRANCH  10  18
ATOM     18  S   UNL     1       6.010   6.144  17.525  0.00  0.00    +0.000 S 
BRANCH  18  19
ATOM     19  C   UNL     1       6.003   5.407  15.903  0.00  0.00    +0.000 A 
ATOM     20  C   UNL     1       7.175   5.448  15.143  0.00  0.00    +0.000 A 
ATOM     21  C   UNL     1       7.271   4.766  13.932  0.00  0.00    +0.000 A 
ATOM     22  C   UNL     1       6.186   4.018  13.471  0.00  0.00    +0.000 A 
ATOM     23  C   UNL     1       4.995   3.970  14.209  0.00  0.00    +0.000 A 
ATOM     24  C   UNL     1       4.909   4.665  15.427  0.00  0.00    +0.000 A 
BRANCH  22  25
ATOM     25  N   UNL     1       6.323   3.249  12.224  0.00  0.00    +0.000 N 
ATOM     26  O   UNL     1       7.436   3.217  11.689  0.00  0.00    +0.000 OA
ATOM     27  O   UNL     1       5.317   2.677  11.788  0.00  0.00    +0.000 OA
ENDBRANCH  22  25
ENDBRANCH  18  19
ENDBRANCH  10  18
TORSDOF 5
ENDMDL
MODEL 8
REMARK VINA RESULT:      -6.7      4.574      9.400
REMARK  Name = 
REMARK  6 active torsions:
REMARK  status: ('A' for Active; 'I' for Inactive)
REMARK    1  A    between atoms: C_1  and  C_2
REMARK    2  A    between atoms: C_2  and  C_3
REMARK    3  A    between atoms: C_10  and  O_11
REMARK    4  A    between atoms: C_13  and  S_14
REMARK    5  A    between atoms: S_14  and  C_15
REMARK    6  A    between atoms: C_18  and  N_19
REMARK                            x       y       z     vdW  Elec       q    Type
REMARK                         _______ _______ _______ _____ _____    ______ ____
ROOT
ATOM      1  C   UNL     1      -1.604  12.255  20.639  0.00  0.00    +0.000 A 
ATOM      2  N   UNL     1      -2.970  12.405  20.578  0.00  0.00    +0.000 N 
ATOM      3  C   UNL     1      -3.422  12.075  19.333  0.00  0.00    +0.000 A 
ATOM      4  N   UNL     1      -4.711  12.144  18.956  0.00  0.00    +0.000 NA
ATOM      5  C   UNL     1      -4.900  11.780  17.686  0.00  0.00    +0.000 A 
ATOM      6  N   UNL     1      -6.191  11.854  17.190  0.00  0.00    +0.000 N 
ATOM      7  N   UNL     1      -3.968  11.317  16.844  0.00  0.00    +0.000 NA
ATOM      8  C   UNL     1      -2.697  11.272  17.281  0.00  0.00    +0.000 A 
ATOM      9  C   UNL     1      -2.340  11.685  18.560  0.00  0.00    +0.000 A 
ATOM     10  C   UNL     1      -1.178  11.865  19.378  0.00  0.00    +0.000 A 
ATOM     11  H   UNL     1      -3.570  12.723  21.324  0.00  0.00    +0.000 HD
ATOM     12  H   UNL     1      -6.864  11.774  17.937  0.00  0.00    +0.000 HD
ATOM     13  H   UNL     1      -6.296  11.242  16.396  0.00  0.00    +0.000 HD
ENDROOT
BRANCH   1  15
ATOM     14  C   UNL     1      -1.130  11.440  22.935  0.00  0.00    +0.000 C 
ATOM     15  C   UNL     1      -0.854  12.524  21.903  0.00  0.00    +0.000 C 
ENDBRANCH   1  15
BRANCH   8  16
ATOM     16  O   UNL     1      -1.832  10.739  16.371  0.00  0.00    +0.000 OA
ATOM     17  H   UNL     1      -1.008  10.769  16.893  0.00  0.00    +0.000 HD
ENDBRANCH   8  16
BRANCH  10  18
ATOM     18  S   UNL     1       0.509  11.798  18.889  0.00  0.00    +0.000 S 
BRANCH  18  19
ATOM     19  C   UNL     1       0.999  10.104  19.141  0.00  0.00    +0.000 A 
ATOM     20  C   UNL     1       1.655   9.436  18.105  0.00  0.00    +0.000 A 
ATOM     21  C   UNL     1       2.187   8.162  18.294  0.00  0.00    +0.000 A 
ATOM     22  C   UNL     1       2.077   7.544  19.542  0.00  0.00    +0.000 A 
ATOM     23  C   UNL     1       1.414   8.189  20.595  0.00  0.00    +0.000 A 
ATOM     24  C   UNL     1       0.879   9.472  20.390  0.00  0.00    +0.000 A 
BRANCH  22  25
ATOM     25  N   UNL     1       2.701   6.227  19.747  0.00  0.00    +0.000 N 
ATOM     26  O   UNL     1       2.162   5.454  20.545  0.00  0.00    +0.000 OA
ATOM     27  O   UNL     1       3.727   5.971  19.104  0.00  0.00    +0.000 OA
ENDBRANCH  22  25
ENDBRANCH  18  19
ENDBRANCH  10  18
TORSDOF 5
ENDMDL
MODEL 9
REMARK VINA RESULT:      -6.7      2.806      4.362
REMARK  Name = 
REMARK  6 active torsions:
REMARK  status: ('A' for Active; 'I' for Inactive)
REMARK    1  A    between atoms: C_1  and  C_2
REMARK    2  A    between atoms: C_2  and  C_3
REMARK    3  A    between atoms: C_10  and  O_11
REMARK    4  A    between atoms: C_13  and  S_14
REMARK    5  A    between atoms: S_14  and  C_15
REMARK    6  A    between atoms: C_18  and  N_19
REMARK                            x       y       z     vdW  Elec       q    Type
REMARK                         _______ _______ _______ _____ _____    ______ ____
ROOT
ATOM      1  C   UNL     1       5.460   5.341  18.110  0.00  0.00    +0.000 A 
ATOM      2  N   UNL     1       5.410   4.094  18.690  0.00  0.00    +0.000 N 
ATOM      3  C   UNL     1       4.145   3.588  18.603  0.00  0.00    +0.000 A 
ATOM      4  N   UNL     1       3.774   2.395  19.103  0.00  0.00    +0.000 NA
ATOM      5  C   UNL     1       2.482   2.128  18.902  0.00  0.00    +0.000 A 
ATOM      6  N   UNL     1       1.993   0.939  19.415  0.00  0.00    +0.000 N 
ATOM      7  N   UNL     1       1.610   2.884  18.224  0.00  0.00    +0.000 NA
ATOM      8  C   UNL     1       2.042   4.065  17.748  0.00  0.00    +0.000 A 
ATOM      9  C   UNL     1       3.347   4.507  17.941  0.00  0.00    +0.000 A 
ATOM     10  C   UNL     1       4.175   5.648  17.689  0.00  0.00    +0.000 A 
ATOM     11  H   UNL     1       6.177   3.609  19.132  0.00  0.00    +0.000 HD
ATOM     12  H   UNL     1       2.733   0.258  19.503  0.00  0.00    +0.000 HD
ATOM     13  H   UNL     1       1.158   0.662  18.921  0.00  0.00    +0.000 HD
ENDROOT
BRANCH   1  15
ATOM     14  C   UNL     1       7.773   5.520  18.992  0.00  0.00    +0.000 C 
ATOM     15  C   UNL     1       6.739   6.109  18.043  0.00  0.00    +0.000 C 
ENDBRANCH   1  15
BRANCH   8  16
ATOM     16  O   UNL     1       1.097   4.736  17.030  0.00  0.00    +0.000 OA
ATOM     17  H   UNL     1       1.282   5.646  17.328  0.00  0.00    +0.000 HD
ENDBRANCH   8  16
BRANCH  10  18
ATOM     18  S   UNL     1       3.681   7.237  17.122  0.00  0.00    +0.000 S 
BRANCH  18  19
ATOM     19  C   UNL     1       2.549   7.839  18.359  0.00  0.00    +0.000 A 
ATOM     20  C   UNL     1       2.491   7.182  19.590  0.00  0.00    +0.000 A 
ATOM     21  C   UNL     1       1.732   7.691  20.642  0.00  0.00    +0.000 A 
ATOM     22  C   UNL     1       1.027   8.884  20.473  0.00  0.00    +0.000 A 
ATOM     23  C   UNL     1       1.060   9.557  19.244  0.00  0.00    +0.000 A 
ATOM     24  C   UNL     1       1.826   9.032  18.189  0.00  0.00    +0.000 A 
BRANCH  22  25
ATOM     25  N   UNL     1       0.284   9.445  21.612  0.00  0.00    +0.000 N 
ATOM     26  O   UNL     1      -0.583   8.739  22.136  0.00  0.00    +0.000 OA
ATOM     27  O   UNL     1       0.576  10.589  21.981  0.00  0.00    +0.000 OA
ENDBRANCH  22  25
ENDBRANCH  18  19
ENDBRANCH  10  18
TORSDOF 5
ENDMDL
