MODEL 1
REMARK VINA RESULT:      -8.4      0.000      0.000
REMARK  Name = 
REMARK  6 active torsions:
REMARK  status: ('A' for Active; 'I' for Inactive)
REMARK    1  A    between atoms: C_2  and  C_3
REMARK    2  A    between atoms: C_16  and  N_17
REMARK    3  A    between atoms: N_17  and  C_18
REMARK    4  A    between atoms: C_18  and  C_19
REMARK    5  A    between atoms: C_19  and  C_20
REMARK    6  A    between atoms: C_20  and  C_21
REMARK                            x       y       z     vdW  Elec       q    Type
REMARK                         _______ _______ _______ _____ _____    ______ ____
ROOT
ATOM      1  O   UNL     1       6.630   4.413  19.017  0.00  0.00    +0.000 OA
ATOM      2  C   UNL     1       5.809   4.260  18.113  0.00  0.00    +0.000 C 
ATOM      3  N   UNL     1       4.501   3.825  18.344  0.00  0.00    +0.000 N 
ATOM      4  C   UNL     1       4.095   3.445  19.698  0.00  0.00    +0.000 C 
ATOM      5  C   UNL     1       3.227   2.176  19.696  0.00  0.00    +0.000 C 
ATOM      6  C   UNL     1       2.101   2.184  18.636  0.00  0.00    +0.000 C 
ATOM      7  C   UNL     1       2.714   2.583  17.283  0.00  0.00    +0.000 C 
ATOM      8  C   UNL     1       3.392   3.941  17.397  0.00  0.00    +0.000 C 
ENDROOT
BRANCH   2   9
ATOM      9  C   UNL     1       6.244   4.569  16.722  0.00  0.00    +0.000 A 
ATOM     10  C   UNL     1       7.051   5.673  16.433  0.00  0.00    +0.000 A 
ATOM     11  C   UNL     1       7.558   5.860  15.147  0.00  0.00    +0.000 A 
ATOM     12  C   UNL     1       7.176   5.005  14.105  0.00  0.00    +0.000 A 
ATOM     13  C   UNL     1       7.666   5.193  12.805  0.00  0.00    +0.000 A 
ATOM     14  C   UNL     1       7.229   4.380  11.759  0.00  0.00    +0.000 A 
ATOM     15  C   UNL     1       6.304   3.369  12.004  0.00  0.00    +0.000 A 
ATOM     16  C   UNL     1       5.833   3.149  13.299  0.00  0.00    +0.000 A 
ATOM     17  C   UNL     1       6.265   3.954  14.365  0.00  0.00    +0.000 A 
ATOM     18  C   UNL     1       5.818   3.738  15.681  0.00  0.00    +0.000 A 
ENDBRANCH   2   9
BRANCH   6  19
ATOM     19  N   UNL     1       1.009   3.068  19.074  0.00  0.00    +0.000 NA
ATOM     20  H   UNL     1       0.116   2.588  18.984  0.00  0.00    +0.000 HD
BRANCH  19  21
ATOM     21  C   UNL     1       1.179   3.601  20.428  0.00  0.00    +0.000 C 
BRANCH  21  22
ATOM     22  C   UNL     1       0.822   5.086  20.511  0.00  0.00    +0.000 C 
BRANCH  22  23
ATOM     23  C   UNL     1       2.064   5.975  20.651  0.00  0.00    +0.000 C 
BRANCH  23  24
ATOM     24  C   UNL     1       1.966   7.202  19.788  0.00  0.00    +0.000 A 
ATOM     25  C   UNL     1       2.527   7.198  18.504  0.00  0.00    +0.000 A 
ATOM     26  C   UNL     1       2.455   8.338  17.704  0.00  0.00    +0.000 A 
ATOM     27  C   UNL     1       1.821   9.484  18.179  0.00  0.00    +0.000 A 
ATOM     28  C   UNL     1       1.271   9.498  19.459  0.00  0.00    +0.000 A 
ATOM     29  C   UNL     1       1.341   8.363  20.262  0.00  0.00    +0.000 A 
ENDBRANCH  23  24
ENDBRANCH  22  23
ENDBRANCH  21  22
ENDBRANCH  19  21
ENDBRANCH   6  19
TORSDOF 6
ENDMDL
MODEL 2
REMARK VINA RESULT:      -8.3      2.160      3.255
REMARK  Name = 
REMARK  6 active torsions:
REMARK  status: ('A' for Active; 'I' for Inactive)
REMARK    1  A    between atoms: C_2  and  C_3
REMARK    2  A    between atoms: C_16  and  N_17
REMARK    3  A    between atoms: N_17  and  C_18
REMARK    4  A    between atoms: C_18  and  C_19
REMARK    5  A    between atoms: C_19  and  C_20
REMARK    6  A    between atoms: C_20  and  C_21
REMARK                            x       y       z     vdW  Elec       q    Type
REMARK                         _______ _______ _______ _____ _____    ______ ____
ROOT
ATOM      1  O   UNL     1       5.238   3.245  19.205  0.00  0.00    +0.000 OA
ATOM      2  C   UNL     1       4.939   4.276  18.605  0.00  0.00    +0.000 C 
ATOM      3  N   UNL     1       4.024   5.207  19.106  0.00  0.00    +0.000 N 
ATOM      4  C   UNL     1       3.312   4.920  20.352  0.00  0.00    +0.000 C 
ATOM      5  C   UNL     1       1.831   5.322  20.267  0.00  0.00    +0.000 C 
ATOM      6  C   UNL     1       1.593   6.728  19.667  0.00  0.00    +0.000 C 
ATOM      7  C   UNL     1       2.398   6.838  18.361  0.00  0.00    +0.000 C 
ATOM      8  C   UNL     1       3.873   6.583  18.633  0.00  0.00    +0.000 C 
ENDROOT
BRANCH   2   9
ATOM      9  C   UNL     1       5.601   4.532  17.295  0.00  0.00    +0.000 A 
ATOM     10  C   UNL     1       6.717   5.368  17.188  0.00  0.00    +0.000 A 
ATOM     11  C   UNL     1       7.401   5.480  15.977  0.00  0.00    +0.000 A 
ATOM     12  C   UNL     1       6.915   4.844  14.828  0.00  0.00    +0.000 A 
ATOM     13  C   UNL     1       7.584   4.963  13.603  0.00  0.00    +0.000 A 
ATOM     14  C   UNL     1       7.058   4.382  12.448  0.00  0.00    +0.000 A 
ATOM     15  C   UNL     1       5.862   3.672  12.510  0.00  0.00    +0.000 A 
ATOM     16  C   UNL     1       5.202   3.517  13.730  0.00  0.00    +0.000 A 
ATOM     17  C   UNL     1       5.718   4.090  14.903  0.00  0.00    +0.000 A 
ATOM     18  C   UNL     1       5.079   3.931  16.145  0.00  0.00    +0.000 A 
ENDBRANCH   2   9
BRANCH   6  19
ATOM     19  N   UNL     1       1.933   7.759  20.661  0.00  0.00    +0.000 NA
ATOM     20  H   UNL     1       2.603   8.415  20.265  0.00  0.00    +0.000 HD
BRANCH  19  21
ATOM     21  C   UNL     1       0.774   8.465  21.209  0.00  0.00    +0.000 C 
BRANCH  21  22
ATOM     22  C   UNL     1       0.844   9.973  20.957  0.00  0.00    +0.000 C 
BRANCH  22  23
ATOM     23  C   UNL     1       0.926  10.308  19.463  0.00  0.00    +0.000 C 
BRANCH  23  24
ATOM     24  C   UNL     1      -0.439  10.516  18.867  0.00  0.00    +0.000 A 
ATOM     25  C   UNL     1      -0.815   9.805  17.720  0.00  0.00    +0.000 A 
ATOM     26  C   UNL     1      -2.073  10.005  17.152  0.00  0.00    +0.000 A 
ATOM     27  C   UNL     1      -2.961  10.911  17.728  0.00  0.00    +0.000 A 
ATOM     28  C   UNL     1      -2.589  11.628  18.862  0.00  0.00    +0.000 A 
ATOM     29  C   UNL     1      -1.334  11.434  19.432  0.00  0.00    +0.000 A 
ENDBRANCH  23  24
ENDBRANCH  22  23
ENDBRANCH  21  22
ENDBRANCH  19  21
ENDBRANCH   6  19
TORSDOF 6
ENDMDL
MODEL 3
REMARK VINA RESULT:      -8.2      4.141      7.373
REMARK  Name = 
REMARK  6 active torsions:
REMARK  status: ('A' for Active; 'I' for Inactive)
REMARK    1  A    between atoms: C_2  and  C_3
REMARK    2  A    between atoms: C_16  and  N_17
REMARK    3  A    between atoms: N_17  and  C_18
REMARK    4  A    between atoms: C_18  and  C_19
REMARK    5  A    between atoms: C_19  and  C_20
REMARK    6  A    between atoms: C_20  and  C_21
REMARK                            x       y       z     vdW  Elec       q    Type
REMARK                         _______ _______ _______ _____ _____    ______ ____
ROOT
ATOM      1  O   UNL     1       2.519   8.864  17.510  0.00  0.00    +0.000 OA
ATOM      2  C   UNL     1       1.974   8.525  18.559  0.00  0.00    +0.000 C 
ATOM      3  N   UNL     1       1.250   9.414  19.359  0.00  0.00    +0.000 N 
ATOM      4  C   UNL     1       1.201  10.832  19.000  0.00  0.00    +0.000 C 
ATOM      5  C   UNL     1       1.347  11.737  20.233  0.00  0.00    +0.000 C 
ATOM      6  C   UNL     1       0.461  11.318  21.431  0.00  0.00    +0.000 C 
ATOM      7  C   UNL     1       0.658   9.812  21.673  0.00  0.00    +0.000 C 
ATOM      8  C   UNL     1       0.312   9.031  20.413  0.00  0.00    +0.000 C 
ENDROOT
BRANCH   2   9
ATOM      9  C   UNL     1       2.091   7.098  18.971  0.00  0.00    +0.000 A 
ATOM     10  C   UNL     1       2.094   6.721  20.317  0.00  0.00    +0.000 A 
ATOM     11  C   UNL     1       2.063   5.372  20.672  0.00  0.00    +0.000 A 
ATOM     12  C   UNL     1       2.142   4.379  19.688  0.00  0.00    +0.000 A 
ATOM     13  C   UNL     1       2.130   3.021  20.034  0.00  0.00    +0.000 A 
ATOM     14  C   UNL     1       2.276   2.038  19.054  0.00  0.00    +0.000 A 
ATOM     15  C   UNL     1       2.430   2.405  17.720  0.00  0.00    +0.000 A 
ATOM     16  C   UNL     1       2.410   3.753  17.356  0.00  0.00    +0.000 A 
ATOM     17  C   UNL     1       2.259   4.754  18.328  0.00  0.00    +0.000 A 
ATOM     18  C   UNL     1       2.218   6.117  17.982  0.00  0.00    +0.000 A 
ENDBRANCH   2   9
BRANCH   6  19
ATOM     19  N   UNL     1      -0.937  11.699  21.175  0.00  0.00    +0.000 NA
ATOM     20  H   UNL     1      -1.511  11.475  21.984  0.00  0.00    +0.000 HD
BRANCH  19  21
ATOM     21  C   UNL     1      -1.112  13.099  20.783  0.00  0.00    +0.000 C 
BRANCH  21  22
ATOM     22  C   UNL     1      -2.092  13.253  19.618  0.00  0.00    +0.000 C 
BRANCH  22  23
ATOM     23  C   UNL     1      -3.137  12.130  19.586  0.00  0.00    +0.000 C 
BRANCH  23  24
ATOM     24  C   UNL     1      -3.120  11.396  18.275  0.00  0.00    +0.000 A 
ATOM     25  C   UNL     1      -2.101  10.472  18.006  0.00  0.00    +0.000 A 
ATOM     26  C   UNL     1      -2.069   9.799  16.785  0.00  0.00    +0.000 A 
ATOM     27  C   UNL     1      -3.053  10.042  15.829  0.00  0.00    +0.000 A 
ATOM     28  C   UNL     1      -4.062  10.968  16.086  0.00  0.00    +0.000 A 
ATOM     29  C   UNL     1      -4.098  11.643  17.302  0.00  0.00    +0.000 A 
ENDBRANCH  23  24
ENDBRANCH  22  23
ENDBRANCH  21  22
ENDBRANCH  19  21
ENDBRANCH   6  19
TORSDOF 6
ENDMDL
MODEL 4
REMARK VINA RESULT:      -8.2      5.149      8.385
REMARK  Name = 
REMARK  6 active torsions:
REMARK  status: ('A' for Active; 'I' for Inactive)
REMARK    1  A    between atoms: C_2  and  C_3
REMARK    2  A    between atoms: C_16  and  N_17
REMARK    3  A    between atoms: N_17  and  C_18
REMARK    4  A    between atoms: C_18  and  C_19
REMARK    5  A    between atoms: C_19  and  C_20
REMARK    6  A    between atoms: C_20  and  C_21
REMARK                            x       y       z     vdW  Elec       q    Type
REMARK                         _______ _______ _______ _____ _____    ______ ____
ROOT
ATOM      1  O   UNL     1       1.683   8.290  21.928  0.00  0.00    +0.000 OA
ATOM      2  C   UNL     1       1.503   8.303  20.711  0.00  0.00    +0.000 C 
ATOM      3  N   UNL     1       1.031   9.427  20.026  0.00  0.00    +0.000 N 
ATOM      4  C   UNL     1       0.645  10.621  20.779  0.00  0.00    +0.000 C 
ATOM      5  C   UNL     1      -0.649  11.244  20.231  0.00  0.00    +0.000 C 
ATOM      6  C   UNL     1      -0.678  11.385  18.691  0.00  0.00    +0.000 C 
ATOM      7  C   UNL     1      -0.266  10.036  18.076  0.00  0.00    +0.000 C 
ATOM      8  C   UNL     1       1.111   9.631  18.580  0.00  0.00    +0.000 C 
ENDROOT
BRANCH   2   9
ATOM      9  C   UNL     1       1.819   7.061  19.951  0.00  0.00    +0.000 A 
ATOM     10  C   UNL     1       2.564   7.093  18.769  0.00  0.00    +0.000 A 
ATOM     11  C   UNL     1       2.964   5.907  18.154  0.00  0.00    +0.000 A 
ATOM     12  C   UNL     1       2.530   4.672  18.650  0.00  0.00    +0.000 A 
ATOM     13  C   UNL     1       2.911   3.474  18.029  0.00  0.00    +0.000 A 
ATOM     14  C   UNL     1       2.421   2.251  18.488  0.00  0.00    +0.000 A 
ATOM     15  C   UNL     1       1.551   2.214  19.575  0.00  0.00    +0.000 A 
ATOM     16  C   UNL     1       1.189   3.396  20.223  0.00  0.00    +0.000 A 
ATOM     17  C   UNL     1       1.676   4.635  19.778  0.00  0.00    +0.000 A 
ATOM     18  C   UNL     1       1.340   5.836  20.428  0.00  0.00    +0.000 A 
ENDBRANCH   2   9
BRANCH   6  19
ATOM     19  N   UNL     1       0.175  12.510  18.276  0.00  0.00    +0.000 NA
ATOM     20  H   UNL     1       0.435  12.407  17.298  0.00  0.00    +0.000 HD
BRANCH  19  21
ATOM     21  C   UNL     1      -0.413  13.828  18.523  0.00  0.00    +0.000 C 
BRANCH  21  22
ATOM     22  C   UNL     1       0.387  14.632  19.551  0.00  0.00    +0.000 C 
BRANCH  22  23
ATOM     23  C   UNL     1      -0.165  16.052  19.734  0.00  0.00    +0.000 C 
BRANCH  23  24
ATOM     24  C   UNL     1       0.150  16.925  18.552  0.00  0.00    +0.000 A 
ATOM     25  C   UNL     1       1.462  16.995  18.066  0.00  0.00    +0.000 A 
ATOM     26  C   UNL     1       1.765  17.815  16.980  0.00  0.00    +0.000 A 
ATOM     27  C   UNL     1       0.761  18.567  16.373  0.00  0.00    +0.000 A 
ATOM     28  C   UNL     1      -0.543  18.510  16.858  0.00  0.00    +0.000 A 
ATOM     29  C   UNL     1      -0.851  17.693  17.943  0.00  0.00    +0.000 A 
ENDBRANCH  23  24
ENDBRANCH  22  23
ENDBRANCH  21  22
ENDBRANCH  19  21
ENDBRANCH   6  19
TORSDOF 6
ENDMDL
MODEL 5
REMARK VINA RESULT:      -8.0      4.771      8.082
REMARK  Name = 
REMARK  6 active torsions:
REMARK  status: ('A' for Active; 'I' for Inactive)
REMARK    1  A    between atoms: C_2  and  C_3
REMARK    2  A    between atoms: C_16  and  N_17
REMARK    3  A    between atoms: N_17  and  C_18
REMARK    4  A    between atoms: C_18  and  C_19
REMARK    5  A    between atoms: C_19  and  C_20
REMARK    6  A    between atoms: C_20  and  C_21
REMARK                            x       y       z     vdW  Elec       q    Type
REMARK                         _______ _______ _______ _____ _____    ______ ____
ROOT
ATOM      1  O   UNL     1       3.735   8.390  17.550  0.00  0.00    +0.000 OA
ATOM      2  C   UNL     1       2.681   8.306  18.178  0.00  0.00    +0.000 C 
ATOM      3  N   UNL     1       1.777   9.367  18.288  0.00  0.00    +0.000 N 
ATOM      4  C   UNL     1       2.120  10.669  17.715  0.00  0.00    +0.000 C 
ATOM      5  C   UNL     1       1.722  11.824  18.649  0.00  0.00    +0.000 C 
ATOM      6  C   UNL     1       0.293  11.701  19.228  0.00  0.00    +0.000 C 
ATOM      7  C   UNL     1       0.123  10.283  19.799  0.00  0.00    +0.000 C 
ATOM      8  C   UNL     1       0.383   9.249  18.714  0.00  0.00    +0.000 C 
ENDROOT
BRANCH   2   9
ATOM      9  C   UNL     1       2.366   7.005  18.832  0.00  0.00    +0.000 A 
ATOM     10  C   UNL     1       2.118   6.914  20.204  0.00  0.00    +0.000 A 
ATOM     11  C   UNL     1       1.688   5.712  20.766  0.00  0.00    +0.000 A 
ATOM     12  C   UNL     1       1.609   4.554  19.983  0.00  0.00    +0.000 A 
ATOM     13  C   UNL     1       1.195   3.336  20.541  0.00  0.00    +0.000 A 
ATOM     14  C   UNL     1       1.183   2.172  19.772  0.00  0.00    +0.000 A 
ATOM     15  C   UNL     1       1.576   2.217  18.437  0.00  0.00    +0.000 A 
ATOM     16  C   UNL     1       1.958   3.429  17.859  0.00  0.00    +0.000 A 
ATOM     17  C   UNL     1       1.973   4.610  18.616  0.00  0.00    +0.000 A 
ATOM     18  C   UNL     1       2.336   5.845  18.050  0.00  0.00    +0.000 A 
ENDBRANCH   2   9
BRANCH   6  19
ATOM     19  N   UNL     1      -0.696  12.046  18.195  0.00  0.00    +0.000 NA
ATOM     20  H   UNL     1      -0.629  11.392  17.419  0.00  0.00    +0.000 HD
BRANCH  19  21
ATOM     21  C   UNL     1      -2.072  12.129  18.688  0.00  0.00    +0.000 C 
BRANCH  21  22
ATOM     22  C   UNL     1      -2.983  11.088  18.035  0.00  0.00    +0.000 C 
BRANCH  22  23
ATOM     23  C   UNL     1      -4.333  11.680  17.613  0.00  0.00    +0.000 C 
BRANCH  23  24
ATOM     24  C   UNL     1      -5.368  11.525  18.692  0.00  0.00    +0.000 A 
ATOM     25  C   UNL     1      -5.452  12.473  19.720  0.00  0.00    +0.000 A 
ATOM     26  C   UNL     1      -6.398  12.327  20.734  0.00  0.00    +0.000 A 
ATOM     27  C   UNL     1      -7.265  11.236  20.725  0.00  0.00    +0.000 A 
ATOM     28  C   UNL     1      -7.180  10.284  19.712  0.00  0.00    +0.000 A 
ATOM     29  C   UNL     1      -6.236  10.425  18.698  0.00  0.00    +0.000 A 
ENDBRANCH  23  24
ENDBRANCH  22  23
ENDBRANCH  21  22
ENDBRANCH  19  21
ENDBRANCH   6  19
TORSDOF 6
ENDMDL
MODEL 6
REMARK VINA RESULT:      -8.0      5.604     11.509
REMARK  Name = 
REMARK  6 active torsions:
REMARK  status: ('A' for Active; 'I' for Inactive)
REMARK    1  A    between atoms: C_2  and  C_3
REMARK    2  A    between atoms: C_16  and  N_17
REMARK    3  A    between atoms: N_17  and  C_18
REMARK    4  A    between atoms: C_18  and  C_19
REMARK    5  A    between atoms: C_19  and  C_20
REMARK    6  A    between atoms: C_20  and  C_21
REMARK                            x       y       z     vdW  Elec       q    Type
REMARK                         _______ _______ _______ _____ _____    ______ ____
ROOT
ATOM      1  O   UNL     1       0.014  13.594  22.051  0.00  0.00    +0.000 OA
ATOM      2  C   UNL     1      -0.658  12.794  21.401  0.00  0.00    +0.000 C 
ATOM      3  N   UNL     1      -0.088  11.830  20.564  0.00  0.00    +0.000 N 
ATOM      4  C   UNL     1       1.363  11.810  20.370  0.00  0.00    +0.000 C 
ATOM      5  C   UNL     1       1.736  11.555  18.900  0.00  0.00    +0.000 C 
ATOM      6  C   UNL     1       0.955  10.392  18.244  0.00  0.00    +0.000 C 
ATOM      7  C   UNL     1      -0.542  10.591  18.535  0.00  0.00    +0.000 C 
ATOM      8  C   UNL     1      -0.779  10.654  20.037  0.00  0.00    +0.000 C 
ENDROOT
BRANCH   2   9
ATOM      9  C   UNL     1      -2.140  12.865  21.534  0.00  0.00    +0.000 A 
ATOM     10  C   UNL     1      -2.969  13.037  20.421  0.00  0.00    +0.000 A 
ATOM     11  C   UNL     1      -4.355  12.959  20.555  0.00  0.00    +0.000 A 
ATOM     12  C   UNL     1      -4.936  12.819  21.822  0.00  0.00    +0.000 A 
ATOM     13  C   UNL     1      -6.329  12.758  21.971  0.00  0.00    +0.000 A 
ATOM     14  C   UNL     1      -6.904  12.687  23.240  0.00  0.00    +0.000 A 
ATOM     15  C   UNL     1      -6.092  12.670  24.371  0.00  0.00    +0.000 A 
ATOM     16  C   UNL     1      -4.702  12.697  24.236  0.00  0.00    +0.000 A 
ATOM     17  C   UNL     1      -4.107  12.764  22.967  0.00  0.00    +0.000 A 
ATOM     18  C   UNL     1      -2.709  12.773  22.808  0.00  0.00    +0.000 A 
ENDBRANCH   2   9
BRANCH   6  19
ATOM     19  N   UNL     1       1.485   9.104  18.720  0.00  0.00    +0.000 NA
ATOM     20  H   UNL     1       0.725   8.437  18.834  0.00  0.00    +0.000 HD
BRANCH  19  21
ATOM     21  C   UNL     1       2.546   8.547  17.879  0.00  0.00    +0.000 C 
BRANCH  21  22
ATOM     22  C   UNL     1       2.718   7.041  18.090  0.00  0.00    +0.000 C 
BRANCH  22  23
ATOM     23  C   UNL     1       2.442   6.623  19.540  0.00  0.00    +0.000 C 
BRANCH  23  24
ATOM     24  C   UNL     1       2.022   5.183  19.630  0.00  0.00    +0.000 A 
ATOM     25  C   UNL     1       1.770   4.455  18.460  0.00  0.00    +0.000 A 
ATOM     26  C   UNL     1       1.364   3.123  18.536  0.00  0.00    +0.000 A 
ATOM     27  C   UNL     1       1.211   2.511  19.779  0.00  0.00    +0.000 A 
ATOM     28  C   UNL     1       1.449   3.232  20.946  0.00  0.00    +0.000 A 
ATOM     29  C   UNL     1       1.854   4.563  20.876  0.00  0.00    +0.000 A 
ENDBRANCH  23  24
ENDBRANCH  22  23
ENDBRANCH  21  22
ENDBRANCH  19  21
ENDBRANCH   6  19
TORSDOF 6
ENDMDL
MODEL 7
REMARK VINA RESULT:      -8.0      4.170      6.961
REMARK  Name = 
REMARK  6 active torsions:
REMARK  status: ('A' for Active; 'I' for Inactive)
REMARK    1  A    between atoms: C_2  and  C_3
REMARK    2  A    between atoms: C_16  and  N_17
REMARK    3  A    between atoms: N_17  and  C_18
REMARK    4  A    between atoms: C_18  and  C_19
REMARK    5  A    between atoms: C_19  and  C_20
REMARK    6  A    between atoms: C_20  and  C_21
REMARK                            x       y       z     vdW  Elec       q    Type
REMARK                         _______ _______ _______ _____ _____    ______ ____
ROOT
ATOM      1  O   UNL     1       2.250   8.870  17.292  0.00  0.00    +0.000 OA
ATOM      2  C   UNL     1       2.114   8.300  18.374  0.00  0.00    +0.000 C 
ATOM      3  N   UNL     1       1.431   8.872  19.452  0.00  0.00    +0.000 N 
ATOM      4  C   UNL     1       0.926  10.241  19.341  0.00  0.00    +0.000 C 
ATOM      5  C   UNL     1       1.163  11.042  20.631  0.00  0.00    +0.000 C 
ATOM      6  C   UNL     1       0.772  10.285  21.923  0.00  0.00    +0.000 C 
ATOM      7  C   UNL     1       1.405   8.884  21.872  0.00  0.00    +0.000 C 
ATOM      8  C   UNL     1       0.942   8.147  20.624  0.00  0.00    +0.000 C 
ENDROOT
BRANCH   2   9
ATOM      9  C   UNL     1       2.699   6.937  18.518  0.00  0.00    +0.000 A 
ATOM     10  C   UNL     1       3.954   6.735  19.098  0.00  0.00    +0.000 A 
ATOM     11  C   UNL     1       4.417   5.443  19.348  0.00  0.00    +0.000 A 
ATOM     12  C   UNL     1       3.679   4.333  18.920  0.00  0.00    +0.000 A 
ATOM     13  C   UNL     1       4.142   3.030  19.150  0.00  0.00    +0.000 A 
ATOM     14  C   UNL     1       3.435   1.930  18.662  0.00  0.00    +0.000 A 
ATOM     15  C   UNL     1       2.257   2.123  17.946  0.00  0.00    +0.000 A 
ATOM     16  C   UNL     1       1.767   3.413  17.738  0.00  0.00    +0.000 A 
ATOM     17  C   UNL     1       2.461   4.531  18.225  0.00  0.00    +0.000 A 
ATOM     18  C   UNL     1       1.976   5.838  18.043  0.00  0.00    +0.000 A 
ENDBRANCH   2   9
BRANCH   6  19
ATOM     19  N   UNL     1      -0.692  10.269  22.067  0.00  0.00    +0.000 NA
ATOM     20  H   UNL     1      -1.009   9.327  22.283  0.00  0.00    +0.000 HD
BRANCH  19  21
ATOM     21  C   UNL     1      -1.207  11.229  23.046  0.00  0.00    +0.000 C 
BRANCH  21  22
ATOM     22  C   UNL     1      -2.388  12.033  22.499  0.00  0.00    +0.000 C 
BRANCH  22  23
ATOM     23  C   UNL     1      -2.021  12.814  21.231  0.00  0.00    +0.000 C 
BRANCH  23  24
ATOM     24  C   UNL     1      -2.884  12.417  20.067  0.00  0.00    +0.000 A 
ATOM     25  C   UNL     1      -4.266  12.646  20.112  0.00  0.00    +0.000 A 
ATOM     26  C   UNL     1      -5.076  12.266  19.043  0.00  0.00    +0.000 A 
ATOM     27  C   UNL     1      -4.511  11.658  17.923  0.00  0.00    +0.000 A 
ATOM     28  C   UNL     1      -3.140  11.417  17.877  0.00  0.00    +0.000 A 
ATOM     29  C   UNL     1      -2.327  11.795  18.942  0.00  0.00    +0.000 A 
ENDBRANCH  23  24
ENDBRANCH  22  23
ENDBRANCH  21  22
ENDBRANCH  19  21
ENDBRANCH   6  19
TORSDOF 6
ENDMDL
MODEL 8
REMARK VINA RESULT:      -7.9      7.864     12.507
REMARK  Name = 
REMARK  6 active torsions:
REMARK  status: ('A' for Active; 'I' for Inactive)
REMARK    1  A    between atoms: C_2  and  C_3
REMARK    2  A    between atoms: C_16  and  N_17
REMARK    3  A    between atoms: N_17  and  C_18
REMARK    4  A    between atoms: C_18  and  C_19
REMARK    5  A    between atoms: C_19  and  C_20
REMARK    6  A    between atoms: C_20  and  C_21
REMARK                            x       y       z     vdW  Elec       q    Type
REMARK                         _______ _______ _______ _____ _____    ______ ____
ROOT
ATOM      1  O   UNL     1      -0.410  10.609  23.437  0.00  0.00    +0.000 OA
ATOM      2  C   UNL     1      -0.939  11.299  22.567  0.00  0.00    +0.000 C 
ATOM      3  N   UNL     1      -0.831  11.014  21.202  0.00  0.00    +0.000 N 
ATOM      4  C   UNL     1       0.015   9.903  20.763  0.00  0.00    +0.000 C 
ATOM      5  C   UNL     1       0.832  10.271  19.514  0.00  0.00    +0.000 C 
ATOM      6  C   UNL     1       0.009  10.967  18.404  0.00  0.00    +0.000 C 
ATOM      7  C   UNL     1      -0.795  12.111  19.045  0.00  0.00    +0.000 C 
ATOM      8  C   UNL     1      -1.686  11.567  20.153  0.00  0.00    +0.000 C 
ENDROOT
BRANCH   2   9
ATOM      9  C   UNL     1      -1.735  12.479  23.007  0.00  0.00    +0.000 A 
ATOM     10  C   UNL     1      -1.130  13.706  23.299  0.00  0.00    +0.000 A 
ATOM     11  C   UNL     1      -1.909  14.830  23.572  0.00  0.00    +0.000 A 
ATOM     12  C   UNL     1      -3.301  14.719  23.667  0.00  0.00    +0.000 A 
ATOM     13  C   UNL     1      -4.093  15.839  23.959  0.00  0.00    +0.000 A 
ATOM     14  C   UNL     1      -5.473  15.709  24.119  0.00  0.00    +0.000 A 
ATOM     15  C   UNL     1      -6.074  14.461  23.983  0.00  0.00    +0.000 A 
ATOM     16  C   UNL     1      -5.303  13.343  23.659  0.00  0.00    +0.000 A 
ATOM     17  C   UNL     1      -3.914  13.455  23.490  0.00  0.00    +0.000 A 
ATOM     18  C   UNL     1      -3.121  12.347  23.147  0.00  0.00    +0.000 A 
ENDBRANCH   2   9
BRANCH   6  19
ATOM     19  N   UNL     1      -0.825   9.976  17.706  0.00  0.00    +0.000 NA
ATOM     20  H   UNL     1      -1.181   9.292  18.370  0.00  0.00    +0.000 HD
BRANCH  19  21
ATOM     21  C   UNL     1      -1.917  10.560  16.924  0.00  0.00    +0.000 C 
BRANCH  21  22
ATOM     22  C   UNL     1      -3.280   9.992  17.324  0.00  0.00    +0.000 C 
BRANCH  22  23
ATOM     23  C   UNL     1      -4.425  10.972  17.039  0.00  0.00    +0.000 C 
BRANCH  23  24
ATOM     24  C   UNL     1      -5.245  11.239  18.269  0.00  0.00    +0.000 A 
ATOM     25  C   UNL     1      -4.932  12.327  19.095  0.00  0.00    +0.000 A 
ATOM     26  C   UNL     1      -5.678  12.571  20.247  0.00  0.00    +0.000 A 
ATOM     27  C   UNL     1      -6.741  11.733  20.579  0.00  0.00    +0.000 A 
ATOM     28  C   UNL     1      -7.051  10.644  19.768  0.00  0.00    +0.000 A 
ATOM     29  C   UNL     1      -6.309  10.395  18.617  0.00  0.00    +0.000 A 
ENDBRANCH  23  24
ENDBRANCH  22  23
ENDBRANCH  21  22
ENDBRANCH  19  21
ENDBRANCH   6  19
TORSDOF 6
ENDMDL
MODEL 9
REMARK VINA RESULT:      -7.9      4.439      7.595
REMARK  Name = 
REMARK  6 active torsions:
REMARK  status: ('A' for Active; 'I' for Inactive)
REMARK    1  A    between atoms: C_2  and  C_3
REMARK    2  A    between atoms: C_16  and  N_17
REMARK    3  A    between atoms: N_17  and  C_18
REMARK    4  A    between atoms: C_18  and  C_19
REMARK    5  A    between atoms: C_19  and  C_20
REMARK    6  A    between atoms: C_20  and  C_21
REMARK                            x       y       z     vdW  Elec       q    Type
REMARK                         _______ _______ _______ _____ _____    ______ ____
ROOT
ATOM      1  O   UNL     1       2.983   8.627  17.106  0.00  0.00    +0.000 OA
ATOM      2  C   UNL     1       2.302   8.583  18.130  0.00  0.00    +0.000 C 
ATOM      3  N   UNL     1       1.671   9.708  18.670  0.00  0.00    +0.000 N 
ATOM      4  C   UNL     1       1.889  11.020  18.059  0.00  0.00    +0.000 C 
ATOM      5  C   UNL     1       2.078  12.117  19.119  0.00  0.00    +0.000 C 
ATOM      6  C   UNL     1       1.037  12.074  20.263  0.00  0.00    +0.000 C 
ATOM      7  C   UNL     1       0.959  10.631  20.791  0.00  0.00    +0.000 C 
ATOM      8  C   UNL     1       0.596   9.680  19.660  0.00  0.00    +0.000 C 
ENDROOT
BRANCH   2   9
ATOM      9  C   UNL     1       2.145   7.262  18.801  0.00  0.00    +0.000 A 
ATOM     10  C   UNL     1       2.028   7.154  20.190  0.00  0.00    +0.000 A 
ATOM     11  C   UNL     1       1.742   5.924  20.781  0.00  0.00    +0.000 A 
ATOM     12  C   UNL     1       1.678   4.762  20.001  0.00  0.00    +0.000 A 
ATOM     13  C   UNL     1       1.409   3.517  20.587  0.00  0.00    +0.000 A 
ATOM     14  C   UNL     1       1.413   2.355  19.814  0.00  0.00    +0.000 A 
ATOM     15  C   UNL     1       1.681   2.428  18.450  0.00  0.00    +0.000 A 
ATOM     16  C   UNL     1       1.918   3.665  17.848  0.00  0.00    +0.000 A 
ATOM     17  C   UNL     1       1.913   4.845  18.608  0.00  0.00    +0.000 A 
ATOM     18  C   UNL     1       2.131   6.103  18.018  0.00  0.00    +0.000 A 
ENDBRANCH   2   9
BRANCH   6  19
ATOM     19  N   UNL     1      -0.251  12.600  19.784  0.00  0.00    +0.000 NA
ATOM     20  H   UNL     1      -0.571  12.060  18.983  0.00  0.00    +0.000 HD
BRANCH  19  21
ATOM     21  C   UNL     1      -1.289  12.666  20.815  0.00  0.00    +0.000 C 
BRANCH  21  22
ATOM     22  C   UNL     1      -2.489  11.776  20.483  0.00  0.00    +0.000 C 
BRANCH  22  23
ATOM     23  C   UNL     1      -3.331  12.341  19.332  0.00  0.00    +0.000 C 
BRANCH  23  24
ATOM     24  C   UNL     1      -3.216  11.495  18.095  0.00  0.00    +0.000 A 
ATOM     25  C   UNL     1      -4.196  11.582  17.097  0.00  0.00    +0.000 A 
ATOM     26  C   UNL     1      -4.105  10.788  15.955  0.00  0.00    +0.000 A 
ATOM     27  C   UNL     1      -3.037   9.906  15.802  0.00  0.00    +0.000 A 
ATOM     28  C   UNL     1      -2.066   9.807  16.795  0.00  0.00    +0.000 A 
ATOM     29  C   UNL     1      -2.152  10.597  17.938  0.00  0.00    +0.000 A 
ENDBRANCH  23  24
ENDBRANCH  22  23
ENDBRANCH  21  22
ENDBRANCH  19  21
ENDBRANCH   6  19
TORSDOF 6
ENDMDL
