MODEL 1
REMARK VINA RESULT:      -6.4      0.000      0.000
REMARK  Name = 
REMARK  7 active torsions:
REMARK  status: ('A' for Active; 'I' for Inactive)
REMARK    1  A    between atoms: C_1  and  C_2
REMARK    2  A    between atoms: C_2  and  C_3
REMARK    3  A    between atoms: C_3  and  N_4
REMARK    4  A    between atoms: C_3  and  C_15
REMARK    5  A    between atoms: C_5  and  C_7
REMARK    6  A    between atoms: C_10  and  C_11
REMARK    7  A    between atoms: N_19  and  C_20
REMARK                            x       y       z     vdW  Elec       q    Type
REMARK                         _______ _______ _______ _____ _____    ______ ____
ROOT
ATOM      1  N   UNL     1       3.585   6.211  18.314  0.00  0.00    +0.000 N 
ATOM      2  C   UNL     1       4.729   5.445  18.356  0.00  0.00    +0.000 C 
ATOM      3  O   UNL     1       5.219   5.002  19.385  0.00  0.00    +0.000 OA
ATOM      4  H   UNL     1       3.317   6.662  17.450  0.00  0.00    +0.000 HD
ENDROOT
BRANCH   2   5
ATOM      5  C   UNL     1       5.396   5.206  17.054  0.00  0.00    +0.000 A 
ATOM      6  C   UNL     1       4.958   4.244  16.141  0.00  0.00    +0.000 A 
ATOM      7  C   UNL     1       5.613   4.115  14.913  0.00  0.00    +0.000 A 
ATOM      8  C   UNL     1       6.693   4.949  14.640  0.00  0.00    +0.000 A 
ATOM      9  N   UNL     1       7.159   5.867  15.525  0.00  0.00    +0.000 NA
ATOM     10  C   UNL     1       6.508   5.967  16.714  0.00  0.00    +0.000 A 
BRANCH   8  11
ATOM     11  C   UNL     1       7.366   4.884  13.370  0.00  0.00    +0.000 C 
ATOM     12  N   UNL     1       7.930   4.882  12.355  0.00  0.00    +0.000 NA
ENDBRANCH   8  11
ENDBRANCH   2   5
BRANCH   1  13
ATOM     13  C   UNL     1       2.817   6.551  19.500  0.00  0.00    +0.000 C 
BRANCH  13  14
ATOM     14  C   UNL     1       2.101   7.833  19.175  0.00  0.00    +0.000 A 
ATOM     15  C   UNL     1       1.917   8.473  17.959  0.00  0.00    +0.000 A 
ATOM     16  C   UNL     1       1.160   9.615  18.251  0.00  0.00    +0.000 A 
ATOM     17  N   UNL     1       0.878   9.714  19.549  0.00  0.00    +0.000 NA
ATOM     18  N   UNL     1       1.455   8.624  20.095  0.00  0.00    +0.000 N 
ATOM     19  C   UNL     1       1.317   8.418  21.519  0.00  0.00    +0.000 C 
ENDBRANCH  13  14
BRANCH  13  21
ATOM     20  C   UNL     1       2.139   4.660  21.117  0.00  0.00    +0.000 C 
ATOM     21  C   UNL     1       1.794   5.456  19.867  0.00  0.00    +0.000 C 
ENDBRANCH  13  21
ENDBRANCH   1  13
TORSDOF 5
ENDMDL
MODEL 2
REMARK VINA RESULT:      -6.4      1.732      6.901
REMARK  Name = 
REMARK  7 active torsions:
REMARK  status: ('A' for Active; 'I' for Inactive)
REMARK    1  A    between atoms: C_1  and  C_2
REMARK    2  A    between atoms: C_2  and  C_3
REMARK    3  A    between atoms: C_3  and  N_4
REMARK    4  A    between atoms: C_3  and  C_15
REMARK    5  A    between atoms: C_5  and  C_7
REMARK    6  A    between atoms: C_10  and  C_11
REMARK    7  A    between atoms: N_19  and  C_20
REMARK                            x       y       z     vdW  Elec       q    Type
REMARK                         _______ _______ _______ _____ _____    ______ ____
ROOT
ATOM      1  N   UNL     1       3.483   5.466  17.476  0.00  0.00    +0.000 N 
ATOM      2  C   UNL     1       3.125   5.872  18.742  0.00  0.00    +0.000 C 
ATOM      3  O   UNL     1       3.259   5.185  19.746  0.00  0.00    +0.000 OA
ATOM      4  H   UNL     1       3.214   6.024  16.677  0.00  0.00    +0.000 HD
ENDROOT
BRANCH   2   5
ATOM      5  C   UNL     1       2.500   7.213  18.840  0.00  0.00    +0.000 A 
ATOM      6  C   UNL     1       2.464   8.114  17.773  0.00  0.00    +0.000 A 
ATOM      7  C   UNL     1       1.812   9.340  17.932  0.00  0.00    +0.000 A 
ATOM      8  C   UNL     1       1.222   9.629  19.159  0.00  0.00    +0.000 A 
ATOM      9  N   UNL     1       1.274   8.786  20.221  0.00  0.00    +0.000 NA
ATOM     10  C   UNL     1       1.920   7.604  20.041  0.00  0.00    +0.000 A 
BRANCH   8  11
ATOM     11  C   UNL     1       0.500  10.859  19.352  0.00  0.00    +0.000 C 
ATOM     12  N   UNL     1      -0.062  11.854  19.559  0.00  0.00    +0.000 NA
ENDBRANCH   8  11
ENDBRANCH   2   5
BRANCH   1  13
ATOM     13  C   UNL     1       4.095   4.176  17.202  0.00  0.00    +0.000 C 
BRANCH  13  14
ATOM     14  C   UNL     1       5.580   4.400  17.281  0.00  0.00    +0.000 A 
ATOM     15  C   UNL     1       6.380   4.735  18.362  0.00  0.00    +0.000 A 
ATOM     16  C   UNL     1       7.686   4.791  17.856  0.00  0.00    +0.000 A 
ATOM     17  N   UNL     1       7.732   4.519  16.553  0.00  0.00    +0.000 NA
ATOM     18  N   UNL     1       6.446   4.283  16.220  0.00  0.00    +0.000 N 
ATOM     19  C   UNL     1       6.148   3.933  14.850  0.00  0.00    +0.000 C 
ENDBRANCH  13  14
BRANCH  13  21
ATOM     20  C   UNL     1       2.510   2.224  17.774  0.00  0.00    +0.000 C 
ATOM     21  C   UNL     1       3.670   3.100  18.223  0.00  0.00    +0.000 C 
ENDBRANCH  13  21
ENDBRANCH   1  13
TORSDOF 5
ENDMDL
MODEL 3
REMARK VINA RESULT:      -6.4      3.728      6.977
REMARK  Name = 
REMARK  7 active torsions:
REMARK  status: ('A' for Active; 'I' for Inactive)
REMARK    1  A    between atoms: C_1  and  C_2
REMARK    2  A    between atoms: C_2  and  C_3
REMARK    3  A    between atoms: C_3  and  N_4
REMARK    4  A    between atoms: C_3  and  C_15
REMARK    5  A    between atoms: C_5  and  C_7
REMARK    6  A    between atoms: C_10  and  C_11
REMARK    7  A    between atoms: N_19  and  C_20
REMARK                            x       y       z     vdW  Elec       q    Type
REMARK                         _______ _______ _______ _____ _____    ______ ____
ROOT
ATOM      1  N   UNL     1       2.234   5.757  19.018  0.00  0.00    +0.000 N 
ATOM      2  C   UNL     1       2.785   6.861  18.406  0.00  0.00    +0.000 C 
ATOM      3  O   UNL     1       3.755   6.821  17.663  0.00  0.00    +0.000 OA
ATOM      4  H   UNL     1       1.526   5.880  19.728  0.00  0.00    +0.000 HD
ENDROOT
BRANCH   2   5
ATOM      5  C   UNL     1       2.155   8.164  18.734  0.00  0.00    +0.000 A 
ATOM      6  C   UNL     1       2.095   9.227  17.830  0.00  0.00    +0.000 A 
ATOM      7  C   UNL     1       1.441  10.405  18.199  0.00  0.00    +0.000 A 
ATOM      8  C   UNL     1       0.872  10.485  19.467  0.00  0.00    +0.000 A 
ATOM      9  N   UNL     1       0.946   9.479  20.375  0.00  0.00    +0.000 NA
ATOM     10  C   UNL     1       1.595   8.347  19.992  0.00  0.00    +0.000 A 
BRANCH   8  11
ATOM     11  C   UNL     1       0.147  11.660  19.872  0.00  0.00    +0.000 C 
ATOM     12  N   UNL     1      -0.442  12.587  20.249  0.00  0.00    +0.000 NA
ENDBRANCH   8  11
ENDBRANCH   2   5
BRANCH   1  13
ATOM     13  C   UNL     1       2.738   4.409  18.816  0.00  0.00    +0.000 C 
BRANCH  13  14
ATOM     14  C   UNL     1       2.412   3.654  20.076  0.00  0.00    +0.000 A 
ATOM     15  C   UNL     1       1.261   3.654  20.848  0.00  0.00    +0.000 A 
ATOM     16  C   UNL     1       1.510   2.750  21.889  0.00  0.00    +0.000 A 
ATOM     17  N   UNL     1       2.725   2.210  21.805  0.00  0.00    +0.000 NA
ATOM     18  N   UNL     1       3.259   2.768  20.699  0.00  0.00    +0.000 N 
ATOM     19  C   UNL     1       4.592   2.372  20.308  0.00  0.00    +0.000 C 
ENDBRANCH  13  14
BRANCH  13  21
ATOM     20  C   UNL     1       2.535   2.280  17.376  0.00  0.00    +0.000 C 
ATOM     21  C   UNL     1       2.084   3.715  17.603  0.00  0.00    +0.000 C 
ENDBRANCH  13  21
ENDBRANCH   1  13
TORSDOF 5
ENDMDL
MODEL 4
REMARK VINA RESULT:      -6.3      2.162      7.426
REMARK  Name = 
REMARK  7 active torsions:
REMARK  status: ('A' for Active; 'I' for Inactive)
REMARK    1  A    between atoms: C_1  and  C_2
REMARK    2  A    between atoms: C_2  and  C_3
REMARK    3  A    between atoms: C_3  and  N_4
REMARK    4  A    between atoms: C_3  and  C_15
REMARK    5  A    between atoms: C_5  and  C_7
REMARK    6  A    between atoms: C_10  and  C_11
REMARK    7  A    between atoms: N_19  and  C_20
REMARK                            x       y       z     vdW  Elec       q    Type
REMARK                         _______ _______ _______ _____ _____    ______ ____
ROOT
ATOM      1  N   UNL     1       2.847   6.270  18.462  0.00  0.00    +0.000 N 
ATOM      2  C   UNL     1       2.517   7.586  18.224  0.00  0.00    +0.000 C 
ATOM      3  O   UNL     1       2.805   8.190  17.200  0.00  0.00    +0.000 OA
ATOM      4  H   UNL     1       2.705   5.877  19.382  0.00  0.00    +0.000 HD
ENDROOT
BRANCH   2   5
ATOM      5  C   UNL     1       1.809   8.285  19.323  0.00  0.00    +0.000 A 
ATOM      6  C   UNL     1       1.744   7.783  20.625  0.00  0.00    +0.000 A 
ATOM      7  C   UNL     1       1.100   8.527  21.616  0.00  0.00    +0.000 A 
ATOM      8  C   UNL     1       0.532   9.751  21.271  0.00  0.00    +0.000 A 
ATOM      9  N   UNL     1       0.552  10.243  20.007  0.00  0.00    +0.000 NA
ATOM     10  C   UNL     1       1.179   9.496  19.061  0.00  0.00    +0.000 A 
BRANCH   8  11
ATOM     11  C   UNL     1      -0.099  10.572  22.269  0.00  0.00    +0.000 C 
ATOM     12  N   UNL     1      -0.657  11.213  23.060  0.00  0.00    +0.000 NA
ENDBRANCH   8  11
ENDBRANCH   2   5
BRANCH   1  13
ATOM     13  C   UNL     1       3.553   5.445  17.495  0.00  0.00    +0.000 C 
BRANCH  13  14
ATOM     14  C   UNL     1       4.991   5.437  17.933  0.00  0.00    +0.000 A 
ATOM     15  C   UNL     1       5.541   5.410  19.205  0.00  0.00    +0.000 A 
ATOM     16  C   UNL     1       6.929   5.395  19.012  0.00  0.00    +0.000 A 
ATOM     17  N   UNL     1       7.256   5.415  17.721  0.00  0.00    +0.000 NA
ATOM     18  N   UNL     1       6.070   5.439  17.080  0.00  0.00    +0.000 N 
ATOM     19  C   UNL     1       6.072   5.446  15.634  0.00  0.00    +0.000 C 
ENDBRANCH  13  14
BRANCH  13  21
ATOM     20  C   UNL     1       1.563   3.856  17.900  0.00  0.00    +0.000 C 
ATOM     21  C   UNL     1       3.009   4.002  17.450  0.00  0.00    +0.000 C 
ENDBRANCH  13  21
ENDBRANCH   1  13
TORSDOF 5
ENDMDL
MODEL 5
REMARK VINA RESULT:      -6.3      1.902      7.056
REMARK  Name = 
REMARK  7 active torsions:
REMARK  status: ('A' for Active; 'I' for Inactive)
REMARK    1  A    between atoms: C_1  and  C_2
REMARK    2  A    between atoms: C_2  and  C_3
REMARK    3  A    between atoms: C_3  and  N_4
REMARK    4  A    between atoms: C_3  and  C_15
REMARK    5  A    between atoms: C_5  and  C_7
REMARK    6  A    between atoms: C_10  and  C_11
REMARK    7  A    between atoms: N_19  and  C_20
REMARK                            x       y       z     vdW  Elec       q    Type
REMARK                         _______ _______ _______ _____ _____    ______ ____
ROOT
ATOM      1  N   UNL     1       3.325   5.223  18.154  0.00  0.00    +0.000 N 
ATOM      2  C   UNL     1       3.326   6.554  17.801  0.00  0.00    +0.000 C 
ATOM      3  O   UNL     1       3.978   7.017  16.876  0.00  0.00    +0.000 OA
ATOM      4  H   UNL     1       2.878   4.934  19.013  0.00  0.00    +0.000 HD
ENDROOT
BRANCH   2   5
ATOM      5  C   UNL     1       2.507   7.450  18.653  0.00  0.00    +0.000 A 
ATOM      6  C   UNL     1       2.181   7.152  19.978  0.00  0.00    +0.000 A 
ATOM      7  C   UNL     1       1.447   8.073  20.728  0.00  0.00    +0.000 A 
ATOM      8  C   UNL     1       1.053   9.264  20.126  0.00  0.00    +0.000 A 
ATOM      9  N   UNL     1       1.327   9.562  18.830  0.00  0.00    +0.000 NA
ATOM     10  C   UNL     1       2.037   8.646  18.121  0.00  0.00    +0.000 A 
BRANCH   8  11
ATOM     11  C   UNL     1       0.337  10.262  20.875  0.00  0.00    +0.000 C 
ATOM     12  N   UNL     1      -0.276  11.073  21.437  0.00  0.00    +0.000 NA
ENDBRANCH   8  11
ENDBRANCH   2   5
BRANCH   1  13
ATOM     13  C   UNL     1       4.083   4.214  17.434  0.00  0.00    +0.000 C 
BRANCH  13  14
ATOM     14  C   UNL     1       5.532   4.552  17.656  0.00  0.00    +0.000 A 
ATOM     15  C   UNL     1       6.186   4.987  18.798  0.00  0.00    +0.000 A 
ATOM     16  C   UNL     1       7.531   5.123  18.428  0.00  0.00    +0.000 A 
ATOM     17  N   UNL     1       7.735   4.806  17.150  0.00  0.00    +0.000 NA
ATOM     18  N   UNL     1       6.513   4.461  16.696  0.00  0.00    +0.000 N 
ATOM     19  C   UNL     1       6.388   4.038  15.320  0.00  0.00    +0.000 C 
ENDBRANCH  13  14
BRANCH  13  21
ATOM     20  C   UNL     1       2.361   2.318  17.730  0.00  0.00    +0.000 C 
ATOM     21  C   UNL     1       3.792   2.787  17.945  0.00  0.00    +0.000 C 
ENDBRANCH  13  21
ENDBRANCH   1  13
TORSDOF 5
ENDMDL
MODEL 6
REMARK VINA RESULT:      -6.3      2.735      6.802
REMARK  Name = 
REMARK  7 active torsions:
REMARK  status: ('A' for Active; 'I' for Inactive)
REMARK    1  A    between atoms: C_1  and  C_2
REMARK    2  A    between atoms: C_2  and  C_3
REMARK    3  A    between atoms: C_3  and  N_4
REMARK    4  A    between atoms: C_3  and  C_15
REMARK    5  A    between atoms: C_5  and  C_7
REMARK    6  A    between atoms: C_10  and  C_11
REMARK    7  A    between atoms: N_19  and  C_20
REMARK                            x       y       z     vdW  Elec       q    Type
REMARK                         _______ _______ _______ _____ _____    ______ ____
ROOT
ATOM      1  N   UNL     1       4.090   5.989  18.813  0.00  0.00    +0.000 N 
ATOM      2  C   UNL     1       2.986   6.244  19.597  0.00  0.00    +0.000 C 
ATOM      3  O   UNL     1       2.568   5.484  20.460  0.00  0.00    +0.000 OA
ATOM      4  H   UNL     1       4.295   6.590  18.027  0.00  0.00    +0.000 HD
ENDROOT
BRANCH   2   5
ATOM      5  C   UNL     1       2.267   7.508  19.310  0.00  0.00    +0.000 A 
ATOM      6  C   UNL     1       2.234   8.094  18.042  0.00  0.00    +0.000 A 
ATOM      7  C   UNL     1       1.492   9.260  17.844  0.00  0.00    +0.000 A 
ATOM      8  C   UNL     1       0.810   9.811  18.925  0.00  0.00    +0.000 A 
ATOM      9  N   UNL     1       0.854   9.281  20.174  0.00  0.00    +0.000 NA
ATOM     10  C   UNL     1       1.589   8.150  20.340  0.00  0.00    +0.000 A 
BRANCH   8  11
ATOM     11  C   UNL     1      -0.006  10.984  18.756  0.00  0.00    +0.000 C 
ATOM     12  N   UNL     1      -0.642  11.938  18.569  0.00  0.00    +0.000 NA
ENDBRANCH   8  11
ENDBRANCH   2   5
BRANCH   1  13
ATOM     13  C   UNL     1       4.900   4.790  18.955  0.00  0.00    +0.000 C 
BRANCH  13  14
ATOM     14  C   UNL     1       4.040   3.654  18.473  0.00  0.00    +0.000 A 
ATOM     15  C   UNL     1       3.272   3.535  17.325  0.00  0.00    +0.000 A 
ATOM     16  C   UNL     1       2.704   2.255  17.388  0.00  0.00    +0.000 A 
ATOM     17  N   UNL     1       3.067   1.598  18.488  0.00  0.00    +0.000 NA
ATOM     18  N   UNL     1       3.878   2.460  19.135  0.00  0.00    +0.000 N 
ATOM     19  C   UNL     1       4.470   2.037  20.384  0.00  0.00    +0.000 C 
ENDBRANCH  13  14
BRANCH  13  21
ATOM     20  C   UNL     1       6.572   6.255  17.647  0.00  0.00    +0.000 C 
ATOM     21  C   UNL     1       6.196   4.858  18.121  0.00  0.00    +0.000 C 
ENDBRANCH  13  21
ENDBRANCH   1  13
TORSDOF 5
ENDMDL
MODEL 7
REMARK VINA RESULT:      -6.3      2.245      7.435
REMARK  Name = 
REMARK  7 active torsions:
REMARK  status: ('A' for Active; 'I' for Inactive)
REMARK    1  A    between atoms: C_1  and  C_2
REMARK    2  A    between atoms: C_2  and  C_3
REMARK    3  A    between atoms: C_3  and  N_4
REMARK    4  A    between atoms: C_3  and  C_15
REMARK    5  A    between atoms: C_5  and  C_7
REMARK    6  A    between atoms: C_10  and  C_11
REMARK    7  A    between atoms: N_19  and  C_20
REMARK                            x       y       z     vdW  Elec       q    Type
REMARK                         _______ _______ _______ _____ _____    ______ ____
ROOT
ATOM      1  N   UNL     1       2.705   6.337  18.466  0.00  0.00    +0.000 N 
ATOM      2  C   UNL     1       2.472   7.667  18.191  0.00  0.00    +0.000 C 
ATOM      3  O   UNL     1       2.841   8.231  17.171  0.00  0.00    +0.000 OA
ATOM      4  H   UNL     1       2.499   5.973  19.385  0.00  0.00    +0.000 HD
ENDROOT
BRANCH   2   5
ATOM      5  C   UNL     1       1.765   8.431  19.247  0.00  0.00    +0.000 A 
ATOM      6  C   UNL     1       1.115   9.644  19.001  0.00  0.00    +0.000 A 
ATOM      7  C   UNL     1       0.429  10.277  20.040  0.00  0.00    +0.000 A 
ATOM      8  C   UNL     1       0.421   9.681  21.298  0.00  0.00    +0.000 A 
ATOM      9  N   UNL     1       1.073   8.522  21.570  0.00  0.00    +0.000 NA
ATOM     10  C   UNL     1       1.738   7.930  20.543  0.00  0.00    +0.000 A 
BRANCH   8  11
ATOM     11  C   UNL     1      -0.312  10.273  22.385  0.00  0.00    +0.000 C 
ATOM     12  N   UNL     1      -0.876  10.719  23.297  0.00  0.00    +0.000 NA
ENDBRANCH   8  11
ENDBRANCH   2   5
BRANCH   1  13
ATOM     13  C   UNL     1       3.396   5.450  17.545  0.00  0.00    +0.000 C 
BRANCH  13  14
ATOM     14  C   UNL     1       4.838   5.453  17.974  0.00  0.00    +0.000 A 
ATOM     15  C   UNL     1       5.395   5.416  19.243  0.00  0.00    +0.000 A 
ATOM     16  C   UNL     1       6.782   5.419  19.040  0.00  0.00    +0.000 A 
ATOM     17  N   UNL     1       7.101   5.459  17.748  0.00  0.00    +0.000 NA
ATOM     18  N   UNL     1       5.910   5.479  17.114  0.00  0.00    +0.000 N 
ATOM     19  C   UNL     1       5.904   5.505  15.669  0.00  0.00    +0.000 C 
ENDBRANCH  13  14
BRANCH  13  21
ATOM     20  C   UNL     1       1.441   3.894  18.179  0.00  0.00    +0.000 C 
ATOM     21  C   UNL     1       2.837   4.013  17.587  0.00  0.00    +0.000 C 
ENDBRANCH  13  21
ENDBRANCH   1  13
TORSDOF 5
ENDMDL
MODEL 8
REMARK VINA RESULT:      -6.3      2.429      6.817
REMARK  Name = 
REMARK  7 active torsions:
REMARK  status: ('A' for Active; 'I' for Inactive)
REMARK    1  A    between atoms: C_1  and  C_2
REMARK    2  A    between atoms: C_2  and  C_3
REMARK    3  A    between atoms: C_3  and  N_4
REMARK    4  A    between atoms: C_3  and  C_15
REMARK    5  A    between atoms: C_5  and  C_7
REMARK    6  A    between atoms: C_10  and  C_11
REMARK    7  A    between atoms: N_19  and  C_20
REMARK                            x       y       z     vdW  Elec       q    Type
REMARK                         _______ _______ _______ _____ _____    ______ ____
ROOT
ATOM      1  N   UNL     1       3.472   5.977  18.028  0.00  0.00    +0.000 N 
ATOM      2  C   UNL     1       2.896   6.461  19.182  0.00  0.00    +0.000 C 
ATOM      3  O   UNL     1       2.879   5.858  20.246  0.00  0.00    +0.000 OA
ATOM      4  H   UNL     1       3.326   6.462  17.154  0.00  0.00    +0.000 HD
ENDROOT
BRANCH   2   5
ATOM      5  C   UNL     1       2.229   7.780  19.068  0.00  0.00    +0.000 A 
ATOM      6  C   UNL     1       2.199   8.517  17.881  0.00  0.00    +0.000 A 
ATOM      7  C   UNL     1       1.506   9.729  17.843  0.00  0.00    +0.000 A 
ATOM      8  C   UNL     1       0.869  10.172  18.998  0.00  0.00    +0.000 A 
ATOM      9  N   UNL     1       0.912   9.492  20.172  0.00  0.00    +0.000 NA
ATOM     10  C   UNL     1       1.599   8.320  20.183  0.00  0.00    +0.000 A 
BRANCH   8  11
ATOM     11  C   UNL     1       0.104  11.391  18.992  0.00  0.00    +0.000 C 
ATOM     12  N   UNL     1      -0.479  12.394  19.023  0.00  0.00    +0.000 NA
ENDBRANCH   8  11
ENDBRANCH   2   5
BRANCH   1  13
ATOM     13  C   UNL     1       4.155   4.695  17.964  0.00  0.00    +0.000 C 
BRANCH  13  14
ATOM     14  C   UNL     1       3.111   3.657  18.272  0.00  0.00    +0.000 A 
ATOM     15  C   UNL     1       1.842   3.477  17.743  0.00  0.00    +0.000 A 
ATOM     16  C   UNL     1       1.328   2.343  18.385  0.00  0.00    +0.000 A 
ATOM     17  N   UNL     1       2.188   1.829  19.263  0.00  0.00    +0.000 NA
ATOM     18  N   UNL     1       3.265   2.637  19.181  0.00  0.00    +0.000 N 
ATOM     19  C   UNL     1       4.410   2.337  20.011  0.00  0.00    +0.000 C 
ENDBRANCH  13  14
BRANCH  13  21
ATOM     20  C   UNL     1       5.254   5.673  15.847  0.00  0.00    +0.000 C 
ATOM     21  C   UNL     1       4.768   4.428  16.574  0.00  0.00    +0.000 C 
ENDBRANCH  13  21
ENDBRANCH   1  13
TORSDOF 5
ENDMDL
MODEL 9
REMARK VINA RESULT:      -6.2      1.989      7.185
REMARK  Name = 
REMARK  7 active torsions:
REMARK  status: ('A' for Active; 'I' for Inactive)
REMARK    1  A    between atoms: C_1  and  C_2
REMARK    2  A    between atoms: C_2  and  C_3
REMARK    3  A    between atoms: C_3  and  N_4
REMARK    4  A    between atoms: C_3  and  C_15
REMARK    5  A    between atoms: C_5  and  C_7
REMARK    6  A    between atoms: C_10  and  C_11
REMARK    7  A    between atoms: N_19  and  C_20
REMARK                            x       y       z     vdW  Elec       q    Type
REMARK                         _______ _______ _______ _____ _____    ______ ____
ROOT
ATOM      1  N   UNL     1       3.293   5.500  18.097  0.00  0.00    +0.000 N 
ATOM      2  C   UNL     1       3.192   6.835  17.771  0.00  0.00    +0.000 C 
ATOM      3  O   UNL     1       3.733   7.347  16.801  0.00  0.00    +0.000 OA
ATOM      4  H   UNL     1       2.940   5.175  18.986  0.00  0.00    +0.000 HD
ENDROOT
BRANCH   2   5
ATOM      5  C   UNL     1       2.405   7.672  18.709  0.00  0.00    +0.000 A 
ATOM      6  C   UNL     1       1.866   8.910  18.352  0.00  0.00    +0.000 A 
ATOM      7  C   UNL     1       1.094   9.615  19.279  0.00  0.00    +0.000 A 
ATOM      8  C   UNL     1       0.891   9.061  20.540  0.00  0.00    +0.000 A 
ATOM      9  N   UNL     1       1.432   7.876  20.921  0.00  0.00    +0.000 NA
ATOM     10  C   UNL     1       2.185   7.215  20.003  0.00  0.00    +0.000 A 
BRANCH   8  11
ATOM     11  C   UNL     1       0.063   9.729  21.509  0.00  0.00    +0.000 C 
ATOM     12  N   UNL     1      -0.591  10.229  22.327  0.00  0.00    +0.000 NA
ENDBRANCH   8  11
ENDBRANCH   2   5
BRANCH   1  13
ATOM     13  C   UNL     1       4.038   4.545  17.293  0.00  0.00    +0.000 C 
BRANCH  13  14
ATOM     14  C   UNL     1       5.483   4.732  17.666  0.00  0.00    +0.000 A 
ATOM     15  C   UNL     1       6.056   5.118  18.868  0.00  0.00    +0.000 A 
ATOM     16  C   UNL     1       7.439   5.103  18.643  0.00  0.00    +0.000 A 
ATOM     17  N   UNL     1       7.742   4.741  17.397  0.00  0.00    +0.000 NA
ATOM     18  N   UNL     1       6.544   4.518  16.818  0.00  0.00    +0.000 N 
ATOM     19  C   UNL     1       6.520   4.084  15.440  0.00  0.00    +0.000 C 
ENDBRANCH  13  14
BRANCH  13  21
ATOM     20  C   UNL     1       2.145   2.923  17.951  0.00  0.00    +0.000 C 
ATOM     21  C   UNL     1       3.608   3.089  17.567  0.00  0.00    +0.000 C 
ENDBRANCH  13  21
ENDBRANCH   1  13
TORSDOF 5
ENDMDL
