MODEL 1
REMARK VINA RESULT:      -5.9      0.000      0.000
REMARK  Name = 
REMARK  3 active torsions:
REMARK  status: ('A' for Active; 'I' for Inactive)
REMARK    1  A    between atoms: C_2  and  C_3
REMARK    2  A    between atoms: C_3  and  C_4
REMARK    3  A    between atoms: N_9  and  C_10
REMARK                            x       y       z     vdW  Elec       q    Type
REMARK                         _______ _______ _______ _____ _____    ______ ____
ROOT
ATOM      1  O   UNL     1       5.097   6.195  16.275  0.00  0.00    +0.000 OA
ATOM      2  C   UNL     1       5.940   5.329  16.486  0.00  0.00    +0.000 C 
ATOM      3  N   UNL     1       5.889   4.370  17.489  0.00  0.00    +0.000 N 
ATOM      4  H   UNL     1       6.757   3.895  17.706  0.00  0.00    +0.000 HD
ENDROOT
BRANCH   3   5
ATOM      5  C   UNL     1       4.794   4.093  18.338  0.00  0.00    +0.000 A 
ATOM      6  C   UNL     1       4.351   4.964  19.337  0.00  0.00    +0.000 A 
ATOM      7  C   UNL     1       3.264   4.622  20.151  0.00  0.00    +0.000 A 
ATOM      8  C   UNL     1       2.614   3.405  19.965  0.00  0.00    +0.000 A 
ATOM      9 BR   UNL     1       1.176   2.922  21.093  0.00  0.00    +0.000 Br
ATOM     10  C   UNL     1       3.023   2.541  18.954  0.00  0.00    +0.000 A 
ATOM     11  C   UNL     1       4.103   2.890  18.135  0.00  0.00    +0.000 A 
ENDBRANCH   3   5
BRANCH   2  12
ATOM     12  C   UNL     1       7.168   5.200  15.599  0.00  0.00    +0.000 C 
BRANCH  12  13
ATOM     13  C   UNL     1       6.832   4.665  14.241  0.00  0.00    +0.000 A 
ATOM     14  C   UNL     1       5.812   3.801  13.889  0.00  0.00    +0.000 A 
ATOM     15  C   UNL     1       5.883   3.402  12.522  0.00  0.00    +0.000 A 
ATOM     16  C   UNL     1       6.942   3.992  11.869  0.00  0.00    +0.000 A 
ATOM     17  S   UNL     1       7.828   5.036  12.896  0.00  0.00    +0.000 S 
ENDBRANCH  12  13
ENDBRANCH   2  12
TORSDOF 3
ENDMDL
MODEL 2
REMARK VINA RESULT:      -5.9      4.452      6.429
REMARK  Name = 
REMARK  3 active torsions:
REMARK  status: ('A' for Active; 'I' for Inactive)
REMARK    1  A    between atoms: C_2  and  C_3
REMARK    2  A    between atoms: C_3  and  C_4
REMARK    3  A    between atoms: N_9  and  C_10
REMARK                            x       y       z     vdW  Elec       q    Type
REMARK                         _______ _______ _______ _____ _____    ______ ____
ROOT
ATOM      1  O   UNL     1       4.011   3.612  16.369  0.00  0.00    +0.000 OA
ATOM      2  C   UNL     1       4.313   3.204  17.486  0.00  0.00    +0.000 C 
ATOM      3  N   UNL     1       5.252   3.776  18.335  0.00  0.00    +0.000 N 
ATOM      4  H   UNL     1       5.582   3.200  19.100  0.00  0.00    +0.000 HD
ENDROOT
BRANCH   3   5
ATOM      5  C   UNL     1       5.904   5.017  18.159  0.00  0.00    +0.000 A 
ATOM      6  C   UNL     1       5.389   6.058  17.381  0.00  0.00    +0.000 A 
ATOM      7  C   UNL     1       6.094   7.260  17.241  0.00  0.00    +0.000 A 
ATOM      8  C   UNL     1       7.318   7.425  17.882  0.00  0.00    +0.000 A 
ATOM      9 BR   UNL     1       8.291   9.029  17.655  0.00  0.00    +0.000 Br
ATOM     10  C   UNL     1       7.830   6.410  18.685  0.00  0.00    +0.000 A 
ATOM     11  C   UNL     1       7.119   5.214  18.832  0.00  0.00    +0.000 A 
ENDBRANCH   3   5
BRANCH   2  12
ATOM     12  C   UNL     1       3.626   1.989  18.089  0.00  0.00    +0.000 C 
BRANCH  12  13
ATOM     13  C   UNL     1       2.604   2.368  19.115  0.00  0.00    +0.000 A 
ATOM     14  C   UNL     1       1.277   2.703  18.920  0.00  0.00    +0.000 A 
ATOM     15  C   UNL     1       0.644   3.141  20.120  0.00  0.00    +0.000 A 
ATOM     16  C   UNL     1       1.501   3.105  21.197  0.00  0.00    +0.000 A 
ATOM     17  S   UNL     1       3.052   2.526  20.763  0.00  0.00    +0.000 S 
ENDBRANCH  12  13
ENDBRANCH   2  12
TORSDOF 3
ENDMDL
MODEL 3
REMARK VINA RESULT:      -5.9      3.770      4.861
REMARK  Name = 
REMARK  3 active torsions:
REMARK  status: ('A' for Active; 'I' for Inactive)
REMARK    1  A    between atoms: C_2  and  C_3
REMARK    2  A    between atoms: C_3  and  C_4
REMARK    3  A    between atoms: N_9  and  C_10
REMARK                            x       y       z     vdW  Elec       q    Type
REMARK                         _______ _______ _______ _____ _____    ______ ____
ROOT
ATOM      1  O   UNL     1       1.533   4.570  17.585  0.00  0.00    +0.000 OA
ATOM      2  C   UNL     1       2.709   4.749  17.887  0.00  0.00    +0.000 C 
ATOM      3  N   UNL     1       3.255   5.934  18.364  0.00  0.00    +0.000 N 
ATOM      4  H   UNL     1       4.263   6.016  18.326  0.00  0.00    +0.000 HD
ENDROOT
BRANCH   3   5
ATOM      5  C   UNL     1       2.547   7.092  18.758  0.00  0.00    +0.000 A 
ATOM      6  C   UNL     1       2.041   7.288  20.045  0.00  0.00    +0.000 A 
ATOM      7  C   UNL     1       1.338   8.457  20.366  0.00  0.00    +0.000 A 
ATOM      8  C   UNL     1       1.142   9.435  19.396  0.00  0.00    +0.000 A 
ATOM      9 BR   UNL     1       0.153  10.991  19.814  0.00  0.00    +0.000 Br
ATOM     10  C   UNL     1       1.666   9.269  18.117  0.00  0.00    +0.000 A 
ATOM     11  C   UNL     1       2.377   8.105  17.803  0.00  0.00    +0.000 A 
ENDBRANCH   3   5
BRANCH   2  12
ATOM     12  C   UNL     1       3.723   3.621  17.792  0.00  0.00    +0.000 C 
BRANCH  12  13
ATOM     13  C   UNL     1       5.063   4.102  17.325  0.00  0.00    +0.000 A 
ATOM     14  C   UNL     1       6.155   4.469  18.089  0.00  0.00    +0.000 A 
ATOM     15  C   UNL     1       7.214   5.008  17.301  0.00  0.00    +0.000 A 
ATOM     16  C   UNL     1       6.905   5.013  15.959  0.00  0.00    +0.000 A 
ATOM     17  S   UNL     1       5.356   4.353  15.655  0.00  0.00    +0.000 S 
ENDBRANCH  12  13
ENDBRANCH   2  12
TORSDOF 3
ENDMDL
MODEL 4
REMARK VINA RESULT:      -5.9      4.137      5.140
REMARK  Name = 
REMARK  3 active torsions:
REMARK  status: ('A' for Active; 'I' for Inactive)
REMARK    1  A    between atoms: C_2  and  C_3
REMARK    2  A    between atoms: C_3  and  C_4
REMARK    3  A    between atoms: N_9  and  C_10
REMARK                            x       y       z     vdW  Elec       q    Type
REMARK                         _______ _______ _______ _____ _____    ______ ____
ROOT
ATOM      1  O   UNL     1       1.879   4.598  19.695  0.00  0.00    +0.000 OA
ATOM      2  C   UNL     1       2.979   5.006  19.337  0.00  0.00    +0.000 C 
ATOM      3  N   UNL     1       3.279   6.308  18.957  0.00  0.00    +0.000 N 
ATOM      4  H   UNL     1       4.144   6.443  18.446  0.00  0.00    +0.000 HD
ENDROOT
BRANCH   3   5
ATOM      5  C   UNL     1       2.439   7.437  19.075  0.00  0.00    +0.000 A 
ATOM      6  C   UNL     1       1.852   7.841  20.277  0.00  0.00    +0.000 A 
ATOM      7  C   UNL     1       1.019   8.967  20.322  0.00  0.00    +0.000 A 
ATOM      8  C   UNL     1       0.774   9.694  19.161  0.00  0.00    +0.000 A 
ATOM      9 BR   UNL     1      -0.387  11.185  19.211  0.00  0.00    +0.000 Br
ATOM     10  C   UNL     1       1.375   9.323  17.962  0.00  0.00    +0.000 A 
ATOM     11  C   UNL     1       2.215   8.204  17.922  0.00  0.00    +0.000 A 
ENDBRANCH   3   5
BRANCH   2  12
ATOM     12  C   UNL     1       4.186   4.082  19.305  0.00  0.00    +0.000 C 
BRANCH  12  13
ATOM     13  C   UNL     1       4.972   4.222  18.038  0.00  0.00    +0.000 A 
ATOM     14  C   UNL     1       4.612   3.839  16.759  0.00  0.00    +0.000 A 
ATOM     15  C   UNL     1       5.673   4.005  15.822  0.00  0.00    +0.000 A 
ATOM     16  C   UNL     1       6.802   4.530  16.410  0.00  0.00    +0.000 A 
ATOM     17  S   UNL     1       6.571   4.840  18.077  0.00  0.00    +0.000 S 
ENDBRANCH  12  13
ENDBRANCH   2  12
TORSDOF 3
ENDMDL
MODEL 5
REMARK VINA RESULT:      -5.8      0.202      1.212
REMARK  Name = 
REMARK  3 active torsions:
REMARK  status: ('A' for Active; 'I' for Inactive)
REMARK    1  A    between atoms: C_2  and  C_3
REMARK    2  A    between atoms: C_3  and  C_4
REMARK    3  A    between atoms: N_9  and  C_10
REMARK                            x       y       z     vdW  Elec       q    Type
REMARK                         _______ _______ _______ _____ _____    ______ ____
ROOT
ATOM      1  O   UNL     1       5.108   6.200  16.323  0.00  0.00    +0.000 OA
ATOM      2  C   UNL     1       5.928   5.295  16.434  0.00  0.00    +0.000 C 
ATOM      3  N   UNL     1       5.850   4.230  17.322  0.00  0.00    +0.000 N 
ATOM      4  H   UNL     1       6.705   3.711  17.485  0.00  0.00    +0.000 HD
ENDROOT
BRANCH   3   5
ATOM      5  C   UNL     1       4.745   3.885  18.133  0.00  0.00    +0.000 A 
ATOM      6  C   UNL     1       3.904   2.801  17.872  0.00  0.00    +0.000 A 
ATOM      7  C   UNL     1       2.818   2.522  18.713  0.00  0.00    +0.000 A 
ATOM      8  C   UNL     1       2.574   3.329  19.820  0.00  0.00    +0.000 A 
ATOM      9 BR   UNL     1       1.082   2.981  20.928  0.00  0.00    +0.000 Br
ATOM     10  C   UNL     1       3.421   4.394  20.111  0.00  0.00    +0.000 A 
ATOM     11  C   UNL     1       4.510   4.664  19.276  0.00  0.00    +0.000 A 
ENDBRANCH   3   5
BRANCH   2  12
ATOM     12  C   UNL     1       7.156   5.237  15.540  0.00  0.00    +0.000 C 
BRANCH  12  13
ATOM     13  C   UNL     1       6.842   4.686  14.183  0.00  0.00    +0.000 A 
ATOM     14  C   UNL     1       5.845   3.797  13.829  0.00  0.00    +0.000 A 
ATOM     15  C   UNL     1       5.935   3.391  12.465  0.00  0.00    +0.000 A 
ATOM     16  C   UNL     1       6.985   4.002  11.816  0.00  0.00    +0.000 A 
ATOM     17  S   UNL     1       7.839   5.072  12.842  0.00  0.00    +0.000 S 
ENDBRANCH  12  13
ENDBRANCH   2  12
TORSDOF 3
ENDMDL
MODEL 6
REMARK VINA RESULT:      -5.8      4.391      6.452
REMARK  Name = 
REMARK  3 active torsions:
REMARK  status: ('A' for Active; 'I' for Inactive)
REMARK    1  A    between atoms: C_2  and  C_3
REMARK    2  A    between atoms: C_3  and  C_4
REMARK    3  A    between atoms: N_9  and  C_10
REMARK                            x       y       z     vdW  Elec       q    Type
REMARK                         _______ _______ _______ _____ _____    ______ ____
ROOT
ATOM      1  O   UNL     1       3.608   4.679  16.970  0.00  0.00    +0.000 OA
ATOM      2  C   UNL     1       4.280   3.836  17.555  0.00  0.00    +0.000 C 
ATOM      3  N   UNL     1       5.584   4.003  18.003  0.00  0.00    +0.000 N 
ATOM      4  H   UNL     1       6.097   3.160  18.231  0.00  0.00    +0.000 HD
ENDROOT
BRANCH   3   5
ATOM      5  C   UNL     1       6.319   5.210  18.033  0.00  0.00    +0.000 A 
ATOM      6  C   UNL     1       7.440   5.412  18.841  0.00  0.00    +0.000 A 
ATOM      7  C   UNL     1       8.117   6.639  18.830  0.00  0.00    +0.000 A 
ATOM      8  C   UNL     1       7.672   7.667  18.004  0.00  0.00    +0.000 A 
ATOM      9 BR   UNL     1       8.556   9.338  18.023  0.00  0.00    +0.000 Br
ATOM     10  C   UNL     1       6.575   7.472  17.170  0.00  0.00    +0.000 A 
ATOM     11  C   UNL     1       5.908   6.242  17.176  0.00  0.00    +0.000 A 
ENDBRANCH   3   5
BRANCH   2  12
ATOM     12  C   UNL     1       3.705   2.469  17.890  0.00  0.00    +0.000 C 
BRANCH  12  13
ATOM     13  C   UNL     1       2.650   2.543  18.950  0.00  0.00    +0.000 A 
ATOM     14  C   UNL     1       1.278   2.614  18.790  0.00  0.00    +0.000 A 
ATOM     15  C   UNL     1       0.595   2.812  20.025  0.00  0.00    +0.000 A 
ATOM     16  C   UNL     1       1.465   2.862  21.091  0.00  0.00    +0.000 A 
ATOM     17  S   UNL     1       3.091   2.651  20.603  0.00  0.00    +0.000 S 
ENDBRANCH  12  13
ENDBRANCH   2  12
TORSDOF 3
ENDMDL
MODEL 7
REMARK VINA RESULT:      -5.8      4.312      6.375
REMARK  Name = 
REMARK  3 active torsions:
REMARK  status: ('A' for Active; 'I' for Inactive)
REMARK    1  A    between atoms: C_2  and  C_3
REMARK    2  A    between atoms: C_3  and  C_4
REMARK    3  A    between atoms: N_9  and  C_10
REMARK                            x       y       z     vdW  Elec       q    Type
REMARK                         _______ _______ _______ _____ _____    ______ ____
ROOT
ATOM      1  O   UNL     1       4.352   3.743  16.236  0.00  0.00    +0.000 OA
ATOM      2  C   UNL     1       4.428   3.390  17.408  0.00  0.00    +0.000 C 
ATOM      3  N   UNL     1       5.254   3.948  18.375  0.00  0.00    +0.000 N 
ATOM      4  H   UNL     1       5.403   3.402  19.214  0.00  0.00    +0.000 HD
ENDROOT
BRANCH   3   5
ATOM      5  C   UNL     1       6.025   5.125  18.249  0.00  0.00    +0.000 A 
ATOM      6  C   UNL     1       7.262   5.310  18.874  0.00  0.00    +0.000 A 
ATOM      7  C   UNL     1       7.970   6.508  18.715  0.00  0.00    +0.000 A 
ATOM      8  C   UNL     1       7.442   7.526  17.926  0.00  0.00    +0.000 A 
ATOM      9 BR   UNL     1       8.375   9.160  17.749  0.00  0.00    +0.000 Br
ATOM     10  C   UNL     1       6.226   7.346  17.272  0.00  0.00    +0.000 A 
ATOM     11  C   UNL     1       5.526   6.144  17.424  0.00  0.00    +0.000 A 
ENDBRANCH   3   5
BRANCH   2  12
ATOM     12  C   UNL     1       3.553   2.269  17.946  0.00  0.00    +0.000 C 
BRANCH  12  13
ATOM     13  C   UNL     1       2.621   2.744  19.019  0.00  0.00    +0.000 A 
ATOM     14  C   UNL     1       2.412   2.202  20.273  0.00  0.00    +0.000 A 
ATOM     15  C   UNL     1       1.347   2.842  20.972  0.00  0.00    +0.000 A 
ATOM     16  C   UNL     1       0.792   3.866  20.238  0.00  0.00    +0.000 A 
ATOM     17  S   UNL     1       1.568   4.065  18.726  0.00  0.00    +0.000 S 
ENDBRANCH  12  13
ENDBRANCH   2  12
TORSDOF 3
ENDMDL
MODEL 8
REMARK VINA RESULT:      -5.8      4.167      5.595
REMARK  Name = 
REMARK  3 active torsions:
REMARK  status: ('A' for Active; 'I' for Inactive)
REMARK    1  A    between atoms: C_2  and  C_3
REMARK    2  A    between atoms: C_3  and  C_4
REMARK    3  A    between atoms: N_9  and  C_10
REMARK                            x       y       z     vdW  Elec       q    Type
REMARK                         _______ _______ _______ _____ _____    ______ ____
ROOT
ATOM      1  O   UNL     1       5.030   7.187  17.411  0.00  0.00    +0.000 OA
ATOM      2  C   UNL     1       4.229   6.261  17.493  0.00  0.00    +0.000 C 
ATOM      3  N   UNL     1       2.981   6.316  18.100  0.00  0.00    +0.000 N 
ATOM      4  H   UNL     1       2.545   5.428  18.321  0.00  0.00    +0.000 HD
ENDROOT
BRANCH   3   5
ATOM      5  C   UNL     1       2.324   7.472  18.576  0.00  0.00    +0.000 A 
ATOM      6  C   UNL     1       1.967   8.549  17.761  0.00  0.00    +0.000 A 
ATOM      7  C   UNL     1       1.325   9.671  18.301  0.00  0.00    +0.000 A 
ATOM      8  C   UNL     1       1.036   9.716  19.662  0.00  0.00    +0.000 A 
ATOM      9 BR   UNL     1       0.212  11.250  20.399  0.00  0.00    +0.000 Br
ATOM     10  C   UNL     1       1.357   8.639  20.482  0.00  0.00    +0.000 A 
ATOM     11  C   UNL     1       1.989   7.515  19.938  0.00  0.00    +0.000 A 
ENDBRANCH   3   5
BRANCH   2  12
ATOM     12  C   UNL     1       4.534   4.905  16.877  0.00  0.00    +0.000 C 
BRANCH  12  13
ATOM     13  C   UNL     1       3.823   3.791  17.583  0.00  0.00    +0.000 A 
ATOM     14  C   UNL     1       2.676   3.125  17.195  0.00  0.00    +0.000 A 
ATOM     15  C   UNL     1       2.213   2.213  18.188  0.00  0.00    +0.000 A 
ATOM     16  C   UNL     1       3.035   2.195  19.292  0.00  0.00    +0.000 A 
ATOM     17  S   UNL     1       4.366   3.256  19.119  0.00  0.00    +0.000 S 
ENDBRANCH  12  13
ENDBRANCH   2  12
TORSDOF 3
ENDMDL
MODEL 9
REMARK VINA RESULT:      -5.8      4.046      5.276
REMARK  Name = 
REMARK  3 active torsions:
REMARK  status: ('A' for Active; 'I' for Inactive)
REMARK    1  A    between atoms: C_2  and  C_3
REMARK    2  A    between atoms: C_3  and  C_4
REMARK    3  A    between atoms: N_9  and  C_10
REMARK                            x       y       z     vdW  Elec       q    Type
REMARK                         _______ _______ _______ _____ _____    ______ ____
ROOT
ATOM      1  O   UNL     1       1.680   4.843  17.852  0.00  0.00    +0.000 OA
ATOM      2  C   UNL     1       2.803   5.143  18.245  0.00  0.00    +0.000 C 
ATOM      3  N   UNL     1       3.212   6.407  18.653  0.00  0.00    +0.000 N 
ATOM      4  H   UNL     1       4.211   6.566  18.702  0.00  0.00    +0.000 HD
ENDROOT
BRANCH   3   5
ATOM      5  C   UNL     1       2.387   7.534  18.863  0.00  0.00    +0.000 A 
ATOM      6  C   UNL     1       2.043   8.439  17.856  0.00  0.00    +0.000 A 
ATOM      7  C   UNL     1       1.228   9.544  18.135  0.00  0.00    +0.000 A 
ATOM      8  C   UNL     1       0.753   9.744  19.428  0.00  0.00    +0.000 A 
ATOM      9 BR   UNL     1      -0.308  11.260  19.817  0.00  0.00    +0.000 Br
ATOM     10  C   UNL     1       1.061   8.835  20.436  0.00  0.00    +0.000 A 
ATOM     11  C   UNL     1       1.866   7.727  20.152  0.00  0.00    +0.000 A 
ENDBRANCH   3   5
BRANCH   2  12
ATOM     12  C   UNL     1       3.900   4.097  18.357  0.00  0.00    +0.000 C 
BRANCH  12  13
ATOM     13  C   UNL     1       5.232   4.624  17.920  0.00  0.00    +0.000 A 
ATOM     14  C   UNL     1       6.289   5.040  18.708  0.00  0.00    +0.000 A 
ATOM     15  C   UNL     1       7.347   5.611  17.943  0.00  0.00    +0.000 A 
ATOM     16  C   UNL     1       7.075   5.592  16.593  0.00  0.00    +0.000 A 
ATOM     17  S   UNL     1       5.560   4.870  16.256  0.00  0.00    +0.000 S 
ENDBRANCH  12  13
ENDBRANCH   2  12
TORSDOF 3
ENDMDL
