MODEL 1
REMARK VINA RESULT:      -8.7      0.000      0.000
REMARK  Name = 
REMARK  11 active torsions:
REMARK  status: ('A' for Active; 'I' for Inactive)
REMARK    1  A    between atoms: C_1  and  O_2
REMARK    2  A    between atoms: O_2  and  C_3
REMARK    3  A    between atoms: C_6  and  C_7
REMARK    4  A    between atoms: C_10  and  C_11
REMARK    5  A    between atoms: C_11  and  C_12
REMARK    6  A    between atoms: C_12  and  C_13
REMARK    7  A    between atoms: N_15  and  C_16
REMARK    8  A    between atoms: C_20  and  C_21
REMARK    9  A    between atoms: C_22  and  C_23
REMARK   10  A    between atoms: C_26  and  O_27
REMARK   11  A    between atoms: O_27  and  C_28
REMARK                            x       y       z     vdW  Elec       q    Type
REMARK                         _______ _______ _______ _____ _____    ______ ____
ROOT
ATOM      1  C   UNL     1       4.122   3.137  17.980  0.00  0.00    +0.000 A 
ATOM      2  N   UNL     1       3.164   2.287  17.575  0.00  0.00    +0.000 NA
ATOM      3  O   UNL     1       2.455   2.010  18.737  0.00  0.00    +0.000 OA
ATOM      4  C   UNL     1       3.049   2.729  19.730  0.00  0.00    +0.000 A 
ATOM      5  N   UNL     1       4.072   3.438  19.324  0.00  0.00    +0.000 NA
ENDROOT
BRANCH   1   9
ATOM      6  C   UNL     1       6.965   4.981  15.384  0.00  0.00    +0.000 A 
ATOM      7  C   UNL     1       6.064   4.023  14.892  0.00  0.00    +0.000 A 
ATOM      8  C   UNL     1       5.131   3.418  15.734  0.00  0.00    +0.000 A 
ATOM      9  C   UNL     1       5.114   3.723  17.095  0.00  0.00    +0.000 A 
ATOM     10  C   UNL     1       6.068   4.616  17.598  0.00  0.00    +0.000 A 
ATOM     11  C   UNL     1       6.999   5.247  16.761  0.00  0.00    +0.000 A 
BRANCH   6  13
ATOM     12  C   UNL     1       7.790   5.216  13.177  0.00  0.00    +0.000 C 
ATOM     13  O   UNL     1       7.822   5.636  14.541  0.00  0.00    +0.000 OA
ENDBRANCH   6  13
BRANCH  11  14
ATOM     14  O   UNL     1       7.821   6.089  17.461  0.00  0.00    +0.000 OA
ATOM     15  C   UNL     1       7.512   7.470  17.515  0.00  0.00    +0.000 C 
ENDBRANCH  11  14
ENDBRANCH   1   9
BRANCH   4  16
ATOM     16  C   UNL     1       2.478   2.578  21.078  0.00  0.00    +0.000 C 
BRANCH  16  17
ATOM     17  C   UNL     1       2.259   3.920  21.778  0.00  0.00    +0.000 C 
BRANCH  17  18
ATOM     18  C   UNL     1       1.743   4.907  20.759  0.00  0.00    +0.000 C 
ATOM     19  O   UNL     1       0.681   4.698  20.177  0.00  0.00    +0.000 OA
ATOM     20  N   UNL     1       2.580   5.997  20.556  0.00  0.00    +0.000 N 
ATOM     21  H   UNL     1       3.509   5.940  20.946  0.00  0.00    +0.000 HD
BRANCH  20  22
ATOM     22  C   UNL     1       2.297   7.083  19.687  0.00  0.00    +0.000 A 
ATOM     23  C   UNL     1       2.734   7.060  18.354  0.00  0.00    +0.000 A 
ATOM     24  C   UNL     1       2.502   8.128  17.496  0.00  0.00    +0.000 A 
ATOM     25  C   UNL     1       1.808   9.237  17.951  0.00  0.00    +0.000 A 
ATOM     26  C   UNL     1       1.324   9.286  19.268  0.00  0.00    +0.000 A 
ATOM     27  C   UNL     1       0.579  10.526  19.686  0.00  0.00    +0.000 C 
ATOM     28  C   UNL     1       1.564   8.203  20.155  0.00  0.00    +0.000 A 
ATOM     29  C   UNL     1       1.036   8.246  21.568  0.00  0.00    +0.000 C 
ENDBRANCH  20  22
ENDBRANCH  17  18
ENDBRANCH  16  17
ENDBRANCH   4  16
TORSDOF 7
ENDMDL
MODEL 2
REMARK VINA RESULT:      -8.3      4.362      7.202
REMARK  Name = 
REMARK  11 active torsions:
REMARK  status: ('A' for Active; 'I' for Inactive)
REMARK    1  A    between atoms: C_1  and  O_2
REMARK    2  A    between atoms: O_2  and  C_3
REMARK    3  A    between atoms: C_6  and  C_7
REMARK    4  A    between atoms: C_10  and  C_11
REMARK    5  A    between atoms: C_11  and  C_12
REMARK    6  A    between atoms: C_12  and  C_13
REMARK    7  A    between atoms: N_15  and  C_16
REMARK    8  A    between atoms: C_20  and  C_21
REMARK    9  A    between atoms: C_22  and  C_23
REMARK   10  A    between atoms: C_26  and  O_27
REMARK   11  A    between atoms: O_27  and  C_28
REMARK                            x       y       z     vdW  Elec       q    Type
REMARK                         _______ _______ _______ _____ _____    ______ ____
ROOT
ATOM      1  C   UNL     1       8.456   8.992  18.332  0.00  0.00    +0.000 A 
ATOM      2  N   UNL     1       7.670   8.914  17.246  0.00  0.00    +0.000 NA
ATOM      3  O   UNL     1       7.311   7.573  17.193  0.00  0.00    +0.000 OA
ATOM      4  C   UNL     1       7.908   6.973  18.260  0.00  0.00    +0.000 A 
ATOM      5  N   UNL     1       8.620   7.794  18.992  0.00  0.00    +0.000 NA
ENDROOT
BRANCH   1   9
ATOM      6  C   UNL     1      10.375  12.562  19.672  0.00  0.00    +0.000 A 
ATOM      7  C   UNL     1       9.944  11.594  20.592  0.00  0.00    +0.000 A 
ATOM      8  C   UNL     1       9.317  10.424  20.162  0.00  0.00    +0.000 A 
ATOM      9  C   UNL     1       9.067  10.223  18.805  0.00  0.00    +0.000 A 
ATOM     10  C   UNL     1       9.423  11.227  17.896  0.00  0.00    +0.000 A 
ATOM     11  C   UNL     1      10.071  12.399  18.311  0.00  0.00    +0.000 A 
BRANCH   6  13
ATOM     12  C   UNL     1      10.429  14.449  21.100  0.00  0.00    +0.000 C 
ATOM     13  O   UNL     1      11.065  13.668  20.088  0.00  0.00    +0.000 OA
ENDBRANCH   6  13
BRANCH  11  14
ATOM     14  O   UNL     1      10.339  13.230  17.258  0.00  0.00    +0.000 OA
ATOM     15  C   UNL     1      11.675  13.364  16.806  0.00  0.00    +0.000 C 
ENDBRANCH  11  14
ENDBRANCH   1   9
BRANCH   4  16
ATOM     16  C   UNL     1       7.689   5.525  18.405  0.00  0.00    +0.000 C 
BRANCH  16  17
ATOM     17  C   UNL     1       6.929   4.924  17.223  0.00  0.00    +0.000 C 
BRANCH  17  18
ATOM     18  C   UNL     1       5.458   4.913  17.562  0.00  0.00    +0.000 C 
ATOM     19  O   UNL     1       4.616   4.865  16.669  0.00  0.00    +0.000 OA
ATOM     20  N   UNL     1       5.193   4.985  18.924  0.00  0.00    +0.000 N 
ATOM     21  H   UNL     1       5.965   5.223  19.529  0.00  0.00    +0.000 HD
BRANCH  20  22
ATOM     22  C   UNL     1       3.896   4.944  19.500  0.00  0.00    +0.000 A 
ATOM     23  C   UNL     1       3.084   6.087  19.506  0.00  0.00    +0.000 A 
ATOM     24  C   UNL     1       1.827   6.082  20.097  0.00  0.00    +0.000 A 
ATOM     25  C   UNL     1       1.347   4.919  20.679  0.00  0.00    +0.000 A 
ATOM     26  C   UNL     1       2.114   3.744  20.665  0.00  0.00    +0.000 A 
ATOM     27  C   UNL     1       1.522   2.523  21.318  0.00  0.00    +0.000 C 
ATOM     28  C   UNL     1       3.404   3.743  20.071  0.00  0.00    +0.000 A 
ATOM     29  C   UNL     1       4.228   2.479  20.043  0.00  0.00    +0.000 C 
ENDBRANCH  20  22
ENDBRANCH  17  18
ENDBRANCH  16  17
ENDBRANCH   4  16
TORSDOF 7
ENDMDL
MODEL 3
REMARK VINA RESULT:      -7.9      4.381      7.353
REMARK  Name = 
REMARK  11 active torsions:
REMARK  status: ('A' for Active; 'I' for Inactive)
REMARK    1  A    between atoms: C_1  and  O_2
REMARK    2  A    between atoms: O_2  and  C_3
REMARK    3  A    between atoms: C_6  and  C_7
REMARK    4  A    between atoms: C_10  and  C_11
REMARK    5  A    between atoms: C_11  and  C_12
REMARK    6  A    between atoms: C_12  and  C_13
REMARK    7  A    between atoms: N_15  and  C_16
REMARK    8  A    between atoms: C_20  and  C_21
REMARK    9  A    between atoms: C_22  and  C_23
REMARK   10  A    between atoms: C_26  and  O_27
REMARK   11  A    between atoms: O_27  and  C_28
REMARK                            x       y       z     vdW  Elec       q    Type
REMARK                         _______ _______ _______ _____ _____    ______ ____
ROOT
ATOM      1  C   UNL     1       8.384   9.099  18.258  0.00  0.00    +0.000 A 
ATOM      2  N   UNL     1       7.549   9.139  17.206  0.00  0.00    +0.000 NA
ATOM      3  O   UNL     1       7.162   7.815  17.039  0.00  0.00    +0.000 OA
ATOM      4  C   UNL     1       7.794   7.105  18.015  0.00  0.00    +0.000 A 
ATOM      5  N   UNL     1       8.552   7.839  18.790  0.00  0.00    +0.000 NA
ENDROOT
BRANCH   1   9
ATOM      6  C   UNL     1      10.428  12.489  19.854  0.00  0.00    +0.000 A 
ATOM      7  C   UNL     1       9.997  11.453  20.696  0.00  0.00    +0.000 A 
ATOM      8  C   UNL     1       9.330  10.341  20.183  0.00  0.00    +0.000 A 
ATOM      9  C   UNL     1       9.038  10.268  18.820  0.00  0.00    +0.000 A 
ATOM     10  C   UNL     1       9.394  11.341  17.995  0.00  0.00    +0.000 A 
ATOM     11  C   UNL     1      10.082  12.456  18.494  0.00  0.00    +0.000 A 
BRANCH   6  13
ATOM     12  C   UNL     1      10.397  14.617  20.892  0.00  0.00    +0.000 C 
ATOM     13  O   UNL     1      11.156  13.538  20.346  0.00  0.00    +0.000 OA
ENDBRANCH   6  13
BRANCH  11  14
ATOM     14  O   UNL     1      10.343  13.372  17.511  0.00  0.00    +0.000 OA
ATOM     15  C   UNL     1      11.455  13.172  16.656  0.00  0.00    +0.000 C 
ENDBRANCH  11  14
ENDBRANCH   1   9
BRANCH   4  16
ATOM     16  C   UNL     1       7.553   5.653  18.028  0.00  0.00    +0.000 C 
BRANCH  16  17
ATOM     17  C   UNL     1       7.251   5.094  16.638  0.00  0.00    +0.000 C 
BRANCH  17  18
ATOM     18  C   UNL     1       5.998   4.256  16.726  0.00  0.00    +0.000 C 
ATOM     19  O   UNL     1       5.736   3.438  15.849  0.00  0.00    +0.000 OA
ATOM     20  N   UNL     1       5.215   4.529  17.842  0.00  0.00    +0.000 N 
ATOM     21  H   UNL     1       5.443   5.360  18.368  0.00  0.00    +0.000 HD
BRANCH  20  22
ATOM     22  C   UNL     1       4.017   3.847  18.176  0.00  0.00    +0.000 A 
ATOM     23  C   UNL     1       3.722   2.603  17.599  0.00  0.00    +0.000 A 
ATOM     24  C   UNL     1       2.537   1.934  17.881  0.00  0.00    +0.000 A 
ATOM     25  C   UNL     1       1.629   2.491  18.767  0.00  0.00    +0.000 A 
ATOM     26  C   UNL     1       1.901   3.718  19.393  0.00  0.00    +0.000 A 
ATOM     27  C   UNL     1       0.863   4.255  20.343  0.00  0.00    +0.000 C 
ATOM     28  C   UNL     1       3.105   4.413  19.103  0.00  0.00    +0.000 A 
ATOM     29  C   UNL     1       3.407   5.726  19.782  0.00  0.00    +0.000 C 
ENDBRANCH  20  22
ENDBRANCH  17  18
ENDBRANCH  16  17
ENDBRANCH   4  16
TORSDOF 7
ENDMDL
MODEL 4
REMARK VINA RESULT:      -7.8      4.370      7.182
REMARK  Name = 
REMARK  11 active torsions:
REMARK  status: ('A' for Active; 'I' for Inactive)
REMARK    1  A    between atoms: C_1  and  O_2
REMARK    2  A    between atoms: O_2  and  C_3
REMARK    3  A    between atoms: C_6  and  C_7
REMARK    4  A    between atoms: C_10  and  C_11
REMARK    5  A    between atoms: C_11  and  C_12
REMARK    6  A    between atoms: C_12  and  C_13
REMARK    7  A    between atoms: N_15  and  C_16
REMARK    8  A    between atoms: C_20  and  C_21
REMARK    9  A    between atoms: C_22  and  C_23
REMARK   10  A    between atoms: C_26  and  O_27
REMARK   11  A    between atoms: O_27  and  C_28
REMARK                            x       y       z     vdW  Elec       q    Type
REMARK                         _______ _______ _______ _____ _____    ______ ____
ROOT
ATOM      1  C   UNL     1       8.410   9.080  18.200  0.00  0.00    +0.000 A 
ATOM      2  N   UNL     1       8.764   8.115  19.065  0.00  0.00    +0.000 NA
ATOM      3  O   UNL     1       8.120   6.984  18.579  0.00  0.00    +0.000 OA
ATOM      4  C   UNL     1       7.447   7.375  17.461  0.00  0.00    +0.000 A 
ATOM      5  N   UNL     1       7.591   8.646  17.181  0.00  0.00    +0.000 NA
ENDROOT
BRANCH   1   9
ATOM      6  C   UNL     1       9.774  13.122  18.336  0.00  0.00    +0.000 A 
ATOM      7  C   UNL     1      10.507  12.100  18.959  0.00  0.00    +0.000 A 
ATOM      8  C   UNL     1      10.069  10.777  18.917  0.00  0.00    +0.000 A 
ATOM      9  C   UNL     1       8.862  10.458  18.293  0.00  0.00    +0.000 A 
ATOM     10  C   UNL     1       8.092  11.491  17.745  0.00  0.00    +0.000 A 
ATOM     11  C   UNL     1       8.529  12.823  17.762  0.00  0.00    +0.000 A 
BRANCH   6  13
ATOM     12  C   UNL     1      11.376  14.670  19.138  0.00  0.00    +0.000 C 
ATOM     13  O   UNL     1      10.248  14.406  18.305  0.00  0.00    +0.000 OA
ENDBRANCH   6  13
BRANCH  11  14
ATOM     14  O   UNL     1       7.629  13.659  17.158  0.00  0.00    +0.000 OA
ATOM     15  C   UNL     1       6.815  14.495  17.962  0.00  0.00    +0.000 C 
ENDBRANCH  11  14
ENDBRANCH   1   9
BRANCH   4  16
ATOM     16  C   UNL     1       6.660   6.338  16.774  0.00  0.00    +0.000 C 
BRANCH  16  17
ATOM     17  C   UNL     1       6.919   4.938  17.330  0.00  0.00    +0.000 C 
BRANCH  17  18
ATOM     18  C   UNL     1       5.830   4.614  18.324  0.00  0.00    +0.000 C 
ATOM     19  O   UNL     1       6.106   4.067  19.389  0.00  0.00    +0.000 OA
ATOM     20  N   UNL     1       4.555   4.967  17.899  0.00  0.00    +0.000 N 
ATOM     21  H   UNL     1       4.451   5.220  16.928  0.00  0.00    +0.000 HD
BRANCH  20  22
ATOM     22  C   UNL     1       3.373   4.811  18.668  0.00  0.00    +0.000 A 
ATOM     23  C   UNL     1       3.019   5.768  19.631  0.00  0.00    +0.000 A 
ATOM     24  C   UNL     1       1.888   5.617  20.423  0.00  0.00    +0.000 A 
ATOM     25  C   UNL     1       1.073   4.509  20.252  0.00  0.00    +0.000 A 
ATOM     26  C   UNL     1       1.373   3.545  19.277  0.00  0.00    +0.000 A 
ATOM     27  C   UNL     1       0.438   2.371  19.154  0.00  0.00    +0.000 C 
ATOM     28  C   UNL     1       2.533   3.687  18.469  0.00  0.00    +0.000 A 
ATOM     29  C   UNL     1       2.853   2.659  17.412  0.00  0.00    +0.000 C 
ENDBRANCH  20  22
ENDBRANCH  17  18
ENDBRANCH  16  17
ENDBRANCH   4  16
TORSDOF 7
ENDMDL
MODEL 5
REMARK VINA RESULT:      -7.8      4.389      7.313
REMARK  Name = 
REMARK  11 active torsions:
REMARK  status: ('A' for Active; 'I' for Inactive)
REMARK    1  A    between atoms: C_1  and  O_2
REMARK    2  A    between atoms: O_2  and  C_3
REMARK    3  A    between atoms: C_6  and  C_7
REMARK    4  A    between atoms: C_10  and  C_11
REMARK    5  A    between atoms: C_11  and  C_12
REMARK    6  A    between atoms: C_12  and  C_13
REMARK    7  A    between atoms: N_15  and  C_16
REMARK    8  A    between atoms: C_20  and  C_21
REMARK    9  A    between atoms: C_22  and  C_23
REMARK   10  A    between atoms: C_26  and  O_27
REMARK   11  A    between atoms: O_27  and  C_28
REMARK                            x       y       z     vdW  Elec       q    Type
REMARK                         _______ _______ _______ _____ _____    ______ ____
ROOT
ATOM      1  C   UNL     1       8.537   9.135  18.279  0.00  0.00    +0.000 A 
ATOM      2  N   UNL     1       7.627   9.075  17.293  0.00  0.00    +0.000 NA
ATOM      3  O   UNL     1       7.206   7.751  17.312  0.00  0.00    +0.000 OA
ATOM      4  C   UNL     1       7.898   7.142  18.316  0.00  0.00    +0.000 A 
ATOM      5  N   UNL     1       8.725   7.942  18.941  0.00  0.00    +0.000 NA
ENDROOT
BRANCH   1   9
ATOM      6  C   UNL     1      10.518  12.763  19.343  0.00  0.00    +0.000 A 
ATOM      7  C   UNL     1      10.821  12.111  18.138  0.00  0.00    +0.000 A 
ATOM      8  C   UNL     1      10.177  10.926  17.782  0.00  0.00    +0.000 A 
ATOM      9  C   UNL     1       9.252  10.345  18.650  0.00  0.00    +0.000 A 
ATOM     10  C   UNL     1       9.013  10.953  19.888  0.00  0.00    +0.000 A 
ATOM     11  C   UNL     1       9.638  12.154  20.251  0.00  0.00    +0.000 A 
BRANCH   6  13
ATOM     12  C   UNL     1      10.370  15.123  19.214  0.00  0.00    +0.000 C 
ATOM     13  O   UNL     1      11.088  13.969  19.652  0.00  0.00    +0.000 OA
ENDBRANCH   6  13
BRANCH  11  14
ATOM     14  O   UNL     1       9.246  12.574  21.493  0.00  0.00    +0.000 OA
ATOM     15  C   UNL     1       8.492  11.699  22.313  0.00  0.00    +0.000 C 
ENDBRANCH  11  14
ENDBRANCH   1   9
BRANCH   4  16
ATOM     16  C   UNL     1       7.634   5.709  18.517  0.00  0.00    +0.000 C 
BRANCH  16  17
ATOM     17  C   UNL     1       7.357   4.972  17.207  0.00  0.00    +0.000 C 
BRANCH  17  18
ATOM     18  C   UNL     1       5.920   4.506  17.221  0.00  0.00    +0.000 C 
ATOM     19  O   UNL     1       5.206   4.671  16.236  0.00  0.00    +0.000 OA
ATOM     20  N   UNL     1       5.526   3.929  18.422  0.00  0.00    +0.000 N 
ATOM     21  H   UNL     1       6.147   4.041  19.209  0.00  0.00    +0.000 HD
BRANCH  20  22
ATOM     22  C   UNL     1       4.245   3.372  18.670  0.00  0.00    +0.000 A 
ATOM     23  C   UNL     1       3.937   2.075  18.238  0.00  0.00    +0.000 A 
ATOM     24  C   UNL     1       2.676   1.523  18.435  0.00  0.00    +0.000 A 
ATOM     25  C   UNL     1       1.701   2.257  19.091  0.00  0.00    +0.000 A 
ATOM     26  C   UNL     1       1.978   3.547  19.570  0.00  0.00    +0.000 A 
ATOM     27  C   UNL     1       0.865   4.278  20.273  0.00  0.00    +0.000 C 
ATOM     28  C   UNL     1       3.261   4.122  19.365  0.00  0.00    +0.000 A 
ATOM     29  C   UNL     1       3.567   5.504  19.888  0.00  0.00    +0.000 C 
ENDBRANCH  20  22
ENDBRANCH  17  18
ENDBRANCH  16  17
ENDBRANCH   4  16
TORSDOF 7
ENDMDL
MODEL 6
REMARK VINA RESULT:      -7.7      5.515      8.362
REMARK  Name = 
REMARK  11 active torsions:
REMARK  status: ('A' for Active; 'I' for Inactive)
REMARK    1  A    between atoms: C_1  and  O_2
REMARK    2  A    between atoms: O_2  and  C_3
REMARK    3  A    between atoms: C_6  and  C_7
REMARK    4  A    between atoms: C_10  and  C_11
REMARK    5  A    between atoms: C_11  and  C_12
REMARK    6  A    between atoms: C_12  and  C_13
REMARK    7  A    between atoms: N_15  and  C_16
REMARK    8  A    between atoms: C_20  and  C_21
REMARK    9  A    between atoms: C_22  and  C_23
REMARK   10  A    between atoms: C_26  and  O_27
REMARK   11  A    between atoms: O_27  and  C_28
REMARK                            x       y       z     vdW  Elec       q    Type
REMARK                         _______ _______ _______ _____ _____    ______ ____
ROOT
ATOM      1  C   UNL     1       9.206  10.972  18.307  0.00  0.00    +0.000 A 
ATOM      2  N   UNL     1       9.626  10.229  19.345  0.00  0.00    +0.000 NA
ATOM      3  O   UNL     1       8.965   9.019  19.175  0.00  0.00    +0.000 OA
ATOM      4  C   UNL     1       8.216   9.146  18.044  0.00  0.00    +0.000 A 
ATOM      5  N   UNL     1       8.327  10.319  17.472  0.00  0.00    +0.000 NA
ENDROOT
BRANCH   1   9
ATOM      6  C   UNL     1      10.438  14.963  17.430  0.00  0.00    +0.000 A 
ATOM      7  C   UNL     1      11.370  13.914  17.443  0.00  0.00    +0.000 A 
ATOM      8  C   UNL     1      10.975  12.607  17.727  0.00  0.00    +0.000 A 
ATOM      9  C   UNL     1       9.647  12.332  18.052  0.00  0.00    +0.000 A 
ATOM     10  C   UNL     1       8.736  13.393  18.120  0.00  0.00    +0.000 A 
ATOM     11  C   UNL     1       9.114  14.709  17.819  0.00  0.00    +0.000 A 
BRANCH   6  13
ATOM     12  C   UNL     1      12.112  16.636  17.492  0.00  0.00    +0.000 C 
ATOM     13  O   UNL     1      10.811  16.230  17.069  0.00  0.00    +0.000 OA
ENDBRANCH   6  13
BRANCH  11  14
ATOM     14  O   UNL     1       8.062  15.578  17.933  0.00  0.00    +0.000 OA
ATOM     15  C   UNL     1       6.777  15.070  18.246  0.00  0.00    +0.000 C 
ENDBRANCH  11  14
ENDBRANCH   1   9
BRANCH   4  16
ATOM     16  C   UNL     1       7.399   7.982  17.667  0.00  0.00    +0.000 C 
BRANCH  16  17
ATOM     17  C   UNL     1       7.924   6.676  18.262  0.00  0.00    +0.000 C 
BRANCH  17  18
ATOM     18  C   UNL     1       6.752   5.907  18.823  0.00  0.00    +0.000 C 
ATOM     19  O   UNL     1       6.892   5.206  19.822  0.00  0.00    +0.000 OA
ATOM     20  N   UNL     1       5.577   6.062  18.098  0.00  0.00    +0.000 N 
ATOM     21  H   UNL     1       5.653   6.498  17.191  0.00  0.00    +0.000 HD
BRANCH  20  22
ATOM     22  C   UNL     1       4.329   5.482  18.445  0.00  0.00    +0.000 A 
ATOM     23  C   UNL     1       3.488   6.109  19.376  0.00  0.00    +0.000 A 
ATOM     24  C   UNL     1       2.279   5.541  19.761  0.00  0.00    +0.000 A 
ATOM     25  C   UNL     1       1.878   4.338  19.203  0.00  0.00    +0.000 A 
ATOM     26  C   UNL     1       2.674   3.694  18.243  0.00  0.00    +0.000 A 
ATOM     27  C   UNL     1       2.167   2.391  17.685  0.00  0.00    +0.000 C 
ATOM     28  C   UNL     1       3.915   4.263  17.851  0.00  0.00    +0.000 A 
ATOM     29  C   UNL     1       4.769   3.580  16.811  0.00  0.00    +0.000 C 
ENDBRANCH  20  22
ENDBRANCH  17  18
ENDBRANCH  16  17
ENDBRANCH   4  16
TORSDOF 7
ENDMDL
MODEL 7
REMARK VINA RESULT:      -7.7      4.620      7.506
REMARK  Name = 
REMARK  11 active torsions:
REMARK  status: ('A' for Active; 'I' for Inactive)
REMARK    1  A    between atoms: C_1  and  O_2
REMARK    2  A    between atoms: O_2  and  C_3
REMARK    3  A    between atoms: C_6  and  C_7
REMARK    4  A    between atoms: C_10  and  C_11
REMARK    5  A    between atoms: C_11  and  C_12
REMARK    6  A    between atoms: C_12  and  C_13
REMARK    7  A    between atoms: N_15  and  C_16
REMARK    8  A    between atoms: C_20  and  C_21
REMARK    9  A    between atoms: C_22  and  C_23
REMARK   10  A    between atoms: C_26  and  O_27
REMARK   11  A    between atoms: O_27  and  C_28
REMARK                            x       y       z     vdW  Elec       q    Type
REMARK                         _______ _______ _______ _____ _____    ______ ____
ROOT
ATOM      1  C   UNL     1       8.625   9.621  18.277  0.00  0.00    +0.000 A 
ATOM      2  N   UNL     1       9.012   8.601  19.061  0.00  0.00    +0.000 NA
ATOM      3  O   UNL     1       8.240   7.533  18.619  0.00  0.00    +0.000 OA
ATOM      4  C   UNL     1       7.468   8.011  17.604  0.00  0.00    +0.000 A 
ATOM      5  N   UNL     1       7.663   9.282  17.351  0.00  0.00    +0.000 NA
ENDROOT
BRANCH   1   9
ATOM      6  C   UNL     1      10.270  13.558  18.383  0.00  0.00    +0.000 A 
ATOM      7  C   UNL     1      10.974  12.474  18.931  0.00  0.00    +0.000 A 
ATOM      8  C   UNL     1      10.444  11.185  18.899  0.00  0.00    +0.000 A 
ATOM      9  C   UNL     1       9.176  10.962  18.361  0.00  0.00    +0.000 A 
ATOM     10  C   UNL     1       8.441  12.057  17.891  0.00  0.00    +0.000 A 
ATOM     11  C   UNL     1       8.969  13.356  17.899  0.00  0.00    +0.000 A 
BRANCH   6  13
ATOM     12  C   UNL     1      11.514  15.136  17.132  0.00  0.00    +0.000 C 
ATOM     13  O   UNL     1      10.827  14.807  18.339  0.00  0.00    +0.000 OA
ENDBRANCH   6  13
BRANCH  11  14
ATOM     14  O   UNL     1       8.087  14.265  17.379  0.00  0.00    +0.000 OA
ATOM     15  C   UNL     1       6.816  14.420  17.986  0.00  0.00    +0.000 C 
ENDBRANCH  11  14
ENDBRANCH   1   9
BRANCH   4  16
ATOM     16  C   UNL     1       6.538   7.055  16.983  0.00  0.00    +0.000 C 
BRANCH  16  17
ATOM     17  C   UNL     1       7.086   5.629  16.962  0.00  0.00    +0.000 C 
BRANCH  17  18
ATOM     18  C   UNL     1       6.197   4.767  17.826  0.00  0.00    +0.000 C 
ATOM     19  O   UNL     1       6.634   4.263  18.857  0.00  0.00    +0.000 OA
ATOM     20  N   UNL     1       4.910   4.606  17.326  0.00  0.00    +0.000 N 
ATOM     21  H   UNL     1       4.748   4.904  16.376  0.00  0.00    +0.000 HD
BRANCH  20  22
ATOM     22  C   UNL     1       3.875   3.883  17.973  0.00  0.00    +0.000 A 
ATOM     23  C   UNL     1       3.694   2.516  17.717  0.00  0.00    +0.000 A 
ATOM     24  C   UNL     1       2.663   1.796  18.309  0.00  0.00    +0.000 A 
ATOM     25  C   UNL     1       1.802   2.430  19.191  0.00  0.00    +0.000 A 
ATOM     26  C   UNL     1       1.969   3.788  19.501  0.00  0.00    +0.000 A 
ATOM     27  C   UNL     1       0.992   4.402  20.469  0.00  0.00    +0.000 C 
ATOM     28  C   UNL     1       3.014   4.534  18.893  0.00  0.00    +0.000 A 
ATOM     29  C   UNL     1       3.204   5.992  19.232  0.00  0.00    +0.000 C 
ENDBRANCH  20  22
ENDBRANCH  17  18
ENDBRANCH  16  17
ENDBRANCH   4  16
TORSDOF 7
ENDMDL
MODEL 8
REMARK VINA RESULT:      -7.7      4.767      8.020
REMARK  Name = 
REMARK  11 active torsions:
REMARK  status: ('A' for Active; 'I' for Inactive)
REMARK    1  A    between atoms: C_1  and  O_2
REMARK    2  A    between atoms: O_2  and  C_3
REMARK    3  A    between atoms: C_6  and  C_7
REMARK    4  A    between atoms: C_10  and  C_11
REMARK    5  A    between atoms: C_11  and  C_12
REMARK    6  A    between atoms: C_12  and  C_13
REMARK    7  A    between atoms: N_15  and  C_16
REMARK    8  A    between atoms: C_20  and  C_21
REMARK    9  A    between atoms: C_22  and  C_23
REMARK   10  A    between atoms: C_26  and  O_27
REMARK   11  A    between atoms: O_27  and  C_28
REMARK                            x       y       z     vdW  Elec       q    Type
REMARK                         _______ _______ _______ _____ _____    ______ ____
ROOT
ATOM      1  C   UNL     1       6.082   6.137  17.190  0.00  0.00    +0.000 A 
ATOM      2  N   UNL     1       7.137   5.703  16.481  0.00  0.00    +0.000 NA
ATOM      3  O   UNL     1       8.037   6.759  16.548  0.00  0.00    +0.000 OA
ATOM      4  C   UNL     1       7.441   7.725  17.301  0.00  0.00    +0.000 A 
ATOM      5  N   UNL     1       6.244   7.398  17.721  0.00  0.00    +0.000 NA
ENDROOT
BRANCH   1   9
ATOM      6  C   UNL     1       2.598   3.799  17.977  0.00  0.00    +0.000 A 
ATOM      7  C   UNL     1       3.548   3.371  17.038  0.00  0.00    +0.000 A 
ATOM      8  C   UNL     1       4.690   4.128  16.776  0.00  0.00    +0.000 A 
ATOM      9  C   UNL     1       4.878   5.354  17.415  0.00  0.00    +0.000 A 
ATOM     10  C   UNL     1       3.888   5.818  18.289  0.00  0.00    +0.000 A 
ATOM     11  C   UNL     1       2.745   5.059  18.577  0.00  0.00    +0.000 A 
BRANCH   6  13
ATOM     12  C   UNL     1       1.735   2.067  19.341  0.00  0.00    +0.000 C 
ATOM     13  O   UNL     1       1.522   3.015  18.295  0.00  0.00    +0.000 OA
ENDBRANCH   6  13
BRANCH  11  14
ATOM     14  O   UNL     1       1.924   5.697  19.467  0.00  0.00    +0.000 OA
ATOM     15  C   UNL     1       2.010   5.370  20.843  0.00  0.00    +0.000 C 
ENDBRANCH  11  14
ENDBRANCH   1   9
BRANCH   4  16
ATOM     16  C   UNL     1       8.204   8.968  17.496  0.00  0.00    +0.000 C 
BRANCH  16  17
ATOM     17  C   UNL     1       8.790   9.083  18.903  0.00  0.00    +0.000 C 
BRANCH  17  18
ATOM     18  C   UNL     1       9.343  10.478  19.072  0.00  0.00    +0.000 C 
ATOM     19  O   UNL     1       9.388  10.997  20.184  0.00  0.00    +0.000 OA
ATOM     20  N   UNL     1       9.745  11.073  17.882  0.00  0.00    +0.000 N 
ATOM     21  H   UNL     1       9.465  10.618  17.026  0.00  0.00    +0.000 HD
BRANCH  20  22
ATOM     22  C   UNL     1      10.339  12.358  17.780  0.00  0.00    +0.000 A 
ATOM     23  C   UNL     1      11.722  12.489  17.590  0.00  0.00    +0.000 A 
ATOM     24  C   UNL     1      12.331  13.736  17.525  0.00  0.00    +0.000 A 
ATOM     25  C   UNL     1      11.561  14.883  17.631  0.00  0.00    +0.000 A 
ATOM     26  C   UNL     1      10.169  14.797  17.788  0.00  0.00    +0.000 A 
ATOM     27  C   UNL     1       9.403  16.089  17.894  0.00  0.00    +0.000 C 
ATOM     28  C   UNL     1       9.539  13.526  17.864  0.00  0.00    +0.000 A 
ATOM     29  C   UNL     1       8.041  13.428  18.022  0.00  0.00    +0.000 C 
ENDBRANCH  20  22
ENDBRANCH  17  18
ENDBRANCH  16  17
ENDBRANCH   4  16
TORSDOF 7
ENDMDL
MODEL 9
REMARK VINA RESULT:      -7.6      4.876      8.077
REMARK  Name = 
REMARK  11 active torsions:
REMARK  status: ('A' for Active; 'I' for Inactive)
REMARK    1  A    between atoms: C_1  and  O_2
REMARK    2  A    between atoms: O_2  and  C_3
REMARK    3  A    between atoms: C_6  and  C_7
REMARK    4  A    between atoms: C_10  and  C_11
REMARK    5  A    between atoms: C_11  and  C_12
REMARK    6  A    between atoms: C_12  and  C_13
REMARK    7  A    between atoms: N_15  and  C_16
REMARK    8  A    between atoms: C_20  and  C_21
REMARK    9  A    between atoms: C_22  and  C_23
REMARK   10  A    between atoms: C_26  and  O_27
REMARK   11  A    between atoms: O_27  and  C_28
REMARK                            x       y       z     vdW  Elec       q    Type
REMARK                         _______ _______ _______ _____ _____    ______ ____
ROOT
ATOM      1  C   UNL     1       6.052   6.419  17.202  0.00  0.00    +0.000 A 
ATOM      2  N   UNL     1       7.071   6.005  16.430  0.00  0.00    +0.000 NA
ATOM      3  O   UNL     1       7.982   7.051  16.495  0.00  0.00    +0.000 OA
ATOM      4  C   UNL     1       7.429   7.992  17.310  0.00  0.00    +0.000 A 
ATOM      5  N   UNL     1       6.250   7.658  17.771  0.00  0.00    +0.000 NA
ENDROOT
BRANCH   1   9
ATOM      6  C   UNL     1       2.586   4.080  18.060  0.00  0.00    +0.000 A 
ATOM      7  C   UNL     1       3.500   3.670  17.077  0.00  0.00    +0.000 A 
ATOM      8  C   UNL     1       4.635   4.427  16.792  0.00  0.00    +0.000 A 
ATOM      9  C   UNL     1       4.854   5.637  17.452  0.00  0.00    +0.000 A 
ATOM     10  C   UNL     1       3.899   6.085  18.372  0.00  0.00    +0.000 A 
ATOM     11  C   UNL     1       2.762   5.326  18.683  0.00  0.00    +0.000 A 
BRANCH   6  13
ATOM     12  C   UNL     1       1.839   2.037  18.994  0.00  0.00    +0.000 C 
ATOM     13  O   UNL     1       1.518   3.294  18.398  0.00  0.00    +0.000 OA
ENDBRANCH   6  13
BRANCH  11  14
ATOM     14  O   UNL     1       1.977   5.946  19.617  0.00  0.00    +0.000 OA
ATOM     15  C   UNL     1       2.166   7.327  19.872  0.00  0.00    +0.000 C 
ENDBRANCH  11  14
ENDBRANCH   1   9
BRANCH   4  16
ATOM     16  C   UNL     1       8.212   9.221  17.516  0.00  0.00    +0.000 C 
BRANCH  16  17
ATOM     17  C   UNL     1       8.906   9.255  18.878  0.00  0.00    +0.000 C 
BRANCH  17  18
ATOM     18  C   UNL     1       9.211  10.694  19.218  0.00  0.00    +0.000 C 
ATOM     19  O   UNL     1       9.602  10.996  20.342  0.00  0.00    +0.000 OA
ATOM     20  N   UNL     1       8.983  11.580  18.171  0.00  0.00    +0.000 N 
ATOM     21  H   UNL     1       8.473  11.228  17.376  0.00  0.00    +0.000 HD
BRANCH  20  22
ATOM     22  C   UNL     1       9.237  12.976  18.224  0.00  0.00    +0.000 A 
ATOM     23  C   UNL     1       8.303  13.847  18.803  0.00  0.00    +0.000 A 
ATOM     24  C   UNL     1       8.512  15.221  18.831  0.00  0.00    +0.000 A 
ATOM     25  C   UNL     1       9.676  15.749  18.296  0.00  0.00    +0.000 A 
ATOM     26  C   UNL     1      10.651  14.909  17.737  0.00  0.00    +0.000 A 
ATOM     27  C   UNL     1      11.888  15.561  17.177  0.00  0.00    +0.000 C 
ATOM     28  C   UNL     1      10.442  13.504  17.696  0.00  0.00    +0.000 A 
ATOM     29  C   UNL     1      11.493  12.596  17.106  0.00  0.00    +0.000 C 
ENDBRANCH  20  22
ENDBRANCH  17  18
ENDBRANCH  16  17
ENDBRANCH   4  16
TORSDOF 7
ENDMDL
