MODEL 1
REMARK VINA RESULT:      -8.1      0.000      0.000
REMARK  Name = 
REMARK  8 active torsions:
REMARK  status: ('A' for Active; 'I' for Inactive)
REMARK    1  A    between atoms: C_1  and  C_2
REMARK    2  A    between atoms: C_4  and  O_5
REMARK    3  A    between atoms: O_5  and  C_6
REMARK    4  A    between atoms: C_6  and  C_7
REMARK    5  A    between atoms: C_6  and  C_8
REMARK    6  A    between atoms: C_10  and  C_11
REMARK    7  A    between atoms: C_12  and  C_13
REMARK    8  A    between atoms: C_18  and  C_20
REMARK                            x       y       z     vdW  Elec       q    Type
REMARK                         _______ _______ _______ _____ _____    ______ ____
ROOT
ATOM      1  C   UNL     1       3.604   4.573  19.221  0.00  0.00    +0.000 A 
ATOM      2  C   UNL     1       3.296   3.605  20.162  0.00  0.00    +0.000 A 
ATOM      3  S   UNL     1       2.231   4.248  21.363  0.00  0.00    +0.000 S 
ATOM      4  C   UNL     1       2.259   5.741  20.548  0.00  0.00    +0.000 A 
ATOM      5  N   UNL     1       1.576   6.769  21.146  0.00  0.00    +0.000 N 
ATOM      6  C   UNL     1       1.490   7.995  20.520  0.00  0.00    +0.000 C 
ATOM      7  O   UNL     1       1.916   8.286  19.410  0.00  0.00    +0.000 OA
ATOM      8  N   UNL     1       2.951   5.772  19.446  0.00  0.00    +0.000 NA
ATOM      9  H   UNL     1       1.119   6.572  22.021  0.00  0.00    +0.000 HD
ENDROOT
BRANCH   1  17
ATOM     10  C   UNL     1       2.708   3.411  16.631  0.00  0.00    +0.000 C 
ATOM     11  C   UNL     1       4.126   3.880  16.874  0.00  0.00    +0.000 A 
ATOM     12  C   UNL     1       5.022   3.729  15.796  0.00  0.00    +0.000 A 
ATOM     13  C   UNL     1       6.319   4.209  15.874  0.00  0.00    +0.000 A 
ATOM     14  C   UNL     1       6.761   4.755  17.074  0.00  0.00    +0.000 A 
ATOM     15  C   UNL     1       5.914   4.878  18.198  0.00  0.00    +0.000 A 
ATOM     16  C   UNL     1       6.534   5.469  19.436  0.00  0.00    +0.000 C 
ATOM     17  C   UNL     1       4.562   4.459  18.104  0.00  0.00    +0.000 A 
BRANCH  13  18
ATOM     18  O   UNL     1       7.231   4.206  14.857  0.00  0.00    +0.000 OA
BRANCH  18  19
ATOM     19  C   UNL     1       6.844   4.797  13.606  0.00  0.00    +0.000 C 
ATOM     20  C   UNL     1       8.022   5.492  12.920  0.00  0.00    +0.000 C 
ATOM     21  C   UNL     1       6.355   3.652  12.718  0.00  0.00    +0.000 C 
ENDBRANCH  18  19
ENDBRANCH  13  18
ENDBRANCH   1  17
BRANCH   6  22
ATOM     22  C   UNL     1       0.781   9.071  21.257  0.00  0.00    +0.000 A 
ATOM     23  C   UNL     1       0.152   8.866  22.484  0.00  0.00    +0.000 A 
ATOM     24  C   UNL     1      -0.398   9.972  23.112  0.00  0.00    +0.000 A 
ATOM     25  N   UNL     1      -0.365  11.222  22.604  0.00  0.00    +0.000 NA
ATOM     26  C   UNL     1       0.260  11.391  21.420  0.00  0.00    +0.000 A 
ATOM     27  C   UNL     1       0.841  10.358  20.716  0.00  0.00    +0.000 A 
ENDBRANCH   6  22
TORSDOF 4
ENDMDL
MODEL 2
REMARK VINA RESULT:      -7.8      0.102      1.721
REMARK  Name = 
REMARK  8 active torsions:
REMARK  status: ('A' for Active; 'I' for Inactive)
REMARK    1  A    between atoms: C_1  and  C_2
REMARK    2  A    between atoms: C_4  and  O_5
REMARK    3  A    between atoms: O_5  and  C_6
REMARK    4  A    between atoms: C_6  and  C_7
REMARK    5  A    between atoms: C_6  and  C_8
REMARK    6  A    between atoms: C_10  and  C_11
REMARK    7  A    between atoms: C_12  and  C_13
REMARK    8  A    between atoms: C_18  and  C_20
REMARK                            x       y       z     vdW  Elec       q    Type
REMARK                         _______ _______ _______ _____ _____    ______ ____
ROOT
ATOM      1  C   UNL     1       3.597   4.578  19.148  0.00  0.00    +0.000 A 
ATOM      2  C   UNL     1       3.336   3.612  20.104  0.00  0.00    +0.000 A 
ATOM      3  S   UNL     1       2.306   4.248  21.337  0.00  0.00    +0.000 S 
ATOM      4  C   UNL     1       2.286   5.736  20.515  0.00  0.00    +0.000 A 
ATOM      5  N   UNL     1       1.611   6.758  21.132  0.00  0.00    +0.000 N 
ATOM      6  C   UNL     1       1.487   7.980  20.504  0.00  0.00    +0.000 C 
ATOM      7  O   UNL     1       1.870   8.271  19.378  0.00  0.00    +0.000 OA
ATOM      8  N   UNL     1       2.938   5.771  19.389  0.00  0.00    +0.000 NA
ATOM      9  H   UNL     1       1.187   6.560  22.024  0.00  0.00    +0.000 HD
ENDROOT
BRANCH   1  17
ATOM     10  C   UNL     1       6.402   5.537  19.418  0.00  0.00    +0.000 C 
ATOM     11  C   UNL     1       5.854   4.956  18.133  0.00  0.00    +0.000 A 
ATOM     12  C   UNL     1       6.750   4.897  17.047  0.00  0.00    +0.000 A 
ATOM     13  C   UNL     1       6.385   4.298  15.852  0.00  0.00    +0.000 A 
ATOM     14  C   UNL     1       5.079   3.843  15.701  0.00  0.00    +0.000 A 
ATOM     15  C   UNL     1       4.131   3.930  16.745  0.00  0.00    +0.000 A 
ATOM     16  C   UNL     1       2.751   3.416  16.433  0.00  0.00    +0.000 C 
ATOM     17  C   UNL     1       4.518   4.471  17.998  0.00  0.00    +0.000 A 
BRANCH  13  18
ATOM     18  O   UNL     1       7.206   4.097  14.779  0.00  0.00    +0.000 OA
BRANCH  18  19
ATOM     19  C   UNL     1       6.855   4.730  13.538  0.00  0.00    +0.000 C 
ATOM     20  C   UNL     1       8.036   5.497  12.940  0.00  0.00    +0.000 C 
ATOM     21  C   UNL     1       6.452   3.610  12.578  0.00  0.00    +0.000 C 
ENDBRANCH  18  19
ENDBRANCH  13  18
ENDBRANCH   1  17
BRANCH   6  22
ATOM     22  C   UNL     1       0.791   9.051  21.261  0.00  0.00    +0.000 A 
ATOM     23  C   UNL     1       0.204   8.843  22.508  0.00  0.00    +0.000 A 
ATOM     24  C   UNL     1      -0.337   9.945  23.150  0.00  0.00    +0.000 A 
ATOM     25  N   UNL     1      -0.334  11.194  22.638  0.00  0.00    +0.000 NA
ATOM     26  C   UNL     1       0.250  11.366  21.434  0.00  0.00    +0.000 A 
ATOM     27  C   UNL     1       0.819  10.337  20.714  0.00  0.00    +0.000 A 
ENDBRANCH   6  22
TORSDOF 4
ENDMDL
MODEL 3
REMARK VINA RESULT:      -7.4      1.175      1.689
REMARK  Name = 
REMARK  8 active torsions:
REMARK  status: ('A' for Active; 'I' for Inactive)
REMARK    1  A    between atoms: C_1  and  C_2
REMARK    2  A    between atoms: C_4  and  O_5
REMARK    3  A    between atoms: O_5  and  C_6
REMARK    4  A    between atoms: C_6  and  C_7
REMARK    5  A    between atoms: C_6  and  C_8
REMARK    6  A    between atoms: C_10  and  C_11
REMARK    7  A    between atoms: C_12  and  C_13
REMARK    8  A    between atoms: C_18  and  C_20
REMARK                            x       y       z     vdW  Elec       q    Type
REMARK                         _______ _______ _______ _____ _____    ______ ____
ROOT
ATOM      1  C   UNL     1       3.274   5.013  18.745  0.00  0.00    +0.000 A 
ATOM      2  C   UNL     1       3.063   4.012  19.677  0.00  0.00    +0.000 A 
ATOM      3  S   UNL     1       2.143   4.613  21.011  0.00  0.00    +0.000 S 
ATOM      4  C   UNL     1       2.094   6.136  20.255  0.00  0.00    +0.000 A 
ATOM      5  N   UNL     1       1.490   7.143  20.963  0.00  0.00    +0.000 N 
ATOM      6  C   UNL     1       1.347   8.393  20.397  0.00  0.00    +0.000 C 
ATOM      7  O   UNL     1       1.650   8.724  19.259  0.00  0.00    +0.000 OA
ATOM      8  N   UNL     1       2.660   6.206  19.085  0.00  0.00    +0.000 NA
ATOM      9  H   UNL     1       1.131   6.915  21.876  0.00  0.00    +0.000 HD
ENDROOT
BRANCH   1  17
ATOM     10  C   UNL     1       3.966   2.354  17.601  0.00  0.00    +0.000 C 
ATOM     11  C   UNL     1       4.446   3.656  16.999  0.00  0.00    +0.000 A 
ATOM     12  C   UNL     1       5.259   3.547  15.853  0.00  0.00    +0.000 A 
ATOM     13  C   UNL     1       5.677   4.675  15.164  0.00  0.00    +0.000 A 
ATOM     14  C   UNL     1       5.367   5.928  15.680  0.00  0.00    +0.000 A 
ATOM     15  C   UNL     1       4.599   6.086  16.855  0.00  0.00    +0.000 A 
ATOM     16  C   UNL     1       4.358   7.502  17.307  0.00  0.00    +0.000 C 
ATOM     17  C   UNL     1       4.102   4.938  17.524  0.00  0.00    +0.000 A 
BRANCH  13  18
ATOM     18  O   UNL     1       6.378   4.676  13.992  0.00  0.00    +0.000 OA
BRANCH  18  19
ATOM     19  C   UNL     1       6.153   3.594  13.074  0.00  0.00    +0.000 C 
ATOM     20  C   UNL     1       4.763   3.671  12.439  0.00  0.00    +0.000 C 
ATOM     21  C   UNL     1       7.210   3.729  11.977  0.00  0.00    +0.000 C 
ENDBRANCH  18  19
ENDBRANCH  13  18
ENDBRANCH   1  17
BRANCH   6  22
ATOM     22  C   UNL     1       0.733   9.443  21.249  0.00  0.00    +0.000 A 
ATOM     23  C   UNL     1       0.617  10.774  20.851  0.00  0.00    +0.000 A 
ATOM     24  C   UNL     1      -0.055  11.637  21.701  0.00  0.00    +0.000 A 
ATOM     25  N   UNL     1      -0.592  11.267  22.883  0.00  0.00    +0.000 NA
ATOM     26  C   UNL     1      -0.473   9.970  23.236  0.00  0.00    +0.000 A 
ATOM     27  C   UNL     1       0.174   9.030  22.461  0.00  0.00    +0.000 A 
ENDBRANCH   6  22
TORSDOF 4
ENDMDL
MODEL 4
REMARK VINA RESULT:      -7.2      1.164      2.015
REMARK  Name = 
REMARK  8 active torsions:
REMARK  status: ('A' for Active; 'I' for Inactive)
REMARK    1  A    between atoms: C_1  and  C_2
REMARK    2  A    between atoms: C_4  and  O_5
REMARK    3  A    between atoms: O_5  and  C_6
REMARK    4  A    between atoms: C_6  and  C_7
REMARK    5  A    between atoms: C_6  and  C_8
REMARK    6  A    between atoms: C_10  and  C_11
REMARK    7  A    between atoms: C_12  and  C_13
REMARK    8  A    between atoms: C_18  and  C_20
REMARK                            x       y       z     vdW  Elec       q    Type
REMARK                         _______ _______ _______ _____ _____    ______ ____
ROOT
ATOM      1  C   UNL     1       3.290   4.986  18.749  0.00  0.00    +0.000 A 
ATOM      2  C   UNL     1       3.103   3.993  19.695  0.00  0.00    +0.000 A 
ATOM      3  S   UNL     1       2.197   4.601  21.036  0.00  0.00    +0.000 S 
ATOM      4  C   UNL     1       2.123   6.115  20.264  0.00  0.00    +0.000 A 
ATOM      5  N   UNL     1       1.520   7.124  20.970  0.00  0.00    +0.000 N 
ATOM      6  C   UNL     1       1.357   8.366  20.393  0.00  0.00    +0.000 C 
ATOM      7  O   UNL     1       1.640   8.688  19.247  0.00  0.00    +0.000 OA
ATOM      8  N   UNL     1       2.671   6.177  19.085  0.00  0.00    +0.000 NA
ATOM      9  H   UNL     1       1.176   6.903  21.891  0.00  0.00    +0.000 HD
ENDROOT
BRANCH   1  17
ATOM     10  C   UNL     1       4.196   7.491  17.421  0.00  0.00    +0.000 C 
ATOM     11  C   UNL     1       4.510   6.114  16.878  0.00  0.00    +0.000 A 
ATOM     12  C   UNL     1       5.259   6.075  15.685  0.00  0.00    +0.000 A 
ATOM     13  C   UNL     1       5.685   4.869  15.149  0.00  0.00    +0.000 A 
ATOM     14  C   UNL     1       5.274   3.686  15.751  0.00  0.00    +0.000 A 
ATOM     15  C   UNL     1       4.477   3.676  16.918  0.00  0.00    +0.000 A 
ATOM     16  C   UNL     1       4.091   2.321  17.448  0.00  0.00    +0.000 C 
ATOM     17  C   UNL     1       4.101   4.905  17.518  0.00  0.00    +0.000 A 
BRANCH  13  18
ATOM     18  O   UNL     1       6.498   4.726  14.060  0.00  0.00    +0.000 OA
BRANCH  18  19
ATOM     19  C   UNL     1       6.213   3.655  13.146  0.00  0.00    +0.000 C 
ATOM     20  C   UNL     1       4.802   3.767  12.565  0.00  0.00    +0.000 C 
ATOM     21  C   UNL     1       7.230   3.770  12.011  0.00  0.00    +0.000 C 
ENDBRANCH  18  19
ENDBRANCH  13  18
ENDBRANCH   1  17
BRANCH   6  22
ATOM     22  C   UNL     1       0.746   9.420  21.242  0.00  0.00    +0.000 A 
ATOM     23  C   UNL     1       0.645  10.753  20.846  0.00  0.00    +0.000 A 
ATOM     24  C   UNL     1      -0.026  11.620  21.692  0.00  0.00    +0.000 A 
ATOM     25  N   UNL     1      -0.576  11.252  22.870  0.00  0.00    +0.000 NA
ATOM     26  C   UNL     1      -0.471   9.954  23.221  0.00  0.00    +0.000 A 
ATOM     27  C   UNL     1       0.174   9.010  22.449  0.00  0.00    +0.000 A 
ENDBRANCH   6  22
TORSDOF 4
ENDMDL
MODEL 5
REMARK VINA RESULT:      -7.1      2.018      2.342
REMARK  Name = 
REMARK  8 active torsions:
REMARK  status: ('A' for Active; 'I' for Inactive)
REMARK    1  A    between atoms: C_1  and  C_2
REMARK    2  A    between atoms: C_4  and  O_5
REMARK    3  A    between atoms: O_5  and  C_6
REMARK    4  A    between atoms: C_6  and  C_7
REMARK    5  A    between atoms: C_6  and  C_8
REMARK    6  A    between atoms: C_10  and  C_11
REMARK    7  A    between atoms: C_12  and  C_13
REMARK    8  A    between atoms: C_18  and  C_20
REMARK                            x       y       z     vdW  Elec       q    Type
REMARK                         _______ _______ _______ _____ _____    ______ ____
ROOT
ATOM      1  C   UNL     1       3.432   5.885  18.474  0.00  0.00    +0.000 A 
ATOM      2  C   UNL     1       3.178   5.340  19.720  0.00  0.00    +0.000 A 
ATOM      3  S   UNL     1       2.191   6.406  20.656  0.00  0.00    +0.000 S 
ATOM      4  C   UNL     1       2.175   7.494  19.349  0.00  0.00    +0.000 A 
ATOM      5  N   UNL     1       1.534   8.687  19.563  0.00  0.00    +0.000 N 
ATOM      6  C   UNL     1       1.415   9.599  18.535  0.00  0.00    +0.000 C 
ATOM      7  O   UNL     1       1.773   9.451  17.375  0.00  0.00    +0.000 OA
ATOM      8  N   UNL     1       2.799   7.100  18.276  0.00  0.00    +0.000 NA
ATOM      9  H   UNL     1       1.130   8.837  20.473  0.00  0.00    +0.000 HD
ENDROOT
BRANCH   1  17
ATOM     10  C   UNL     1       2.740   3.312  17.147  0.00  0.00    +0.000 C 
ATOM     11  C   UNL     1       3.989   4.098  16.813  0.00  0.00    +0.000 A 
ATOM     12  C   UNL     1       4.830   3.538  15.831  0.00  0.00    +0.000 A 
ATOM     13  C   UNL     1       5.950   4.216  15.378  0.00  0.00    +0.000 A 
ATOM     14  C   UNL     1       6.294   5.420  15.983  0.00  0.00    +0.000 A 
ATOM     15  C   UNL     1       5.511   5.994  17.009  0.00  0.00    +0.000 A 
ATOM     16  C   UNL     1       6.016   7.290  17.586  0.00  0.00    +0.000 C 
ATOM     17  C   UNL     1       4.320   5.344  17.426  0.00  0.00    +0.000 A 
BRANCH  13  18
ATOM     18  O   UNL     1       6.770   3.812  14.363  0.00  0.00    +0.000 OA
BRANCH  18  19
ATOM     19  C   UNL     1       6.527   4.344  13.051  0.00  0.00    +0.000 C 
ATOM     20  C   UNL     1       7.747   5.089  12.508  0.00  0.00    +0.000 C 
ATOM     21  C   UNL     1       6.229   3.149  12.145  0.00  0.00    +0.000 C 
ENDBRANCH  18  19
ENDBRANCH  13  18
ENDBRANCH   1  17
BRANCH   6  22
ATOM     22  C   UNL     1       0.756  10.889  18.863  0.00  0.00    +0.000 A 
ATOM     23  C   UNL     1       1.368  12.126  18.670  0.00  0.00    +0.000 A 
ATOM     24  C   UNL     1       0.614  13.259  18.931  0.00  0.00    +0.000 A 
ATOM     25  N   UNL     1      -0.665  13.230  19.365  0.00  0.00    +0.000 NA
ATOM     26  C   UNL     1      -1.233  12.018  19.532  0.00  0.00    +0.000 A 
ATOM     27  C   UNL     1      -0.571  10.832  19.297  0.00  0.00    +0.000 A 
ENDBRANCH   6  22
TORSDOF 4
ENDMDL
MODEL 6
REMARK VINA RESULT:      -6.8      2.184      2.481
REMARK  Name = 
REMARK  8 active torsions:
REMARK  status: ('A' for Active; 'I' for Inactive)
REMARK    1  A    between atoms: C_1  and  C_2
REMARK    2  A    between atoms: C_4  and  O_5
REMARK    3  A    between atoms: O_5  and  C_6
REMARK    4  A    between atoms: C_6  and  C_7
REMARK    5  A    between atoms: C_6  and  C_8
REMARK    6  A    between atoms: C_10  and  C_11
REMARK    7  A    between atoms: C_12  and  C_13
REMARK    8  A    between atoms: C_18  and  C_20
REMARK                            x       y       z     vdW  Elec       q    Type
REMARK                         _______ _______ _______ _____ _____    ______ ____
ROOT
ATOM      1  C   UNL     1       3.192   6.117  18.457  0.00  0.00    +0.000 A 
ATOM      2  C   UNL     1       2.855   5.617  19.703  0.00  0.00    +0.000 A 
ATOM      3  S   UNL     1       1.922   6.775  20.584  0.00  0.00    +0.000 S 
ATOM      4  C   UNL     1       2.035   7.834  19.259  0.00  0.00    +0.000 A 
ATOM      5  N   UNL     1       1.480   9.077  19.430  0.00  0.00    +0.000 N 
ATOM      6  C   UNL     1       1.467   9.975  18.383  0.00  0.00    +0.000 C 
ATOM      7  O   UNL     1       1.853   9.777  17.238  0.00  0.00    +0.000 OA
ATOM      8  N   UNL     1       2.662   7.373  18.216  0.00  0.00    +0.000 NA
ATOM      9  H   UNL     1       1.058   9.276  20.322  0.00  0.00    +0.000 HD
ENDROOT
BRANCH   1  17
ATOM     10  C   UNL     1       2.423   3.501  17.264  0.00  0.00    +0.000 C 
ATOM     11  C   UNL     1       3.702   4.223  16.902  0.00  0.00    +0.000 A 
ATOM     12  C   UNL     1       4.532   3.581  15.962  0.00  0.00    +0.000 A 
ATOM     13  C   UNL     1       5.681   4.195  15.487  0.00  0.00    +0.000 A 
ATOM     14  C   UNL     1       6.061   5.417  16.029  0.00  0.00    +0.000 A 
ATOM     15  C   UNL     1       5.288   6.073  17.013  0.00  0.00    +0.000 A 
ATOM     16  C   UNL     1       5.833   7.380  17.524  0.00  0.00    +0.000 C 
ATOM     17  C   UNL     1       4.071   5.489  17.450  0.00  0.00    +0.000 A 
BRANCH  13  18
ATOM     18  O   UNL     1       6.495   3.706  14.505  0.00  0.00    +0.000 OA
BRANCH  18  19
ATOM     19  C   UNL     1       6.419   4.314  13.205  0.00  0.00    +0.000 C 
ATOM     20  C   UNL     1       7.724   5.020  12.832  0.00  0.00    +0.000 C 
ATOM     21  C   UNL     1       6.164   3.181  12.210  0.00  0.00    +0.000 C 
ENDBRANCH  18  19
ENDBRANCH  13  18
ENDBRANCH   1  17
BRANCH   6  22
ATOM     22  C   UNL     1       0.900  11.318  18.665  0.00  0.00    +0.000 A 
ATOM     23  C   UNL     1      -0.405  11.513  19.113  0.00  0.00    +0.000 A 
ATOM     24  C   UNL     1      -0.785  12.809  19.425  0.00  0.00    +0.000 A 
ATOM     25  N   UNL     1       0.027  13.882  19.312  0.00  0.00    +0.000 NA
ATOM     26  C   UNL     1       1.287  13.660  18.885  0.00  0.00    +0.000 A 
ATOM     27  C   UNL     1       1.765  12.410  18.553  0.00  0.00    +0.000 A 
ENDBRANCH   6  22
TORSDOF 4
ENDMDL
MODEL 7
REMARK VINA RESULT:      -6.8      3.596     10.275
REMARK  Name = 
REMARK  8 active torsions:
REMARK  status: ('A' for Active; 'I' for Inactive)
REMARK    1  A    between atoms: C_1  and  C_2
REMARK    2  A    between atoms: C_4  and  O_5
REMARK    3  A    between atoms: O_5  and  C_6
REMARK    4  A    between atoms: C_6  and  C_7
REMARK    5  A    between atoms: C_6  and  C_8
REMARK    6  A    between atoms: C_10  and  C_11
REMARK    7  A    between atoms: C_12  and  C_13
REMARK    8  A    between atoms: C_18  and  C_20
REMARK                            x       y       z     vdW  Elec       q    Type
REMARK                         _______ _______ _______ _____ _____    ______ ____
ROOT
ATOM      1  C   UNL     1       0.370  10.218  19.906  0.00  0.00    +0.000 A 
ATOM      2  C   UNL     1       0.866  10.862  18.786  0.00  0.00    +0.000 A 
ATOM      3  S   UNL     1       1.980   9.840  17.948  0.00  0.00    +0.000 S 
ATOM      4  C   UNL     1       1.718   8.637  19.122  0.00  0.00    +0.000 A 
ATOM      5  N   UNL     1       2.474   7.500  19.001  0.00  0.00    +0.000 N 
ATOM      6  C   UNL     1       2.277   6.447  19.870  0.00  0.00    +0.000 C 
ATOM      7  O   UNL     1       1.427   6.365  20.747  0.00  0.00    +0.000 OA
ATOM      8  N   UNL     1       0.842   8.924  20.041  0.00  0.00    +0.000 NA
ATOM      9  H   UNL     1       3.131   7.460  18.239  0.00  0.00    +0.000 HD
ENDROOT
BRANCH   1  17
ATOM     10  C   UNL     1      -1.704  12.210  19.136  0.00  0.00    +0.000 C 
ATOM     11  C   UNL     1      -1.492  11.756  20.564  0.00  0.00    +0.000 A 
ATOM     12  C   UNL     1      -2.334  12.340  21.531  0.00  0.00    +0.000 A 
ATOM     13  C   UNL     1      -2.292  11.931  22.855  0.00  0.00    +0.000 A 
ATOM     14  C   UNL     1      -1.331  11.002  23.239  0.00  0.00    +0.000 A 
ATOM     15  C   UNL     1      -0.430  10.430  22.313  0.00  0.00    +0.000 A 
ATOM     16  C   UNL     1       0.569   9.454  22.875  0.00  0.00    +0.000 C 
ATOM     17  C   UNL     1      -0.516  10.785  20.943  0.00  0.00    +0.000 A 
BRANCH  13  18
ATOM     18  O   UNL     1      -3.130  12.356  23.846  0.00  0.00    +0.000 OA
BRANCH  18  19
ATOM     19  C   UNL     1      -4.097  13.367  23.520  0.00  0.00    +0.000 C 
ATOM     20  C   UNL     1      -5.507  12.963  23.953  0.00  0.00    +0.000 C 
ATOM     21  C   UNL     1      -3.683  14.626  24.284  0.00  0.00    +0.000 C 
ENDBRANCH  18  19
ENDBRANCH  13  18
ENDBRANCH   1  17
BRANCH   6  22
ATOM     22  C   UNL     1       3.173   5.274  19.709  0.00  0.00    +0.000 A 
ATOM     23  C   UNL     1       4.443   5.358  19.140  0.00  0.00    +0.000 A 
ATOM     24  C   UNL     1       5.214   4.208  19.128  0.00  0.00    +0.000 A 
ATOM     25  N   UNL     1       4.807   3.020  19.625  0.00  0.00    +0.000 NA
ATOM     26  C   UNL     1       3.578   2.972  20.179  0.00  0.00    +0.000 A 
ATOM     27  C   UNL     1       2.733   4.060  20.244  0.00  0.00    +0.000 A 
ENDBRANCH   6  22
TORSDOF 4
ENDMDL
MODEL 8
REMARK VINA RESULT:      -6.8      2.135      2.842
REMARK  Name = 
REMARK  8 active torsions:
REMARK  status: ('A' for Active; 'I' for Inactive)
REMARK    1  A    between atoms: C_1  and  C_2
REMARK    2  A    between atoms: C_4  and  O_5
REMARK    3  A    between atoms: O_5  and  C_6
REMARK    4  A    between atoms: C_6  and  C_7
REMARK    5  A    between atoms: C_6  and  C_8
REMARK    6  A    between atoms: C_10  and  C_11
REMARK    7  A    between atoms: C_12  and  C_13
REMARK    8  A    between atoms: C_18  and  C_20
REMARK                            x       y       z     vdW  Elec       q    Type
REMARK                         _______ _______ _______ _____ _____    ______ ____
ROOT
ATOM      1  C   UNL     1       3.342   5.863  18.389  0.00  0.00    +0.000 A 
ATOM      2  C   UNL     1       3.177   5.348  19.663  0.00  0.00    +0.000 A 
ATOM      3  S   UNL     1       2.265   6.443  20.642  0.00  0.00    +0.000 S 
ATOM      4  C   UNL     1       2.161   7.500  19.313  0.00  0.00    +0.000 A 
ATOM      5  N   UNL     1       1.543   8.703  19.545  0.00  0.00    +0.000 N 
ATOM      6  C   UNL     1       1.356   9.592  18.507  0.00  0.00    +0.000 C 
ATOM      7  O   UNL     1       1.629   9.413  17.327  0.00  0.00    +0.000 OA
ATOM      8  N   UNL     1       2.704   7.077  18.209  0.00  0.00    +0.000 NA
ATOM      9  H   UNL     1       1.207   8.877  20.478  0.00  0.00    +0.000 HD
ENDROOT
BRANCH   1  17
ATOM     10  C   UNL     1       5.691   7.371  17.355  0.00  0.00    +0.000 C 
ATOM     11  C   UNL     1       5.261   6.035  16.791  0.00  0.00    +0.000 A 
ATOM     12  C   UNL     1       6.035   5.533  15.725  0.00  0.00    +0.000 A 
ATOM     13  C   UNL     1       5.790   4.277  15.194  0.00  0.00    +0.000 A 
ATOM     14  C   UNL     1       4.698   3.553  15.661  0.00  0.00    +0.000 A 
ATOM     15  C   UNL     1       3.862   4.040  16.690  0.00  0.00    +0.000 A 
ATOM     16  C   UNL     1       2.705   3.158  17.079  0.00  0.00    +0.000 C 
ATOM     17  C   UNL     1       4.150   5.291  17.293  0.00  0.00    +0.000 A 
BRANCH  13  18
ATOM     18  O   UNL     1       6.541   3.658  14.236  0.00  0.00    +0.000 OA
BRANCH  18  19
ATOM     19  C   UNL     1       6.337   4.046  12.868  0.00  0.00    +0.000 C 
ATOM     20  C   UNL     1       7.580   4.715  12.278  0.00  0.00    +0.000 C 
ATOM     21  C   UNL     1       6.046   2.762  12.091  0.00  0.00    +0.000 C 
ENDBRANCH  18  19
ENDBRANCH  13  18
ENDBRANCH   1  17
BRANCH   6  22
ATOM     22  C   UNL     1       0.730  10.893  18.850  0.00  0.00    +0.000 A 
ATOM     23  C   UNL     1       1.447  12.086  18.930  0.00  0.00    +0.000 A 
ATOM     24  C   UNL     1       0.731  13.247  19.171  0.00  0.00    +0.000 A 
ATOM     25  N   UNL     1      -0.609  13.286  19.339  0.00  0.00    +0.000 NA
ATOM     26  C   UNL     1      -1.277  12.118  19.246  0.00  0.00    +0.000 A 
ATOM     27  C   UNL     1      -0.659  10.909  19.006  0.00  0.00    +0.000 A 
ENDBRANCH   6  22
TORSDOF 4
ENDMDL
MODEL 9
REMARK VINA RESULT:      -6.7      3.636     10.150
REMARK  Name = 
REMARK  8 active torsions:
REMARK  status: ('A' for Active; 'I' for Inactive)
REMARK    1  A    between atoms: C_1  and  C_2
REMARK    2  A    between atoms: C_4  and  O_5
REMARK    3  A    between atoms: O_5  and  C_6
REMARK    4  A    between atoms: C_6  and  C_7
REMARK    5  A    between atoms: C_6  and  C_8
REMARK    6  A    between atoms: C_10  and  C_11
REMARK    7  A    between atoms: C_12  and  C_13
REMARK    8  A    between atoms: C_18  and  C_20
REMARK                            x       y       z     vdW  Elec       q    Type
REMARK                         _______ _______ _______ _____ _____    ______ ____
ROOT
ATOM      1  C   UNL     1       0.535  10.061  19.759  0.00  0.00    +0.000 A 
ATOM      2  C   UNL     1       1.070  10.573  18.590  0.00  0.00    +0.000 A 
ATOM      3  S   UNL     1       2.125   9.419  17.854  0.00  0.00    +0.000 S 
ATOM      4  C   UNL     1       1.791   8.343  19.128  0.00  0.00    +0.000 A 
ATOM      5  N   UNL     1       2.481   7.157  19.114  0.00  0.00    +0.000 N 
ATOM      6  C   UNL     1       2.223   6.199  20.072  0.00  0.00    +0.000 C 
ATOM      7  O   UNL     1       1.367   6.244  20.946  0.00  0.00    +0.000 OA
ATOM      8  N   UNL     1       0.932   8.760  20.011  0.00  0.00    +0.000 NA
ATOM      9  H   UNL     1       3.137   7.013  18.363  0.00  0.00    +0.000 HD
ENDROOT
BRANCH   1  17
ATOM     10  C   UNL     1       0.809   9.454  22.660  0.00  0.00    +0.000 C 
ATOM     11  C   UNL     1      -0.193  10.451  22.122  0.00  0.00    +0.000 A 
ATOM     12  C   UNL     1      -1.013  11.084  23.078  0.00  0.00    +0.000 A 
ATOM     13  C   UNL     1      -1.900  12.083  22.708  0.00  0.00    +0.000 A 
ATOM     14  C   UNL     1      -2.046  12.384  21.359  0.00  0.00    +0.000 A 
ATOM     15  C   UNL     1      -1.284  11.737  20.360  0.00  0.00    +0.000 A 
ATOM     16  C   UNL     1      -1.563  12.150  18.939  0.00  0.00    +0.000 C 
ATOM     17  C   UNL     1      -0.319  10.768  20.735  0.00  0.00    +0.000 A 
BRANCH  13  18
ATOM     18  O   UNL     1      -2.661  12.827  23.564  0.00  0.00    +0.000 OA
BRANCH  18  19
ATOM     19  C   UNL     1      -4.090  12.703  23.473  0.00  0.00    +0.000 C 
ATOM     20  C   UNL     1      -4.703  12.248  24.799  0.00  0.00    +0.000 C 
ATOM     21  C   UNL     1      -4.625  14.093  23.128  0.00  0.00    +0.000 C 
ENDBRANCH  18  19
ENDBRANCH  13  18
ENDBRANCH   1  17
BRANCH   6  22
ATOM     22  C   UNL     1       3.050   4.967  20.021  0.00  0.00    +0.000 A 
ATOM     23  C   UNL     1       2.635   3.749  20.558  0.00  0.00    +0.000 A 
ATOM     24  C   UNL     1       3.461   2.654  20.367  0.00  0.00    +0.000 A 
ATOM     25  N   UNL     1       4.636   2.701  19.703  0.00  0.00    +0.000 NA
ATOM     26  C   UNL     1       5.006   3.891  19.186  0.00  0.00    +0.000 A 
ATOM     27  C   UNL     1       4.255   5.040  19.317  0.00  0.00    +0.000 A 
ENDBRANCH   6  22
TORSDOF 4
ENDMDL
