MODEL 1
REMARK VINA RESULT:      -6.4      0.000      0.000
REMARK  Name = 
REMARK  12 active torsions:
REMARK  status: ('A' for Active; 'I' for Inactive)
REMARK    1  A    between atoms: C_1  and  C_2
REMARK    2  A    between atoms: C_2  and  O_3
REMARK    3  A    between atoms: O_3  and  C_4
REMARK    4  A    between atoms: C_4  and  C_6
REMARK    5  A    between atoms: C_10  and  O_11
REMARK    6  A    between atoms: O_11  and  C_12
REMARK    7  A    between atoms: N_17  and  C_18
REMARK    8  A    between atoms: C_18  and  C_19
REMARK    9  A    between atoms: C_19  and  O_21
REMARK   10  A    between atoms: O_21  and  C_22
REMARK   11  A    between atoms: C_27  and  O_28
REMARK   12  A    between atoms: O_28  and  C_29
REMARK                            x       y       z     vdW  Elec       q    Type
REMARK                         _______ _______ _______ _____ _____    ______ ____
ROOT
ATOM      1  C   UNL     1      -3.014  12.331  19.669  0.00  0.00    +0.000 C 
ATOM      2  C   UNL     1      -2.431  13.429  20.755  0.00  0.00    +0.000 C 
ATOM      3  C   UNL     1      -3.452  13.754  21.768  0.00  0.00    +0.000 A 
ATOM      4  C   UNL     1      -3.241  14.537  22.899  0.00  0.00    +0.000 A 
ATOM      5  C   UNL     1      -4.262  14.681  23.827  0.00  0.00    +0.000 A 
ATOM      6  C   UNL     1      -5.477  14.035  23.589  0.00  0.00    +0.000 A 
ATOM      7  C   UNL     1      -5.642  13.208  22.454  0.00  0.00    +0.000 A 
ATOM      8  C   UNL     1      -4.606  13.064  21.535  0.00  0.00    +0.000 A 
ATOM      9  C   UNL     1      -4.476  12.248  20.270  0.00  0.00    +0.000 C 
ATOM     10  N   UNL     1      -5.452  12.699  19.206  0.00  0.00    +0.000 N 
ATOM     11  C   UNL     1      -5.470  12.082  17.966  0.00  0.00    +0.000 C 
ATOM     12  O   UNL     1      -6.467  12.005  17.256  0.00  0.00    +0.000 OA
ATOM     13  C   UNL     1      -4.185  11.536  17.511  0.00  0.00    +0.000 A 
ATOM     14  C   UNL     1      -4.060  11.111  16.176  0.00  0.00    +0.000 A 
ATOM     15  C   UNL     1      -2.920  10.433  15.764  0.00  0.00    +0.000 A 
ATOM     16  C   UNL     1      -2.070   9.950  16.742  0.00  0.00    +0.000 A 
ATOM     17  C   UNL     1      -2.228  10.368  18.065  0.00  0.00    +0.000 A 
ATOM     18  C   UNL     1      -3.132  11.401  18.413  0.00  0.00    +0.000 A 
ENDROOT
BRANCH   1  19
ATOM     19  C   UNL     1      -1.416  12.235  19.567  0.00  0.00    +0.000 C 
ATOM     20  O   UNL     1      -0.690  12.730  18.701  0.00  0.00    +0.000 OA
BRANCH  19  21
ATOM     21  O   UNL     1      -0.957  11.526  20.669  0.00  0.00    +0.000 OA
BRANCH  21  23
ATOM     22  C   UNL     1       0.259   9.413  20.671  0.00  0.00    +0.000 C 
ATOM     23  C   UNL     1       0.342  10.926  20.580  0.00  0.00    +0.000 C 
ENDBRANCH  21  23
ENDBRANCH  19  21
ENDBRANCH   1  19
BRANCH   5  24
ATOM     24  O   UNL     1      -3.924  15.447  24.905  0.00  0.00    +0.000 OA
ATOM     25  C   UNL     1      -2.667  15.206  25.519  0.00  0.00    +0.000 C 
ENDBRANCH   5  24
BRANCH  15  26
ATOM     26  O   UNL     1      -2.745  10.272  14.419  0.00  0.00    +0.000 OA
ATOM     27  C   UNL     1      -3.927   9.967  13.678  0.00  0.00    +0.000 C 
ENDBRANCH  15  26
BRANCH  10  28
ATOM     28  C   UNL     1      -6.543  13.661  19.410  0.00  0.00    +0.000 C 
BRANCH  28  29
ATOM     29  C   UNL     1      -6.291  15.122  19.046  0.00  0.00    +0.000 C 
ATOM     30  O   UNL     1      -5.798  15.923  19.824  0.00  0.00    +0.000 OA
BRANCH  29  31
ATOM     31  O   UNL     1      -6.703  15.420  17.783  0.00  0.00    +0.000 OA
ATOM     32  C   UNL     1      -6.860  16.816  17.522  0.00  0.00    +0.000 C 
ENDBRANCH  29  31
ENDBRANCH  28  29
ENDBRANCH  10  28
TORSDOF 8
ENDMDL
MODEL 2
REMARK VINA RESULT:      -6.2      2.343      7.695
REMARK  Name = 
REMARK  12 active torsions:
REMARK  status: ('A' for Active; 'I' for Inactive)
REMARK    1  A    between atoms: C_1  and  C_2
REMARK    2  A    between atoms: C_2  and  O_3
REMARK    3  A    between atoms: O_3  and  C_4
REMARK    4  A    between atoms: C_4  and  C_6
REMARK    5  A    between atoms: C_10  and  O_11
REMARK    6  A    between atoms: O_11  and  C_12
REMARK    7  A    between atoms: N_17  and  C_18
REMARK    8  A    between atoms: C_18  and  C_19
REMARK    9  A    between atoms: C_19  and  O_21
REMARK   10  A    between atoms: O_21  and  C_22
REMARK   11  A    between atoms: C_27  and  O_28
REMARK   12  A    between atoms: O_28  and  C_29
REMARK                            x       y       z     vdW  Elec       q    Type
REMARK                         _______ _______ _______ _____ _____    ______ ____
ROOT
ATOM      1  C   UNL     1      -2.670  12.755  21.142  0.00  0.00    +0.000 C 
ATOM      2  C   UNL     1      -3.430  12.444  19.710  0.00  0.00    +0.000 C 
ATOM      3  C   UNL     1      -2.598  11.579  18.854  0.00  0.00    +0.000 A 
ATOM      4  C   UNL     1      -2.999  11.020  17.644  0.00  0.00    +0.000 A 
ATOM      5  C   UNL     1      -2.153  10.140  16.986  0.00  0.00    +0.000 A 
ATOM      6  C   UNL     1      -0.916   9.846  17.564  0.00  0.00    +0.000 A 
ATOM      7  C   UNL     1      -0.558  10.394  18.817  0.00  0.00    +0.000 A 
ATOM      8  C   UNL     1      -1.421  11.270  19.471  0.00  0.00    +0.000 A 
ATOM      9  C   UNL     1      -1.333  11.979  20.803  0.00  0.00    +0.000 C 
ATOM     10  N   UNL     1      -0.189  12.967  20.839  0.00  0.00    +0.000 N 
ATOM     11  C   UNL     1       0.042  13.730  21.972  0.00  0.00    +0.000 C 
ATOM     12  O   UNL     1       1.146  14.153  22.298  0.00  0.00    +0.000 OA
ATOM     13  C   UNL     1      -1.146  14.047  22.775  0.00  0.00    +0.000 A 
ATOM     14  C   UNL     1      -1.040  15.006  23.799  0.00  0.00    +0.000 A 
ATOM     15  C   UNL     1      -2.092  15.201  24.684  0.00  0.00    +0.000 A 
ATOM     16  C   UNL     1      -3.098  14.251  24.706  0.00  0.00    +0.000 A 
ATOM     17  C   UNL     1      -3.169  13.294  23.692  0.00  0.00    +0.000 A 
ATOM     18  C   UNL     1      -2.338  13.363  22.548  0.00  0.00    +0.000 A 
ENDROOT
BRANCH   1  19
ATOM     19  C   UNL     1      -4.226  13.035  21.409  0.00  0.00    +0.000 C 
ATOM     20  O   UNL     1      -5.070  12.238  21.826  0.00  0.00    +0.000 OA
BRANCH  19  21
ATOM     21  O   UNL     1      -4.475  14.375  21.136  0.00  0.00    +0.000 OA
BRANCH  21  23
ATOM     22  C   UNL     1      -5.831  15.738  22.632  0.00  0.00    +0.000 C 
ATOM     23  C   UNL     1      -5.796  14.870  21.388  0.00  0.00    +0.000 C 
ENDBRANCH  21  23
ENDBRANCH  19  21
ENDBRANCH   1  19
BRANCH   5  24
ATOM     24  O   UNL     1      -2.671   9.637  15.828  0.00  0.00    +0.000 OA
ATOM     25  C   UNL     1      -3.252  10.553  14.912  0.00  0.00    +0.000 C 
ENDBRANCH   5  24
BRANCH  15  26
ATOM     26  O   UNL     1      -2.034  16.304  25.485  0.00  0.00    +0.000 OA
ATOM     27  C   UNL     1      -0.963  16.322  26.430  0.00  0.00    +0.000 C 
ENDBRANCH  15  26
BRANCH  10  28
ATOM     28  C   UNL     1       0.852  13.098  19.810  0.00  0.00    +0.000 C 
BRANCH  28  29
ATOM     29  C   UNL     1       0.872  14.370  18.966  0.00  0.00    +0.000 C 
ATOM     30  O   UNL     1       1.904  14.904  18.597  0.00  0.00    +0.000 OA
BRANCH  29  31
ATOM     31  O   UNL     1      -0.380  14.840  18.708  0.00  0.00    +0.000 OA
ATOM     32  C   UNL     1      -0.619  16.174  19.158  0.00  0.00    +0.000 C 
ENDBRANCH  29  31
ENDBRANCH  28  29
ENDBRANCH  10  28
TORSDOF 8
ENDMDL
MODEL 3
REMARK VINA RESULT:      -6.2      0.984      1.474
REMARK  Name = 
REMARK  12 active torsions:
REMARK  status: ('A' for Active; 'I' for Inactive)
REMARK    1  A    between atoms: C_1  and  C_2
REMARK    2  A    between atoms: C_2  and  O_3
REMARK    3  A    between atoms: O_3  and  C_4
REMARK    4  A    between atoms: C_4  and  C_6
REMARK    5  A    between atoms: C_10  and  O_11
REMARK    6  A    between atoms: O_11  and  C_12
REMARK    7  A    between atoms: N_17  and  C_18
REMARK    8  A    between atoms: C_18  and  C_19
REMARK    9  A    between atoms: C_19  and  O_21
REMARK   10  A    between atoms: O_21  and  C_22
REMARK   11  A    between atoms: C_27  and  O_28
REMARK   12  A    between atoms: O_28  and  C_29
REMARK                            x       y       z     vdW  Elec       q    Type
REMARK                         _______ _______ _______ _____ _____    ______ ____
ROOT
ATOM      1  C   UNL     1      -3.050  12.464  19.768  0.00  0.00    +0.000 C 
ATOM      2  C   UNL     1      -2.532  13.630  20.815  0.00  0.00    +0.000 C 
ATOM      3  C   UNL     1      -3.570  13.930  21.820  0.00  0.00    +0.000 A 
ATOM      4  C   UNL     1      -3.405  14.762  22.922  0.00  0.00    +0.000 A 
ATOM      5  C   UNL     1      -4.432  14.878  23.848  0.00  0.00    +0.000 A 
ATOM      6  C   UNL     1      -5.607  14.153  23.635  0.00  0.00    +0.000 A 
ATOM      7  C   UNL     1      -5.724  13.281  22.528  0.00  0.00    +0.000 A 
ATOM      8  C   UNL     1      -4.682  13.166  21.612  0.00  0.00    +0.000 A 
ATOM      9  C   UNL     1      -4.504  12.316  20.375  0.00  0.00    +0.000 C 
ATOM     10  N   UNL     1      -5.505  12.674  19.299  0.00  0.00    +0.000 N 
ATOM     11  C   UNL     1      -5.488  12.015  18.081  0.00  0.00    +0.000 C 
ATOM     12  O   UNL     1      -6.479  11.855  17.376  0.00  0.00    +0.000 OA
ATOM     13  C   UNL     1      -4.173  11.529  17.642  0.00  0.00    +0.000 A 
ATOM     14  C   UNL     1      -4.024  11.067  16.321  0.00  0.00    +0.000 A 
ATOM     15  C   UNL     1      -2.847  10.443  15.929  0.00  0.00    +0.000 A 
ATOM     16  C   UNL     1      -1.969  10.044  16.922  0.00  0.00    +0.000 A 
ATOM     17  C   UNL     1      -2.151  10.497  18.230  0.00  0.00    +0.000 A 
ATOM     18  C   UNL     1      -3.114  11.487  18.545  0.00  0.00    +0.000 A 
ENDROOT
BRANCH   1  19
ATOM     19  C   UNL     1      -1.449  12.458  19.666  0.00  0.00    +0.000 C 
ATOM     20  O   UNL     1      -0.655  11.851  20.388  0.00  0.00    +0.000 OA
BRANCH  19  21
ATOM     21  O   UNL     1      -1.086  13.228  18.568  0.00  0.00    +0.000 OA
BRANCH  21  23
ATOM     22  C   UNL     1       0.519  15.006  19.018  0.00  0.00    +0.000 C 
ATOM     23  C   UNL     1       0.289  13.616  18.454  0.00  0.00    +0.000 C 
ENDBRANCH  21  23
ENDBRANCH  19  21
ENDBRANCH   1  19
BRANCH   5  24
ATOM     24  O   UNL     1      -4.139  15.698  24.898  0.00  0.00    +0.000 OA
ATOM     25  C   UNL     1      -4.767  16.970  24.939  0.00  0.00    +0.000 C 
ENDBRANCH   5  24
BRANCH  15  26
ATOM     26  O   UNL     1      -2.663  10.247  14.591  0.00  0.00    +0.000 OA
ATOM     27  C   UNL     1      -3.854  10.044  13.831  0.00  0.00    +0.000 C 
ENDBRANCH  15  26
BRANCH  10  28
ATOM     28  C   UNL     1      -6.651  13.576  19.473  0.00  0.00    +0.000 C 
BRANCH  28  29
ATOM     29  C   UNL     1      -6.514  15.015  18.979  0.00  0.00    +0.000 C 
ATOM     30  O   UNL     1      -5.692  15.795  19.432  0.00  0.00    +0.000 OA
BRANCH  29  31
ATOM     31  O   UNL     1      -7.423  15.320  18.013  0.00  0.00    +0.000 OA
ATOM     32  C   UNL     1      -6.921  15.244  16.678  0.00  0.00    +0.000 C 
ENDBRANCH  29  31
ENDBRANCH  28  29
ENDBRANCH  10  28
TORSDOF 8
ENDMDL
MODEL 4
REMARK VINA RESULT:      -6.1      2.293      7.673
REMARK  Name = 
REMARK  12 active torsions:
REMARK  status: ('A' for Active; 'I' for Inactive)
REMARK    1  A    between atoms: C_1  and  C_2
REMARK    2  A    between atoms: C_2  and  O_3
REMARK    3  A    between atoms: O_3  and  C_4
REMARK    4  A    between atoms: C_4  and  C_6
REMARK    5  A    between atoms: C_10  and  O_11
REMARK    6  A    between atoms: O_11  and  C_12
REMARK    7  A    between atoms: N_17  and  C_18
REMARK    8  A    between atoms: C_18  and  C_19
REMARK    9  A    between atoms: C_19  and  O_21
REMARK   10  A    between atoms: O_21  and  C_22
REMARK   11  A    between atoms: C_27  and  O_28
REMARK   12  A    between atoms: O_28  and  C_29
REMARK                            x       y       z     vdW  Elec       q    Type
REMARK                         _______ _______ _______ _____ _____    ______ ____
ROOT
ATOM      1  C   UNL     1      -3.209  12.924  21.195  0.00  0.00    +0.000 C 
ATOM      2  C   UNL     1      -4.043  12.819  19.774  0.00  0.00    +0.000 C 
ATOM      3  C   UNL     1      -3.350  11.929  18.825  0.00  0.00    +0.000 A 
ATOM      4  C   UNL     1      -3.852  11.518  17.594  0.00  0.00    +0.000 A 
ATOM      5  C   UNL     1      -3.140  10.596  16.841  0.00  0.00    +0.000 A 
ATOM      6  C   UNL     1      -1.932  10.112  17.347  0.00  0.00    +0.000 A 
ATOM      7  C   UNL     1      -1.472  10.514  18.623  0.00  0.00    +0.000 A 
ATOM      8  C   UNL     1      -2.202  11.434  19.372  0.00  0.00    +0.000 A 
ATOM      9  C   UNL     1      -1.988  12.022  20.748  0.00  0.00    +0.000 C 
ATOM     10  N   UNL     1      -0.730  12.860  20.812  0.00  0.00    +0.000 N 
ATOM     11  C   UNL     1      -0.375  13.498  21.989  0.00  0.00    +0.000 C 
ATOM     12  O   UNL     1       0.782  13.759  22.301  0.00  0.00    +0.000 OA
ATOM     13  C   UNL     1      -1.490  13.893  22.858  0.00  0.00    +0.000 A 
ATOM     14  C   UNL     1      -1.237  14.750  23.944  0.00  0.00    +0.000 A 
ATOM     15  C   UNL     1      -2.231  15.001  24.882  0.00  0.00    +0.000 A 
ATOM     16  C   UNL     1      -3.345  14.180  24.873  0.00  0.00    +0.000 A 
ATOM     17  C   UNL     1      -3.563  13.320  23.795  0.00  0.00    +0.000 A 
ATOM     18  C   UNL     1      -2.763  13.377  22.627  0.00  0.00    +0.000 A 
ENDROOT
BRANCH   1  19
ATOM     19  C   UNL     1      -4.711  13.368  21.541  0.00  0.00    +0.000 C 
ATOM     20  O   UNL     1      -5.178  14.509  21.520  0.00  0.00    +0.000 OA
BRANCH  19  21
ATOM     21  O   UNL     1      -5.442  12.223  21.829  0.00  0.00    +0.000 OA
BRANCH  21  23
ATOM     22  C   UNL     1      -7.270  12.446  23.425  0.00  0.00    +0.000 C 
ATOM     23  C   UNL     1      -6.862  12.358  21.966  0.00  0.00    +0.000 C 
ENDBRANCH  21  23
ENDBRANCH  19  21
ENDBRANCH   1  19
BRANCH   5  24
ATOM     24  O   UNL     1      -3.750  10.251  15.670  0.00  0.00    +0.000 OA
ATOM     25  C   UNL     1      -2.931  10.081  14.524  0.00  0.00    +0.000 C 
ENDBRANCH   5  24
BRANCH  15  26
ATOM     26  O   UNL     1      -2.014  16.024  25.759  0.00  0.00    +0.000 OA
ATOM     27  C   UNL     1      -0.746  16.012  26.415  0.00  0.00    +0.000 C 
ENDBRANCH  15  26
BRANCH  10  28
ATOM     28  C   UNL     1       0.288  12.943  19.756  0.00  0.00    +0.000 C 
BRANCH  28  29
ATOM     29  C   UNL     1       0.413  14.254  18.982  0.00  0.00    +0.000 C 
ATOM     30  O   UNL     1      -0.542  14.967  18.728  0.00  0.00    +0.000 OA
BRANCH  29  31
ATOM     31  O   UNL     1       1.694  14.504  18.593  0.00  0.00    +0.000 OA
ATOM     32  C   UNL     1       2.104  15.865  18.737  0.00  0.00    +0.000 C 
ENDBRANCH  29  31
ENDBRANCH  28  29
ENDBRANCH  10  28
TORSDOF 8
ENDMDL
MODEL 5
REMARK VINA RESULT:      -6.1      2.218      7.755
REMARK  Name = 
REMARK  12 active torsions:
REMARK  status: ('A' for Active; 'I' for Inactive)
REMARK    1  A    between atoms: C_1  and  C_2
REMARK    2  A    between atoms: C_2  and  O_3
REMARK    3  A    between atoms: O_3  and  C_4
REMARK    4  A    between atoms: C_4  and  C_6
REMARK    5  A    between atoms: C_10  and  O_11
REMARK    6  A    between atoms: O_11  and  C_12
REMARK    7  A    between atoms: N_17  and  C_18
REMARK    8  A    between atoms: C_18  and  C_19
REMARK    9  A    between atoms: C_19  and  O_21
REMARK   10  A    between atoms: O_21  and  C_22
REMARK   11  A    between atoms: C_27  and  O_28
REMARK   12  A    between atoms: O_28  and  C_29
REMARK                            x       y       z     vdW  Elec       q    Type
REMARK                         _______ _______ _______ _____ _____    ______ ____
ROOT
ATOM      1  C   UNL     1      -3.482  12.525  20.641  0.00  0.00    +0.000 C 
ATOM      2  C   UNL     1      -4.306  12.549  19.211  0.00  0.00    +0.000 C 
ATOM      3  C   UNL     1      -3.623  11.720  18.200  0.00  0.00    +0.000 A 
ATOM      4  C   UNL     1      -4.123  11.417  16.937  0.00  0.00    +0.000 A 
ATOM      5  C   UNL     1      -3.424  10.540  16.121  0.00  0.00    +0.000 A 
ATOM      6  C   UNL     1      -2.231   9.992  16.596  0.00  0.00    +0.000 A 
ATOM      7  C   UNL     1      -1.775  10.284  17.902  0.00  0.00    +0.000 A 
ATOM      8  C   UNL     1      -2.491  11.159  18.716  0.00  0.00    +0.000 A 
ATOM      9  C   UNL     1      -2.277  11.633  20.135  0.00  0.00    +0.000 C 
ATOM     10  N   UNL     1      -1.002  12.436  20.273  0.00  0.00    +0.000 N 
ATOM     11  C   UNL     1      -0.643  12.973  21.498  0.00  0.00    +0.000 C 
ATOM     12  O   UNL     1       0.516  13.184  21.839  0.00  0.00    +0.000 OA
ATOM     13  C   UNL     1      -1.758  13.324  22.387  0.00  0.00    +0.000 A 
ATOM     14  C   UNL     1      -1.496  14.089  23.538  0.00  0.00    +0.000 A 
ATOM     15  C   UNL     1      -2.493  14.288  24.485  0.00  0.00    +0.000 A 
ATOM     16  C   UNL     1      -3.624  13.495  24.404  0.00  0.00    +0.000 A 
ATOM     17  C   UNL     1      -3.851  12.727  23.261  0.00  0.00    +0.000 A 
ATOM     18  C   UNL     1      -3.040  12.856  22.108  0.00  0.00    +0.000 A 
ENDROOT
BRANCH   1  19
ATOM     19  C   UNL     1      -4.977  12.974  21.010  0.00  0.00    +0.000 C 
ATOM     20  O   UNL     1      -5.380  14.117  21.242  0.00  0.00    +0.000 OA
BRANCH  19  21
ATOM     21  O   UNL     1      -5.786  11.845  20.976  0.00  0.00    +0.000 OA
BRANCH  21  23
ATOM     22  C   UNL     1      -7.883  10.667  21.365  0.00  0.00    +0.000 C 
ATOM     23  C   UNL     1      -7.161  12.002  21.348  0.00  0.00    +0.000 C 
ENDBRANCH  21  23
ENDBRANCH  19  21
ENDBRANCH   1  19
BRANCH   5  24
ATOM     24  O   UNL     1      -4.031  10.301  14.922  0.00  0.00    +0.000 OA
ATOM     25  C   UNL     1      -3.203   9.974  13.816  0.00  0.00    +0.000 C 
ENDBRANCH   5  24
BRANCH  15  26
ATOM     26  O   UNL     1      -2.262  15.235  25.441  0.00  0.00    +0.000 OA
ATOM     27  C   UNL     1      -2.895  16.496  25.221  0.00  0.00    +0.000 C 
ENDBRANCH  15  26
BRANCH  10  28
ATOM     28  C   UNL     1       0.027  12.578  19.234  0.00  0.00    +0.000 C 
BRANCH  28  29
ATOM     29  C   UNL     1       1.181  11.579  19.224  0.00  0.00    +0.000 C 
ATOM     30  O   UNL     1       1.147  10.521  19.831  0.00  0.00    +0.000 OA
BRANCH  29  31
ATOM     31  O   UNL     1       2.243  12.021  18.495  0.00  0.00    +0.000 OA
ATOM     32  C   UNL     1       2.310  13.440  18.343  0.00  0.00    +0.000 C 
ENDBRANCH  29  31
ENDBRANCH  28  29
ENDBRANCH  10  28
TORSDOF 8
ENDMDL
MODEL 6
REMARK VINA RESULT:      -6.1      2.360      7.552
REMARK  Name = 
REMARK  12 active torsions:
REMARK  status: ('A' for Active; 'I' for Inactive)
REMARK    1  A    between atoms: C_1  and  C_2
REMARK    2  A    between atoms: C_2  and  O_3
REMARK    3  A    between atoms: O_3  and  C_4
REMARK    4  A    between atoms: C_4  and  C_6
REMARK    5  A    between atoms: C_10  and  O_11
REMARK    6  A    between atoms: O_11  and  C_12
REMARK    7  A    between atoms: N_17  and  C_18
REMARK    8  A    between atoms: C_18  and  C_19
REMARK    9  A    between atoms: C_19  and  O_21
REMARK   10  A    between atoms: O_21  and  C_22
REMARK   11  A    between atoms: C_27  and  O_28
REMARK   12  A    between atoms: O_28  and  C_29
REMARK                            x       y       z     vdW  Elec       q    Type
REMARK                         _______ _______ _______ _____ _____    ______ ____
ROOT
ATOM      1  C   UNL     1      -2.865  12.882  20.972  0.00  0.00    +0.000 C 
ATOM      2  C   UNL     1      -3.534  12.589  19.492  0.00  0.00    +0.000 C 
ATOM      3  C   UNL     1      -2.697  11.654  18.717  0.00  0.00    +0.000 A 
ATOM      4  C   UNL     1      -3.042  11.096  17.490  0.00  0.00    +0.000 A 
ATOM      5  C   UNL     1      -2.207  10.149  16.913  0.00  0.00    +0.000 A 
ATOM      6  C   UNL     1      -1.038   9.792  17.588  0.00  0.00    +0.000 A 
ATOM      7  C   UNL     1      -0.741  10.344  18.856  0.00  0.00    +0.000 A 
ATOM      8  C   UNL     1      -1.592  11.285  19.427  0.00  0.00    +0.000 A 
ATOM      9  C   UNL     1      -1.559  12.017  20.750  0.00  0.00    +0.000 C 
ATOM     10  N   UNL     1      -0.360  12.932  20.856  0.00  0.00    +0.000 N 
ATOM     11  C   UNL     1      -0.166  13.703  21.991  0.00  0.00    +0.000 C 
ATOM     12  O   UNL     1       0.935  14.063  22.392  0.00  0.00    +0.000 OA
ATOM     13  C   UNL     1      -1.388  14.111  22.695  0.00  0.00    +0.000 A 
ATOM     14  C   UNL     1      -1.298  15.084  23.707  0.00  0.00    +0.000 A 
ATOM     15  C   UNL     1      -2.399  15.364  24.506  0.00  0.00    +0.000 A 
ATOM     16  C   UNL     1      -3.462  14.479  24.468  0.00  0.00    +0.000 A 
ATOM     17  C   UNL     1      -3.519  13.507  23.467  0.00  0.00    +0.000 A 
ATOM     18  C   UNL     1      -2.601  13.499  22.389  0.00  0.00    +0.000 A 
ENDROOT
BRANCH   1  19
ATOM     19  C   UNL     1      -4.416  13.265  21.115  0.00  0.00    +0.000 C 
ATOM     20  O   UNL     1      -4.923  14.386  21.016  0.00  0.00    +0.000 OA
BRANCH  19  21
ATOM     21  O   UNL     1      -5.131  12.093  21.323  0.00  0.00    +0.000 OA
BRANCH  21  23
ATOM     22  C   UNL     1      -7.129  11.343  20.145  0.00  0.00    +0.000 C 
ATOM     23  C   UNL     1      -6.562  12.171  21.283  0.00  0.00    +0.000 C 
ENDBRANCH  21  23
ENDBRANCH  19  21
ENDBRANCH   1  19
BRANCH   5  24
ATOM     24  O   UNL     1      -2.668   9.655  15.728  0.00  0.00    +0.000 OA
ATOM     25  C   UNL     1      -3.401  10.532  14.887  0.00  0.00    +0.000 C 
ENDBRANCH   5  24
BRANCH  15  26
ATOM     26  O   UNL     1      -2.330  16.479  25.291  0.00  0.00    +0.000 OA
ATOM     27  C   UNL     1      -1.234  17.353  25.020  0.00  0.00    +0.000 C 
ENDBRANCH  15  26
BRANCH  10  28
ATOM     28  C   UNL     1       0.762  12.974  19.907  0.00  0.00    +0.000 C 
BRANCH  28  29
ATOM     29  C   UNL     1       0.859  14.170  18.963  0.00  0.00    +0.000 C 
ATOM     30  O   UNL     1       1.922  14.619  18.569  0.00  0.00    +0.000 OA
BRANCH  29  31
ATOM     31  O   UNL     1      -0.363  14.681  18.648  0.00  0.00    +0.000 OA
ATOM     32  C   UNL     1      -0.507  16.080  18.902  0.00  0.00    +0.000 C 
ENDBRANCH  29  31
ENDBRANCH  28  29
ENDBRANCH  10  28
TORSDOF 8
ENDMDL
MODEL 7
REMARK VINA RESULT:      -6.0      2.311      7.642
REMARK  Name = 
REMARK  12 active torsions:
REMARK  status: ('A' for Active; 'I' for Inactive)
REMARK    1  A    between atoms: C_1  and  C_2
REMARK    2  A    between atoms: C_2  and  O_3
REMARK    3  A    between atoms: O_3  and  C_4
REMARK    4  A    between atoms: C_4  and  C_6
REMARK    5  A    between atoms: C_10  and  O_11
REMARK    6  A    between atoms: O_11  and  C_12
REMARK    7  A    between atoms: N_17  and  C_18
REMARK    8  A    between atoms: C_18  and  C_19
REMARK    9  A    between atoms: C_19  and  O_21
REMARK   10  A    between atoms: O_21  and  C_22
REMARK   11  A    between atoms: C_27  and  O_28
REMARK   12  A    between atoms: O_28  and  C_29
REMARK                            x       y       z     vdW  Elec       q    Type
REMARK                         _______ _______ _______ _____ _____    ______ ____
ROOT
ATOM      1  C   UNL     1      -3.028  12.793  20.937  0.00  0.00    +0.000 C 
ATOM      2  C   UNL     1      -3.647  12.520  19.431  0.00  0.00    +0.000 C 
ATOM      3  C   UNL     1      -2.767  11.622  18.659  0.00  0.00    +0.000 A 
ATOM      4  C   UNL     1      -3.063  11.086  17.410  0.00  0.00    +0.000 A 
ATOM      5  C   UNL     1      -2.191  10.172  16.837  0.00  0.00    +0.000 A 
ATOM      6  C   UNL     1      -1.034   9.824  17.539  0.00  0.00    +0.000 A 
ATOM      7  C   UNL     1      -0.786  10.352  18.826  0.00  0.00    +0.000 A 
ATOM      8  C   UNL     1      -1.675  11.262  19.394  0.00  0.00    +0.000 A 
ATOM      9  C   UNL     1      -1.697  11.962  20.733  0.00  0.00    +0.000 C 
ATOM     10  N   UNL     1      -0.522  12.901  20.896  0.00  0.00    +0.000 N 
ATOM     11  C   UNL     1      -0.380  13.648  22.053  0.00  0.00    +0.000 C 
ATOM     12  O   UNL     1       0.701  14.023  22.495  0.00  0.00    +0.000 OA
ATOM     13  C   UNL     1      -1.631  14.013  22.730  0.00  0.00    +0.000 A 
ATOM     14  C   UNL     1      -1.592  14.964  23.766  0.00  0.00    +0.000 A 
ATOM     15  C   UNL     1      -2.722  15.200  24.539  0.00  0.00    +0.000 A 
ATOM     16  C   UNL     1      -3.764  14.294  24.448  0.00  0.00    +0.000 A 
ATOM     17  C   UNL     1      -3.769  13.345  23.425  0.00  0.00    +0.000 A 
ATOM     18  C   UNL     1      -2.820  13.382  22.374  0.00  0.00    +0.000 A 
ENDROOT
BRANCH   1  19
ATOM     19  C   UNL     1      -4.591  13.139  21.042  0.00  0.00    +0.000 C 
ATOM     20  O   UNL     1      -5.124  14.244  20.915  0.00  0.00    +0.000 OA
BRANCH  19  21
ATOM     21  O   UNL     1      -5.281  11.952  21.254  0.00  0.00    +0.000 OA
BRANCH  21  23
ATOM     22  C   UNL     1      -7.212  11.102  20.035  0.00  0.00    +0.000 C 
ATOM     23  C   UNL     1      -6.711  11.988  21.160  0.00  0.00    +0.000 C 
ENDBRANCH  21  23
ENDBRANCH  19  21
ENDBRANCH   1  19
BRANCH   5  24
ATOM     24  O   UNL     1      -2.605   9.696  15.628  0.00  0.00    +0.000 OA
ATOM     25  C   UNL     1      -3.529  10.481  14.890  0.00  0.00    +0.000 C 
ENDBRANCH   5  24
BRANCH  15  26
ATOM     26  O   UNL     1      -2.702  16.298  25.350  0.00  0.00    +0.000 OA
ATOM     27  C   UNL     1      -2.599  17.555  24.680  0.00  0.00    +0.000 C 
ENDBRANCH  15  26
BRANCH  10  28
ATOM     28  C   UNL     1       0.625  12.990  19.982  0.00  0.00    +0.000 C 
BRANCH  28  29
ATOM     29  C   UNL     1       0.626  14.104  18.938  0.00  0.00    +0.000 C 
ATOM     30  O   UNL     1      -0.343  14.813  18.725  0.00  0.00    +0.000 OA
BRANCH  29  31
ATOM     31  O   UNL     1       1.808  14.183  18.267  0.00  0.00    +0.000 OA
ATOM     32  C   UNL     1       2.634  13.023  18.379  0.00  0.00    +0.000 C 
ENDBRANCH  29  31
ENDBRANCH  28  29
ENDBRANCH  10  28
TORSDOF 8
ENDMDL
MODEL 8
REMARK VINA RESULT:      -5.9      1.805      2.285
REMARK  Name = 
REMARK  12 active torsions:
REMARK  status: ('A' for Active; 'I' for Inactive)
REMARK    1  A    between atoms: C_1  and  C_2
REMARK    2  A    between atoms: C_2  and  O_3
REMARK    3  A    between atoms: O_3  and  C_4
REMARK    4  A    between atoms: C_4  and  C_6
REMARK    5  A    between atoms: C_10  and  O_11
REMARK    6  A    between atoms: O_11  and  C_12
REMARK    7  A    between atoms: N_17  and  C_18
REMARK    8  A    between atoms: C_18  and  C_19
REMARK    9  A    between atoms: C_19  and  O_21
REMARK   10  A    between atoms: O_21  and  C_22
REMARK   11  A    between atoms: C_27  and  O_28
REMARK   12  A    between atoms: O_28  and  C_29
REMARK                            x       y       z     vdW  Elec       q    Type
REMARK                         _______ _______ _______ _____ _____    ______ ____
ROOT
ATOM      1  C   UNL     1      -2.027  12.557  19.875  0.00  0.00    +0.000 C 
ATOM      2  C   UNL     1      -1.024  13.647  20.603  0.00  0.00    +0.000 C 
ATOM      3  C   UNL     1      -1.509  13.982  21.955  0.00  0.00    +0.000 A 
ATOM      4  C   UNL     1      -0.827  14.762  22.883  0.00  0.00    +0.000 A 
ATOM      5  C   UNL     1      -1.350  14.916  24.159  0.00  0.00    +0.000 A 
ATOM      6  C   UNL     1      -2.556  14.282  24.467  0.00  0.00    +0.000 A 
ATOM      7  C   UNL     1      -3.200  13.459  23.515  0.00  0.00    +0.000 A 
ATOM      8  C   UNL     1      -2.659  13.305  22.241  0.00  0.00    +0.000 A 
ATOM      9  C   UNL     1      -3.091  12.488  21.044  0.00  0.00    +0.000 C 
ATOM     10  N   UNL     1      -4.424  12.951  20.500  0.00  0.00    +0.000 N 
ATOM     11  C   UNL     1      -4.978  12.335  19.390  0.00  0.00    +0.000 C 
ATOM     12  O   UNL     1      -6.184  12.268  19.176  0.00  0.00    +0.000 OA
ATOM     13  C   UNL     1      -4.017  11.776  18.430  0.00  0.00    +0.000 A 
ATOM     14  C   UNL     1      -4.481  11.351  17.172  0.00  0.00    +0.000 A 
ATOM     15  C   UNL     1      -3.634  10.661  16.313  0.00  0.00    +0.000 A 
ATOM     16  C   UNL     1      -2.451  10.169  16.835  0.00  0.00    +0.000 A 
ATOM     17  C   UNL     1      -2.023  10.587  18.096  0.00  0.00    +0.000 A 
ATOM     18  C   UNL     1      -2.681  11.629  18.794  0.00  0.00    +0.000 A 
ENDROOT
BRANCH   1  19
ATOM     19  C   UNL     1      -0.628  12.444  19.098  0.00  0.00    +0.000 C 
ATOM     20  O   UNL     1      -0.348  12.904  17.989  0.00  0.00    +0.000 OA
BRANCH  19  21
ATOM     21  O   UNL     1       0.266  11.769  19.919  0.00  0.00    +0.000 OA
BRANCH  21  23
ATOM     22  C   UNL     1       0.978   9.444  19.749  0.00  0.00    +0.000 C 
ATOM     23  C   UNL     1       1.197  10.875  19.295  0.00  0.00    +0.000 C 
ENDBRANCH  21  23
ENDBRANCH  19  21
ENDBRANCH   1  19
BRANCH   5  24
ATOM     24  O   UNL     1      -0.575  15.677  24.985  0.00  0.00    +0.000 OA
ATOM     25  C   UNL     1      -1.010  15.852  26.324  0.00  0.00    +0.000 C 
ENDBRANCH   5  24
BRANCH  15  26
ATOM     26  O   UNL     1      -4.053  10.500  15.024  0.00  0.00    +0.000 OA
ATOM     27  C   UNL     1      -3.063  10.026  14.110  0.00  0.00    +0.000 C 
ENDBRANCH  15  26
BRANCH  10  28
ATOM     28  C   UNL     1      -5.314  13.924  21.149  0.00  0.00    +0.000 C 
BRANCH  28  29
ATOM     29  C   UNL     1      -6.326  13.404  22.166  0.00  0.00    +0.000 C 
ATOM     30  O   UNL     1      -6.383  12.234  22.506  0.00  0.00    +0.000 OA
BRANCH  29  31
ATOM     31  O   UNL     1      -7.160  14.383  22.614  0.00  0.00    +0.000 OA
ATOM     32  C   UNL     1      -7.905  15.044  21.590  0.00  0.00    +0.000 C 
ENDBRANCH  29  31
ENDBRANCH  28  29
ENDBRANCH  10  28
TORSDOF 8
ENDMDL
MODEL 9
REMARK VINA RESULT:      -5.9      2.137      7.783
REMARK  Name = 
REMARK  12 active torsions:
REMARK  status: ('A' for Active; 'I' for Inactive)
REMARK    1  A    between atoms: C_1  and  C_2
REMARK    2  A    between atoms: C_2  and  O_3
REMARK    3  A    between atoms: O_3  and  C_4
REMARK    4  A    between atoms: C_4  and  C_6
REMARK    5  A    between atoms: C_10  and  O_11
REMARK    6  A    between atoms: O_11  and  C_12
REMARK    7  A    between atoms: N_17  and  C_18
REMARK    8  A    between atoms: C_18  and  C_19
REMARK    9  A    between atoms: C_19  and  O_21
REMARK   10  A    between atoms: O_21  and  C_22
REMARK   11  A    between atoms: C_27  and  O_28
REMARK   12  A    between atoms: O_28  and  C_29
REMARK                            x       y       z     vdW  Elec       q    Type
REMARK                         _______ _______ _______ _____ _____    ______ ____
ROOT
ATOM      1  C   UNL     1      -3.610  12.577  20.765  0.00  0.00    +0.000 C 
ATOM      2  C   UNL     1      -4.502  12.448  19.382  0.00  0.00    +0.000 C 
ATOM      3  C   UNL     1      -3.740  11.746  18.332  0.00  0.00    +0.000 A 
ATOM      4  C   UNL     1      -4.248  11.354  17.097  0.00  0.00    +0.000 A 
ATOM      5  C   UNL     1      -3.452  10.609  16.240  0.00  0.00    +0.000 A 
ATOM      6  C   UNL     1      -2.157  10.281  16.647  0.00  0.00    +0.000 A 
ATOM      7  C   UNL     1      -1.688  10.655  17.927  0.00  0.00    +0.000 A 
ATOM      8  C   UNL     1      -2.501  11.395  18.783  0.00  0.00    +0.000 A 
ATOM      9  C   UNL     1      -2.296  11.907  20.190  0.00  0.00    +0.000 C 
ATOM     10  N   UNL     1      -1.176  12.921  20.262  0.00  0.00    +0.000 N 
ATOM     11  C   UNL     1      -0.851  13.519  21.468  0.00  0.00    +0.000 C 
ATOM     12  O   UNL     1       0.270  13.931  21.745  0.00  0.00    +0.000 OA
ATOM     13  C   UNL     1      -1.960  13.674  22.418  0.00  0.00    +0.000 A 
ATOM     14  C   UNL     1      -1.774  14.479  23.557  0.00  0.00    +0.000 A 
ATOM     15  C   UNL     1      -2.737  14.505  24.558  0.00  0.00    +0.000 A 
ATOM     16  C   UNL     1      -3.714  13.526  24.535  0.00  0.00    +0.000 A 
ATOM     17  C   UNL     1      -3.865  12.724  23.403  0.00  0.00    +0.000 A 
ATOM     18  C   UNL     1      -3.153  12.987  22.207  0.00  0.00    +0.000 A 
ENDROOT
BRANCH   1  19
ATOM     19  C   UNL     1      -5.138  12.759  21.217  0.00  0.00    +0.000 C 
ATOM     20  O   UNL     1      -5.866  11.919  21.753  0.00  0.00    +0.000 OA
BRANCH  19  21
ATOM     21  O   UNL     1      -5.512  14.070  20.950  0.00  0.00    +0.000 OA
BRANCH  21  23
ATOM     22  C   UNL     1      -5.920  15.780  22.637  0.00  0.00    +0.000 C 
ATOM     23  C   UNL     1      -6.507  14.662  21.795  0.00  0.00    +0.000 C 
ENDBRANCH  21  23
ENDBRANCH  19  21
ENDBRANCH   1  19
BRANCH   5  24
ATOM     24  O   UNL     1      -4.072  10.261  15.075  0.00  0.00    +0.000 OA
ATOM     25  C   UNL     1      -3.253   9.949  13.958  0.00  0.00    +0.000 C 
ENDBRANCH   5  24
BRANCH  15  26
ATOM     26  O   UNL     1      -2.623  15.483  25.503  0.00  0.00    +0.000 OA
ATOM     27  C   UNL     1      -1.314  15.668  26.041  0.00  0.00    +0.000 C 
ENDBRANCH  15  26
BRANCH  10  28
ATOM     28  C   UNL     1      -0.246  13.236  19.169  0.00  0.00    +0.000 C 
BRANCH  28  29
ATOM     29  C   UNL     1       1.074  12.471  19.106  0.00  0.00    +0.000 C 
ATOM     30  O   UNL     1       1.259  11.421  19.696  0.00  0.00    +0.000 OA
BRANCH  29  31
ATOM     31  O   UNL     1       2.007  13.112  18.349  0.00  0.00    +0.000 OA
ATOM     32  C   UNL     1       2.657  14.203  19.003  0.00  0.00    +0.000 C 
ENDBRANCH  29  31
ENDBRANCH  28  29
ENDBRANCH  10  28
TORSDOF 8
ENDMDL
