MODEL 1
REMARK VINA RESULT:      -6.6      0.000      0.000
REMARK  Name = 
REMARK  3 active torsions:
REMARK  status: ('A' for Active; 'I' for Inactive)
REMARK    1  A    between atoms: C_1  and  C_2
REMARK    2  A    between atoms: C_2  and  C_3
REMARK    3  A    between atoms: C_7  and  C_8
REMARK                            x       y       z     vdW  Elec       q    Type
REMARK                         _______ _______ _______ _____ _____    ______ ____
ROOT
ATOM      1  C   UNL     1       0.476   2.603  18.823  0.00  0.00    +0.000 C 
ATOM      2  C   UNL     1       1.495   3.714  19.123  0.00  0.00    +0.000 C 
ATOM      3  C   UNL     1       1.003   4.480  20.371  0.00  0.00    +0.000 C 
ATOM      4  C   UNL     1       1.572   4.710  17.935  0.00  0.00    +0.000 C 
ATOM      5  C   UNL     1       2.675   5.777  18.095  0.00  0.00    +0.000 C 
ATOM      6  C   UNL     1       3.924   5.288  18.851  0.00  0.00    +0.000 C 
ATOM      7  C   UNL     1       4.086   3.770  18.747  0.00  0.00    +0.000 C 
ATOM      8  C   UNL     1       4.405   3.332  17.305  0.00  0.00    +0.000 C 
ATOM      9  O   UNL     1       5.156   3.305  19.577  0.00  0.00    +0.000 OA
ATOM     10  C   UNL     1       4.701   2.273  20.343  0.00  0.00    +0.000 C 
ATOM     11  O   UNL     1       5.382   1.552  21.049  0.00  0.00    +0.000 OA
ATOM     12  C   UNL     1       3.242   2.210  20.250  0.00  0.00    +0.000 C 
ATOM     13  C   UNL     1       2.878   3.143  19.364  0.00  0.00    +0.000 C 
ENDROOT
TORSDOF 0
ENDMDL
MODEL 2
REMARK VINA RESULT:      -6.4      2.290      3.508
REMARK  Name = 
REMARK  3 active torsions:
REMARK  status: ('A' for Active; 'I' for Inactive)
REMARK    1  A    between atoms: C_1  and  C_2
REMARK    2  A    between atoms: C_2  and  C_3
REMARK    3  A    between atoms: C_7  and  C_8
REMARK                            x       y       z     vdW  Elec       q    Type
REMARK                         _______ _______ _______ _____ _____    ______ ____
ROOT
ATOM      1  C   UNL     1       2.098   2.701  21.499  0.00  0.00    +0.000 C 
ATOM      2  C   UNL     1       2.116   3.149  20.028  0.00  0.00    +0.000 C 
ATOM      3  C   UNL     1       0.723   2.855  19.430  0.00  0.00    +0.000 C 
ATOM      4  C   UNL     1       3.172   2.339  19.231  0.00  0.00    +0.000 C 
ATOM      5  C   UNL     1       3.354   2.825  17.778  0.00  0.00    +0.000 C 
ATOM      6  C   UNL     1       3.151   4.338  17.586  0.00  0.00    +0.000 C 
ATOM      7  C   UNL     1       3.417   5.110  18.880  0.00  0.00    +0.000 C 
ATOM      8  C   UNL     1       4.902   5.047  19.283  0.00  0.00    +0.000 C 
ATOM      9  O   UNL     1       3.077   6.493  18.738  0.00  0.00    +0.000 OA
ATOM     10  C   UNL     1       2.274   6.857  19.779  0.00  0.00    +0.000 C 
ATOM     11  O   UNL     1       1.923   7.992  20.048  0.00  0.00    +0.000 OA
ATOM     12  C   UNL     1       1.826   5.657  20.485  0.00  0.00    +0.000 C 
ATOM     13  C   UNL     1       2.444   4.623  19.905  0.00  0.00    +0.000 C 
ENDROOT
TORSDOF 0
ENDMDL
MODEL 3
REMARK VINA RESULT:      -6.3      1.904      3.155
REMARK  Name = 
REMARK  3 active torsions:
REMARK  status: ('A' for Active; 'I' for Inactive)
REMARK    1  A    between atoms: C_1  and  C_2
REMARK    2  A    between atoms: C_2  and  C_3
REMARK    3  A    between atoms: C_7  and  C_8
REMARK                            x       y       z     vdW  Elec       q    Type
REMARK                         _______ _______ _______ _____ _____    ______ ____
ROOT
ATOM      1  C   UNL     1       2.696   6.690  19.109  0.00  0.00    +0.000 C 
ATOM      2  C   UNL     1       3.312   5.288  18.970  0.00  0.00    +0.000 C 
ATOM      3  C   UNL     1       4.766   5.360  19.488  0.00  0.00    +0.000 C 
ATOM      4  C   UNL     1       3.344   4.860  17.479  0.00  0.00    +0.000 C 
ATOM      5  C   UNL     1       3.817   3.406  17.265  0.00  0.00    +0.000 C 
ATOM      6  C   UNL     1       3.429   2.441  18.399  0.00  0.00    +0.000 C 
ATOM      7  C   UNL     1       2.192   2.929  19.156  0.00  0.00    +0.000 C 
ATOM      8  C   UNL     1       0.933   2.887  18.269  0.00  0.00    +0.000 C 
ATOM      9  O   UNL     1       1.929   2.113  20.302  0.00  0.00    +0.000 OA
ATOM     10  C   UNL     1       1.770   2.920  21.389  0.00  0.00    +0.000 C 
ATOM     11  O   UNL     1       1.390   2.569  22.492  0.00  0.00    +0.000 OA
ATOM     12  C   UNL     1       2.205   4.276  21.051  0.00  0.00    +0.000 C 
ATOM     13  C   UNL     1       2.522   4.259  19.752  0.00  0.00    +0.000 C 
ENDROOT
TORSDOF 0
ENDMDL
MODEL 4
REMARK VINA RESULT:      -6.2      1.301      2.806
REMARK  Name = 
REMARK  3 active torsions:
REMARK  status: ('A' for Active; 'I' for Inactive)
REMARK    1  A    between atoms: C_1  and  C_2
REMARK    2  A    between atoms: C_2  and  C_3
REMARK    3  A    between atoms: C_7  and  C_8
REMARK                            x       y       z     vdW  Elec       q    Type
REMARK                         _______ _______ _______ _____ _____    ______ ____
ROOT
ATOM      1  C   UNL     1       1.436   5.144  20.412  0.00  0.00    +0.000 C 
ATOM      2  C   UNL     1       2.089   4.433  19.215  0.00  0.00    +0.000 C 
ATOM      3  C   UNL     1       1.652   5.175  17.932  0.00  0.00    +0.000 C 
ATOM      4  C   UNL     1       1.596   2.965  19.125  0.00  0.00    +0.000 C 
ATOM      5  C   UNL     1       2.313   2.140  18.035  0.00  0.00    +0.000 C 
ATOM      6  C   UNL     1       3.781   2.539  17.801  0.00  0.00    +0.000 C 
ATOM      7  C   UNL     1       4.390   3.195  19.041  0.00  0.00    +0.000 C 
ATOM      8  C   UNL     1       4.523   2.195  20.205  0.00  0.00    +0.000 C 
ATOM      9  O   UNL     1       5.700   3.703  18.769  0.00  0.00    +0.000 OA
ATOM     10  C   UNL     1       5.766   4.998  19.191  0.00  0.00    +0.000 C 
ATOM     11  O   UNL     1       6.773   5.682  19.248  0.00  0.00    +0.000 OA
ATOM     12  C   UNL     1       4.417   5.476  19.495  0.00  0.00    +0.000 C 
ATOM     13  C   UNL     1       3.600   4.430  19.335  0.00  0.00    +0.000 C 
ENDROOT
TORSDOF 0
ENDMDL
MODEL 5
REMARK VINA RESULT:      -6.2      1.652      2.476
REMARK  Name = 
REMARK  3 active torsions:
REMARK  status: ('A' for Active; 'I' for Inactive)
REMARK    1  A    between atoms: C_1  and  C_2
REMARK    2  A    between atoms: C_2  and  C_3
REMARK    3  A    between atoms: C_7  and  C_8
REMARK                            x       y       z     vdW  Elec       q    Type
REMARK                         _______ _______ _______ _____ _____    ______ ____
ROOT
ATOM      1  C   UNL     1       1.107   4.587  17.285  0.00  0.00    +0.000 C 
ATOM      2  C   UNL     1       2.423   4.622  18.078  0.00  0.00    +0.000 C 
ATOM      3  C   UNL     1       2.634   6.070  18.575  0.00  0.00    +0.000 C 
ATOM      4  C   UNL     1       3.615   4.240  17.162  0.00  0.00    +0.000 C 
ATOM      5  C   UNL     1       4.956   4.113  17.915  0.00  0.00    +0.000 C 
ATOM      6  C   UNL     1       4.825   3.605  19.361  0.00  0.00    +0.000 C 
ATOM      7  C   UNL     1       3.553   2.777  19.554  0.00  0.00    +0.000 C 
ATOM      8  C   UNL     1       3.612   1.455  18.766  0.00  0.00    +0.000 C 
ATOM      9  O   UNL     1       3.356   2.439  20.931  0.00  0.00    +0.000 OA
ATOM     10  C   UNL     1       2.083   2.772  21.288  0.00  0.00    +0.000 C 
ATOM     11  O   UNL     1       1.537   2.487  22.339  0.00  0.00    +0.000 OA
ATOM     12  C   UNL     1       1.489   3.601  20.238  0.00  0.00    +0.000 C 
ATOM     13  C   UNL     1       2.387   3.662  19.250  0.00  0.00    +0.000 C 
ENDROOT
TORSDOF 0
ENDMDL
MODEL 6
REMARK VINA RESULT:      -6.2      1.801      2.428
REMARK  Name = 
REMARK  3 active torsions:
REMARK  status: ('A' for Active; 'I' for Inactive)
REMARK    1  A    between atoms: C_1  and  C_2
REMARK    2  A    between atoms: C_2  and  C_3
REMARK    3  A    between atoms: C_7  and  C_8
REMARK                            x       y       z     vdW  Elec       q    Type
REMARK                         _______ _______ _______ _____ _____    ______ ____
ROOT
ATOM      1  C   UNL     1       2.355   3.177  21.801  0.00  0.00    +0.000 C 
ATOM      2  C   UNL     1       2.156   3.776  20.399  0.00  0.00    +0.000 C 
ATOM      3  C   UNL     1       1.721   5.248  20.573  0.00  0.00    +0.000 C 
ATOM      4  C   UNL     1       1.032   3.019  19.643  0.00  0.00    +0.000 C 
ATOM      5  C   UNL     1       0.867   3.466  18.175  0.00  0.00    +0.000 C 
ATOM      6  C   UNL     1       2.176   3.902  17.495  0.00  0.00    +0.000 C 
ATOM      7  C   UNL     1       3.396   3.253  18.152  0.00  0.00    +0.000 C 
ATOM      8  C   UNL     1       3.420   1.730  17.922  0.00  0.00    +0.000 C 
ATOM      9  O   UNL     1       4.615   3.781  17.619  0.00  0.00    +0.000 OA
ATOM     10  C   UNL     1       5.419   4.160  18.653  0.00  0.00    +0.000 C 
ATOM     11  O   UNL     1       6.582   4.511  18.563  0.00  0.00    +0.000 OA
ATOM     12  C   UNL     1       4.642   4.160  19.893  0.00  0.00    +0.000 C 
ATOM     13  C   UNL     1       3.429   3.695  19.580  0.00  0.00    +0.000 C 
ENDROOT
TORSDOF 0
ENDMDL
MODEL 7
REMARK VINA RESULT:      -6.2      1.648      2.386
REMARK  Name = 
REMARK  3 active torsions:
REMARK  status: ('A' for Active; 'I' for Inactive)
REMARK    1  A    between atoms: C_1  and  C_2
REMARK    2  A    between atoms: C_2  and  C_3
REMARK    3  A    between atoms: C_7  and  C_8
REMARK                            x       y       z     vdW  Elec       q    Type
REMARK                         _______ _______ _______ _____ _____    ______ ____
ROOT
ATOM      1  C   UNL     1       1.848   1.725  19.352  0.00  0.00    +0.000 C 
ATOM      2  C   UNL     1       2.151   3.041  20.088  0.00  0.00    +0.000 C 
ATOM      3  C   UNL     1       2.440   2.697  21.566  0.00  0.00    +0.000 C 
ATOM      4  C   UNL     1       0.921   3.984  20.035  0.00  0.00    +0.000 C 
ATOM      5  C   UNL     1       1.190   5.383  20.628  0.00  0.00    +0.000 C 
ATOM      6  C   UNL     1       2.631   5.887  20.433  0.00  0.00    +0.000 C 
ATOM      7  C   UNL     1       3.298   5.230  19.223  0.00  0.00    +0.000 C 
ATOM      8  C   UNL     1       2.636   5.669  17.903  0.00  0.00    +0.000 C 
ATOM      9  O   UNL     1       4.683   5.583  19.138  0.00  0.00    +0.000 OA
ATOM     10  C   UNL     1       5.419   4.444  18.993  0.00  0.00    +0.000 C 
ATOM     11  O   UNL     1       6.609   4.388  18.744  0.00  0.00    +0.000 OA
ATOM     12  C   UNL     1       4.569   3.284  19.264  0.00  0.00    +0.000 C 
ATOM     13  C   UNL     1       3.336   3.756  19.471  0.00  0.00    +0.000 C 
ENDROOT
TORSDOF 0
ENDMDL
MODEL 8
REMARK VINA RESULT:      -6.1      3.219      4.803
REMARK  Name = 
REMARK  3 active torsions:
REMARK  status: ('A' for Active; 'I' for Inactive)
REMARK    1  A    between atoms: C_1  and  C_2
REMARK    2  A    between atoms: C_2  and  C_3
REMARK    3  A    between atoms: C_7  and  C_8
REMARK                            x       y       z     vdW  Elec       q    Type
REMARK                         _______ _______ _______ _____ _____    ______ ____
ROOT
ATOM      1  C   UNL     1       3.122   5.217  17.663  0.00  0.00    +0.000 C 
ATOM      2  C   UNL     1       4.555   4.740  17.948  0.00  0.00    +0.000 C 
ATOM      3  C   UNL     1       4.484   3.250  18.348  0.00  0.00    +0.000 C 
ATOM      4  C   UNL     1       5.163   5.537  19.132  0.00  0.00    +0.000 C 
ATOM      5  C   UNL     1       6.650   5.218  19.391  0.00  0.00    +0.000 C 
ATOM      6  C   UNL     1       7.454   4.870  18.126  0.00  0.00    +0.000 C 
ATOM      7  C   UNL     1       6.824   5.484  16.873  0.00  0.00    +0.000 C 
ATOM      8  C   UNL     1       6.919   7.022  16.887  0.00  0.00    +0.000 C 
ATOM      9  O   UNL     1       7.483   5.031  15.686  0.00  0.00    +0.000 OA
ATOM     10  C   UNL     1       6.543   4.579  14.807  0.00  0.00    +0.000 C 
ATOM     11  O   UNL     1       6.742   4.262  13.648  0.00  0.00    +0.000 OA
ATOM     12  C   UNL     1       5.259   4.453  15.497  0.00  0.00    +0.000 C 
ATOM     13  C   UNL     1       5.447   4.920  16.736  0.00  0.00    +0.000 C 
ENDROOT
TORSDOF 0
ENDMDL
MODEL 9
REMARK VINA RESULT:      -6.0      1.075      2.967
REMARK  Name = 
REMARK  3 active torsions:
REMARK  status: ('A' for Active; 'I' for Inactive)
REMARK    1  A    between atoms: C_1  and  C_2
REMARK    2  A    between atoms: C_2  and  C_3
REMARK    3  A    between atoms: C_7  and  C_8
REMARK                            x       y       z     vdW  Elec       q    Type
REMARK                         _______ _______ _______ _____ _____    ______ ____
ROOT
ATOM      1  C   UNL     1       4.821   6.072  18.020  0.00  0.00    +0.000 C 
ATOM      2  C   UNL     1       3.836   4.900  17.879  0.00  0.00    +0.000 C 
ATOM      3  C   UNL     1       4.199   4.134  16.587  0.00  0.00    +0.000 C 
ATOM      4  C   UNL     1       2.385   5.429  17.744  0.00  0.00    +0.000 C 
ATOM      5  C   UNL     1       1.319   4.313  17.740  0.00  0.00    +0.000 C 
ATOM      6  C   UNL     1       1.680   3.090  18.601  0.00  0.00    +0.000 C 
ATOM      7  C   UNL     1       2.658   3.458  19.719  0.00  0.00    +0.000 C 
ATOM      8  C   UNL     1       2.005   4.387  20.760  0.00  0.00    +0.000 C 
ATOM      9  O   UNL     1       3.109   2.293  20.418  0.00  0.00    +0.000 OA
ATOM     10  C   UNL     1       4.471   2.320  20.483  0.00  0.00    +0.000 C 
ATOM     11  O   UNL     1       5.171   1.563  21.131  0.00  0.00    +0.000 OA
ATOM     12  C   UNL     1       4.976   3.355  19.581  0.00  0.00    +0.000 C 
ATOM     13  C   UNL     1       3.905   3.975  19.077  0.00  0.00    +0.000 C 
ENDROOT
TORSDOF 0
ENDMDL
