MODEL 1
REMARK VINA RESULT:      -7.3      0.000      0.000
REMARK  Name = 
REMARK  8 active torsions:
REMARK  status: ('A' for Active; 'I' for Inactive)
REMARK    1  A    between atoms: C_1  and  C_2
REMARK    2  A    between atoms: C_2  and  C_3
REMARK    3  A    between atoms: C_2  and  C_4
REMARK    4  A    between atoms: C_8  and  C_9
REMARK    5  A    between atoms: C_9  and  C_10
REMARK    6  A    between atoms: C_9  and  C_11
REMARK    7  A    between atoms: C_15  and  C_16
REMARK    8  A    between atoms: C_22  and  O_23
REMARK                            x       y       z     vdW  Elec       q    Type
REMARK                         _______ _______ _______ _____ _____    ______ ____
ROOT
ATOM      1  C   UNL     1       6.672   5.640  17.580  0.00  0.00    +0.000 C 
ATOM      2  C   UNL     1       5.798   6.850  17.165  0.00  0.00    +0.000 C 
ATOM      3  N   UNL     1       4.637   6.426  16.370  0.00  0.00    +0.000 NA
ATOM      4  C   UNL     1       5.112   5.894  15.078  0.00  0.00    +0.000 C 
ATOM      5  C   UNL     1       6.049   4.681  15.291  0.00  0.00    +0.000 C 
ATOM      6  C   UNL     1       5.158   3.650  16.037  0.00  0.00    +0.000 C 
ATOM      7  N   UNL     1       4.654   4.194  17.321  0.00  0.00    +0.000 NA
ATOM      8  C   UNL     1       5.803   4.504  18.181  0.00  0.00    +0.000 C 
ATOM      9  C   UNL     1       3.829   5.407  17.092  0.00  0.00    +0.000 C 
ATOM     10  C   UNL     1       7.222   5.111  16.235  0.00  0.00    +0.000 C 
ENDROOT
BRANCH   9  11
ATOM     11  C   UNL     1       3.119   5.971  18.356  0.00  0.00    +0.000 A 
ATOM     12  C   UNL     1       2.821   5.148  19.454  0.00  0.00    +0.000 A 
ATOM     13  C   UNL     1       2.143   5.621  20.575  0.00  0.00    +0.000 A 
ATOM     14  C   UNL     1       1.761   6.966  20.658  0.00  0.00    +0.000 A 
ATOM     15  C   UNL     1       2.084   7.819  19.613  0.00  0.00    +0.000 A 
ATOM     16  C   UNL     1       2.762   7.321  18.493  0.00  0.00    +0.000 A 
ENDBRANCH   9  11
BRANCH   1  18
ATOM     17  C   UNL     1       8.145   7.555  18.566  0.00  0.00    +0.000 C 
ATOM     18  C   UNL     1       7.790   6.060  18.595  0.00  0.00    +0.000 C 
ATOM     19  C   UNL     1       7.448   5.669  20.044  0.00  0.00    +0.000 C 
ENDBRANCH   1  18
BRANCH   5  20
ATOM     20  C   UNL     1       6.660   4.118  13.960  0.00  0.00    +0.000 C 
ATOM     21  C   UNL     1       5.630   3.579  12.967  0.00  0.00    +0.000 C 
ATOM     22  C   UNL     1       7.563   5.135  13.230  0.00  0.00    +0.000 C 
ENDBRANCH   5  20
BRANCH  10  23
ATOM     23  O   UNL     1       8.184   4.068  16.399  0.00  0.00    +0.000 OA
ATOM     24  H   UNL     1       8.290   3.589  15.562  0.00  0.00    +0.000 HD
ENDBRANCH  10  23
TORSDOF 4
ENDMDL
MODEL 2
REMARK VINA RESULT:      -7.1      0.450      1.299
REMARK  Name = 
REMARK  8 active torsions:
REMARK  status: ('A' for Active; 'I' for Inactive)
REMARK    1  A    between atoms: C_1  and  C_2
REMARK    2  A    between atoms: C_2  and  C_3
REMARK    3  A    between atoms: C_2  and  C_4
REMARK    4  A    between atoms: C_8  and  C_9
REMARK    5  A    between atoms: C_9  and  C_10
REMARK    6  A    between atoms: C_9  and  C_11
REMARK    7  A    between atoms: C_15  and  C_16
REMARK    8  A    between atoms: C_22  and  O_23
REMARK                            x       y       z     vdW  Elec       q    Type
REMARK                         _______ _______ _______ _____ _____    ______ ____
ROOT
ATOM      1  C   UNL     1       6.487   5.787  17.951  0.00  0.00    +0.000 C 
ATOM      2  C   UNL     1       5.583   6.954  17.479  0.00  0.00    +0.000 C 
ATOM      3  N   UNL     1       4.492   6.474  16.620  0.00  0.00    +0.000 NA
ATOM      4  C   UNL     1       5.067   5.962  15.361  0.00  0.00    +0.000 C 
ATOM      5  C   UNL     1       6.045   4.795  15.634  0.00  0.00    +0.000 C 
ATOM      6  C   UNL     1       5.161   3.725  16.333  0.00  0.00    +0.000 C 
ATOM      7  N   UNL     1       4.558   4.248  17.582  0.00  0.00    +0.000 NA
ATOM      8  C   UNL     1       5.638   4.613  18.506  0.00  0.00    +0.000 C 
ATOM      9  C   UNL     1       3.692   5.420  17.299  0.00  0.00    +0.000 C 
ATOM     10  C   UNL     1       7.139   5.281  16.644  0.00  0.00    +0.000 C 
ENDROOT
BRANCH   9  11
ATOM     11  C   UNL     1       2.883   5.953  18.516  0.00  0.00    +0.000 A 
ATOM     12  C   UNL     1       2.596   7.320  18.661  0.00  0.00    +0.000 A 
ATOM     13  C   UNL     1       1.915   7.823  19.767  0.00  0.00    +0.000 A 
ATOM     14  C   UNL     1       1.456   6.960  20.770  0.00  0.00    +0.000 A 
ATOM     15  C   UNL     1       1.677   5.598  20.635  0.00  0.00    +0.000 A 
ATOM     16  C   UNL     1       2.369   5.114  19.517  0.00  0.00    +0.000 A 
ENDBRANCH   9  11
BRANCH   1  18
ATOM     17  C   UNL     1       8.445   5.150  19.555  0.00  0.00    +0.000 C 
ATOM     18  C   UNL     1       7.522   6.261  19.028  0.00  0.00    +0.000 C 
ATOM     19  C   UNL     1       8.398   7.425  18.533  0.00  0.00    +0.000 C 
ENDBRANCH   1  18
BRANCH   5  20
ATOM     20  C   UNL     1       6.759   4.258  14.345  0.00  0.00    +0.000 C 
ATOM     21  C   UNL     1       5.820   3.634  13.313  0.00  0.00    +0.000 C 
ATOM     22  C   UNL     1       7.623   5.326  13.642  0.00  0.00    +0.000 C 
ENDBRANCH   5  20
BRANCH  10  23
ATOM     23  O   UNL     1       8.138   4.285  16.869  0.00  0.00    +0.000 OA
ATOM     24  H   UNL     1       7.832   3.434  16.517  0.00  0.00    +0.000 HD
ENDBRANCH  10  23
TORSDOF 4
ENDMDL
MODEL 3
REMARK VINA RESULT:      -6.9      2.049      3.646
REMARK  Name = 
REMARK  8 active torsions:
REMARK  status: ('A' for Active; 'I' for Inactive)
REMARK    1  A    between atoms: C_1  and  C_2
REMARK    2  A    between atoms: C_2  and  C_3
REMARK    3  A    between atoms: C_2  and  C_4
REMARK    4  A    between atoms: C_8  and  C_9
REMARK    5  A    between atoms: C_9  and  C_10
REMARK    6  A    between atoms: C_9  and  C_11
REMARK    7  A    between atoms: C_15  and  C_16
REMARK    8  A    between atoms: C_22  and  O_23
REMARK                            x       y       z     vdW  Elec       q    Type
REMARK                         _______ _______ _______ _____ _____    ______ ____
ROOT
ATOM      1  C   UNL     1       3.692   6.197  18.065  0.00  0.00    +0.000 C 
ATOM      2  C   UNL     1       2.581   5.226  17.592  0.00  0.00    +0.000 C 
ATOM      3  N   UNL     1       3.121   3.890  17.306  0.00  0.00    +0.000 NA
ATOM      4  C   UNL     1       4.013   3.978  16.133  0.00  0.00    +0.000 C 
ATOM      5  C   UNL     1       5.187   4.950  16.404  0.00  0.00    +0.000 C 
ATOM      6  C   UNL     1       5.914   4.325  17.626  0.00  0.00    +0.000 C 
ATOM      7  N   UNL     1       5.009   4.207  18.795  0.00  0.00    +0.000 NA
ATOM      8  C   UNL     1       4.560   5.551  19.177  0.00  0.00    +0.000 C 
ATOM      9  C   UNL     1       3.849   3.337  18.479  0.00  0.00    +0.000 C 
ATOM     10  C   UNL     1       4.601   6.341  16.823  0.00  0.00    +0.000 C 
ENDROOT
BRANCH   9  11
ATOM     11  C   UNL     1       2.917   3.016  19.683  0.00  0.00    +0.000 A 
ATOM     12  C   UNL     1       1.527   3.192  19.597  0.00  0.00    +0.000 A 
ATOM     13  C   UNL     1       0.680   2.956  20.678  0.00  0.00    +0.000 A 
ATOM     14  C   UNL     1       1.196   2.494  21.895  0.00  0.00    +0.000 A 
ATOM     15  C   UNL     1       2.559   2.260  22.000  0.00  0.00    +0.000 A 
ATOM     16  C   UNL     1       3.393   2.509  20.902  0.00  0.00    +0.000 A 
ENDBRANCH   9  11
BRANCH   1  18
ATOM     17  C   UNL     1       2.304   8.334  17.502  0.00  0.00    +0.000 C 
ATOM     18  C   UNL     1       3.094   7.556  18.567  0.00  0.00    +0.000 C 
ATOM     19  C   UNL     1       2.198   7.383  19.807  0.00  0.00    +0.000 C 
ENDBRANCH   1  18
BRANCH   5  20
ATOM     20  C   UNL     1       6.129   5.157  15.167  0.00  0.00    +0.000 C 
ATOM     21  C   UNL     1       7.619   5.003  15.471  0.00  0.00    +0.000 C 
ATOM     22  C   UNL     1       5.773   4.245  13.974  0.00  0.00    +0.000 C 
ENDBRANCH   5  20
BRANCH  10  23
ATOM     23  O   UNL     1       5.626   7.322  16.994  0.00  0.00    +0.000 OA
ATOM     24  H   UNL     1       5.610   7.653  17.905  0.00  0.00    +0.000 HD
ENDBRANCH  10  23
TORSDOF 4
ENDMDL
MODEL 4
REMARK VINA RESULT:      -6.8      2.017      4.158
REMARK  Name = 
REMARK  8 active torsions:
REMARK  status: ('A' for Active; 'I' for Inactive)
REMARK    1  A    between atoms: C_1  and  C_2
REMARK    2  A    between atoms: C_2  and  C_3
REMARK    3  A    between atoms: C_2  and  C_4
REMARK    4  A    between atoms: C_8  and  C_9
REMARK    5  A    between atoms: C_9  and  C_10
REMARK    6  A    between atoms: C_9  and  C_11
REMARK    7  A    between atoms: C_15  and  C_16
REMARK    8  A    between atoms: C_22  and  O_23
REMARK                            x       y       z     vdW  Elec       q    Type
REMARK                         _______ _______ _______ _____ _____    ______ ____
ROOT
ATOM      1  C   UNL     1       2.854   4.063  19.037  0.00  0.00    +0.000 C 
ATOM      2  C   UNL     1       3.495   4.958  20.128  0.00  0.00    +0.000 C 
ATOM      3  N   UNL     1       4.245   6.073  19.535  0.00  0.00    +0.000 NA
ATOM      4  C   UNL     1       5.413   5.532  18.814  0.00  0.00    +0.000 C 
ATOM      5  C   UNL     1       4.969   4.567  17.688  0.00  0.00    +0.000 C 
ATOM      6  C   UNL     1       4.090   5.454  16.763  0.00  0.00    +0.000 C 
ATOM      7  N   UNL     1       2.934   6.024  17.495  0.00  0.00    +0.000 NA
ATOM      8  C   UNL     1       2.100   4.920  17.985  0.00  0.00    +0.000 C 
ATOM      9  C   UNL     1       3.390   6.877  18.621  0.00  0.00    +0.000 C 
ATOM     10  C   UNL     1       4.071   3.445  18.312  0.00  0.00    +0.000 C 
ENDROOT
BRANCH   9  11
ATOM     11  C   UNL     1       2.262   7.653  19.360  0.00  0.00    +0.000 A 
ATOM     12  C   UNL     1       1.625   8.754  18.767  0.00  0.00    +0.000 A 
ATOM     13  C   UNL     1       0.647   9.493  19.431  0.00  0.00    +0.000 A 
ATOM     14  C   UNL     1       0.238   9.130  20.720  0.00  0.00    +0.000 A 
ATOM     15  C   UNL     1       0.810   8.017  21.317  0.00  0.00    +0.000 A 
ATOM     16  C   UNL     1       1.796   7.292  20.633  0.00  0.00    +0.000 A 
ENDBRANCH   9  11
BRANCH   1  18
ATOM     17  C   UNL     1       1.404   3.336  21.080  0.00  0.00    +0.000 C 
ATOM     18  C   UNL     1       1.887   3.000  19.660  0.00  0.00    +0.000 C 
ATOM     19  C   UNL     1       0.654   2.733  18.778  0.00  0.00    +0.000 C 
ENDBRANCH   1  18
BRANCH   5  20
ATOM     20  C   UNL     1       6.165   3.887  16.935  0.00  0.00    +0.000 C 
ATOM     21  C   UNL     1       6.042   3.893  15.411  0.00  0.00    +0.000 C 
ATOM     22  C   UNL     1       7.538   4.478  17.319  0.00  0.00    +0.000 C 
ENDBRANCH   5  20
BRANCH  10  23
ATOM     23  O   UNL     1       3.703   2.459  17.347  0.00  0.00    +0.000 OA
ATOM     24  H   UNL     1       2.737   2.387  17.309  0.00  0.00    +0.000 HD
ENDBRANCH  10  23
TORSDOF 4
ENDMDL
MODEL 5
REMARK VINA RESULT:      -6.6      2.402      5.201
REMARK  Name = 
REMARK  8 active torsions:
REMARK  status: ('A' for Active; 'I' for Inactive)
REMARK    1  A    between atoms: C_1  and  C_2
REMARK    2  A    between atoms: C_2  and  C_3
REMARK    3  A    between atoms: C_2  and  C_4
REMARK    4  A    between atoms: C_8  and  C_9
REMARK    5  A    between atoms: C_9  and  C_10
REMARK    6  A    between atoms: C_9  and  C_11
REMARK    7  A    between atoms: C_15  and  C_16
REMARK    8  A    between atoms: C_22  and  O_23
REMARK                            x       y       z     vdW  Elec       q    Type
REMARK                         _______ _______ _______ _____ _____    ______ ____
ROOT
ATOM      1  C   UNL     1       3.228   5.911  18.355  0.00  0.00    +0.000 C 
ATOM      2  C   UNL     1       4.217   5.816  19.544  0.00  0.00    +0.000 C 
ATOM      3  N   UNL     1       5.255   4.805  19.300  0.00  0.00    +0.000 NA
ATOM      4  C   UNL     1       4.624   3.471  19.278  0.00  0.00    +0.000 C 
ATOM      5  C   UNL     1       3.559   3.381  18.159  0.00  0.00    +0.000 C 
ATOM      6  C   UNL     1       4.363   3.652  16.858  0.00  0.00    +0.000 C 
ATOM      7  N   UNL     1       5.023   4.979  16.892  0.00  0.00    +0.000 NA
ATOM      8  C   UNL     1       3.988   6.014  17.005  0.00  0.00    +0.000 C 
ATOM      9  C   UNL     1       5.977   5.065  18.027  0.00  0.00    +0.000 C 
ATOM     10  C   UNL     1       2.521   4.537  18.360  0.00  0.00    +0.000 C 
ENDROOT
BRANCH   9  11
ATOM     11  C   UNL     1       6.842   6.358  18.065  0.00  0.00    +0.000 A 
ATOM     12  C   UNL     1       7.917   6.490  18.958  0.00  0.00    +0.000 A 
ATOM     13  C   UNL     1       8.674   7.657  19.043  0.00  0.00    +0.000 A 
ATOM     14  C   UNL     1       8.402   8.741  18.198  0.00  0.00    +0.000 A 
ATOM     15  C   UNL     1       7.379   8.626  17.269  0.00  0.00    +0.000 A 
ATOM     16  C   UNL     1       6.628   7.446  17.205  0.00  0.00    +0.000 A 
ENDBRANCH   9  11
BRANCH   1  18
ATOM     17  C   UNL     1       1.999   7.548  19.973  0.00  0.00    +0.000 C 
ATOM     18  C   UNL     1       2.249   7.124  18.517  0.00  0.00    +0.000 C 
ATOM     19  C   UNL     1       2.704   8.360  17.721  0.00  0.00    +0.000 C 
ENDBRANCH   1  18
BRANCH   5  20
ATOM     20  C   UNL     1       2.787   2.016  18.134  0.00  0.00    +0.000 C 
ATOM     21  C   UNL     1       3.651   0.793  18.441  0.00  0.00    +0.000 C 
ATOM     22  C   UNL     1       1.558   1.997  19.067  0.00  0.00    +0.000 C 
ENDBRANCH   5  20
BRANCH  10  23
ATOM     23  O   UNL     1       1.449   4.459  17.419  0.00  0.00    +0.000 OA
ATOM     24  H   UNL     1       0.768   5.112  17.648  0.00  0.00    +0.000 HD
ENDBRANCH  10  23
TORSDOF 4
ENDMDL
MODEL 6
REMARK VINA RESULT:      -6.1      1.973      5.500
REMARK  Name = 
REMARK  8 active torsions:
REMARK  status: ('A' for Active; 'I' for Inactive)
REMARK    1  A    between atoms: C_1  and  C_2
REMARK    2  A    between atoms: C_2  and  C_3
REMARK    3  A    between atoms: C_2  and  C_4
REMARK    4  A    between atoms: C_8  and  C_9
REMARK    5  A    between atoms: C_9  and  C_10
REMARK    6  A    between atoms: C_9  and  C_11
REMARK    7  A    between atoms: C_15  and  C_16
REMARK    8  A    between atoms: C_22  and  O_23
REMARK                            x       y       z     vdW  Elec       q    Type
REMARK                         _______ _______ _______ _____ _____    ______ ____
ROOT
ATOM      1  C   UNL     1       5.787   5.410  18.241  0.00  0.00    +0.000 C 
ATOM      2  C   UNL     1       6.286   4.026  17.755  0.00  0.00    +0.000 C 
ATOM      3  N   UNL     1       5.209   3.265  17.106  0.00  0.00    +0.000 NA
ATOM      4  C   UNL     1       4.191   2.921  18.118  0.00  0.00    +0.000 C 
ATOM      5  C   UNL     1       3.593   4.197  18.756  0.00  0.00    +0.000 C 
ATOM      6  C   UNL     1       2.966   4.956  17.554  0.00  0.00    +0.000 C 
ATOM      7  N   UNL     1       3.982   5.275  16.522  0.00  0.00    +0.000 NA
ATOM      8  C   UNL     1       5.001   6.144  17.122  0.00  0.00    +0.000 C 
ATOM      9  C   UNL     1       4.599   4.034  15.989  0.00  0.00    +0.000 C 
ATOM     10  C   UNL     1       4.761   5.060  19.343  0.00  0.00    +0.000 C 
ENDROOT
BRANCH   9  11
ATOM     11  C   UNL     1       5.566   4.242  14.787  0.00  0.00    +0.000 A 
ATOM     12  C   UNL     1       5.331   3.628  13.547  0.00  0.00    +0.000 A 
ATOM     13  C   UNL     1       6.209   3.761  12.473  0.00  0.00    +0.000 A 
ATOM     14  C   UNL     1       7.356   4.556  12.590  0.00  0.00    +0.000 A 
ATOM     15  C   UNL     1       7.593   5.218  13.786  0.00  0.00    +0.000 A 
ATOM     16  C   UNL     1       6.700   5.065  14.854  0.00  0.00    +0.000 A 
ENDBRANCH   9  11
BRANCH   1  18
ATOM     17  C   UNL     1       8.135   5.520  19.373  0.00  0.00    +0.000 C 
ATOM     18  C   UNL     1       6.972   6.304  18.744  0.00  0.00    +0.000 C 
ATOM     19  C   UNL     1       7.538   7.211  17.638  0.00  0.00    +0.000 C 
ENDBRANCH   1  18
BRANCH   5  20
ATOM     20  C   UNL     1       2.565   3.903  19.904  0.00  0.00    +0.000 C 
ATOM     21  C   UNL     1       1.155   3.566  19.421  0.00  0.00    +0.000 C 
ATOM     22  C   UNL     1       3.033   2.793  20.868  0.00  0.00    +0.000 C 
ENDBRANCH   5  20
BRANCH  10  23
ATOM     23  O   UNL     1       4.277   6.211  20.038  0.00  0.00    +0.000 OA
ATOM     24  H   UNL     1       3.307   6.219  20.015  0.00  0.00    +0.000 HD
ENDBRANCH  10  23
TORSDOF 4
ENDMDL
MODEL 7
REMARK VINA RESULT:      -5.9      1.996      5.533
REMARK  Name = 
REMARK  8 active torsions:
REMARK  status: ('A' for Active; 'I' for Inactive)
REMARK    1  A    between atoms: C_1  and  C_2
REMARK    2  A    between atoms: C_2  and  C_3
REMARK    3  A    between atoms: C_2  and  C_4
REMARK    4  A    between atoms: C_8  and  C_9
REMARK    5  A    between atoms: C_9  and  C_10
REMARK    6  A    between atoms: C_9  and  C_11
REMARK    7  A    between atoms: C_15  and  C_16
REMARK    8  A    between atoms: C_22  and  O_23
REMARK                            x       y       z     vdW  Elec       q    Type
REMARK                         _______ _______ _______ _____ _____    ______ ____
ROOT
ATOM      1  C   UNL     1       5.758   5.443  18.164  0.00  0.00    +0.000 C 
ATOM      2  C   UNL     1       6.298   4.061  17.716  0.00  0.00    +0.000 C 
ATOM      3  N   UNL     1       5.253   3.264  17.060  0.00  0.00    +0.000 NA
ATOM      4  C   UNL     1       4.223   2.915  18.058  0.00  0.00    +0.000 C 
ATOM      5  C   UNL     1       3.583   4.189  18.659  0.00  0.00    +0.000 C 
ATOM      6  C   UNL     1       2.963   4.910  17.430  0.00  0.00    +0.000 C 
ATOM      7  N   UNL     1       3.993   5.233  16.413  0.00  0.00    +0.000 NA
ATOM      8  C   UNL     1       4.979   6.137  17.015  0.00  0.00    +0.000 C 
ATOM      9  C   UNL     1       4.649   3.997  15.916  0.00  0.00    +0.000 C 
ATOM     10  C   UNL     1       4.718   5.090  19.253  0.00  0.00    +0.000 C 
ENDROOT
BRANCH   9  11
ATOM     11  C   UNL     1       5.635   4.204  14.730  0.00  0.00    +0.000 A 
ATOM     12  C   UNL     1       6.758   5.038  14.852  0.00  0.00    +0.000 A 
ATOM     13  C   UNL     1       7.626   5.275  13.788  0.00  0.00    +0.000 A 
ATOM     14  C   UNL     1       7.421   4.648  12.552  0.00  0.00    +0.000 A 
ATOM     15  C   UNL     1       6.350   3.778  12.412  0.00  0.00    +0.000 A 
ATOM     16  C   UNL     1       5.486   3.559  13.493  0.00  0.00    +0.000 A 
ENDBRANCH   9  11
BRANCH   1  18
ATOM     17  C   UNL     1       8.065   5.631  19.368  0.00  0.00    +0.000 C 
ATOM     18  C   UNL     1       6.912   6.373  18.674  0.00  0.00    +0.000 C 
ATOM     19  C   UNL     1       7.501   7.250  17.555  0.00  0.00    +0.000 C 
ENDBRANCH   1  18
BRANCH   5  20
ATOM     20  C   UNL     1       2.538   3.893  19.791  0.00  0.00    +0.000 C 
ATOM     21  C   UNL     1       1.147   3.508  19.286  0.00  0.00    +0.000 C 
ATOM     22  C   UNL     1       3.014   2.818  20.790  0.00  0.00    +0.000 C 
ENDBRANCH   5  20
BRANCH  10  23
ATOM     23  O   UNL     1       4.194   6.242  19.915  0.00  0.00    +0.000 OA
ATOM     24  H   UNL     1       3.508   5.970  20.545  0.00  0.00    +0.000 HD
ENDBRANCH  10  23
TORSDOF 4
ENDMDL
MODEL 8
REMARK VINA RESULT:      -5.8      7.192      9.863
REMARK  Name = 
REMARK  8 active torsions:
REMARK  status: ('A' for Active; 'I' for Inactive)
REMARK    1  A    between atoms: C_1  and  C_2
REMARK    2  A    between atoms: C_2  and  C_3
REMARK    3  A    between atoms: C_2  and  C_4
REMARK    4  A    between atoms: C_8  and  C_9
REMARK    5  A    between atoms: C_9  and  C_10
REMARK    6  A    between atoms: C_9  and  C_11
REMARK    7  A    between atoms: C_15  and  C_16
REMARK    8  A    between atoms: C_22  and  O_23
REMARK                            x       y       z     vdW  Elec       q    Type
REMARK                         _______ _______ _______ _____ _____    ______ ____
ROOT
ATOM      1  C   UNL     1       0.991  11.866  19.136  0.00  0.00    +0.000 C 
ATOM      2  C   UNL     1       1.175  11.834  20.675  0.00  0.00    +0.000 C 
ATOM      3  N   UNL     1       1.239  13.190  21.235  0.00  0.00    +0.000 NA
ATOM      4  C   UNL     1       2.474  13.844  20.762  0.00  0.00    +0.000 C 
ATOM      5  C   UNL     1       2.494  13.935  19.217  0.00  0.00    +0.000 C 
ATOM      6  C   UNL     1       1.236  14.782  18.878  0.00  0.00    +0.000 C 
ATOM      7  N   UNL     1      -0.003  14.142  19.381  0.00  0.00    +0.000 NA
ATOM      8  C   UNL     1      -0.152  12.834  18.731  0.00  0.00    +0.000 C 
ATOM      9  C   UNL     1       0.043  13.990  20.857  0.00  0.00    +0.000 C 
ATOM     10  C   UNL     1       2.307  12.496  18.626  0.00  0.00    +0.000 C 
ENDROOT
BRANCH   9  11
ATOM     11  C   UNL     1      -1.271  13.474  21.510  0.00  0.00    +0.000 A 
ATOM     12  C   UNL     1      -2.526  13.758  20.947  0.00  0.00    +0.000 A 
ATOM     13  C   UNL     1      -3.717  13.347  21.541  0.00  0.00    +0.000 A 
ATOM     14  C   UNL     1      -3.698  12.593  22.722  0.00  0.00    +0.000 A 
ATOM     15  C   UNL     1      -2.474  12.252  23.278  0.00  0.00    +0.000 A 
ATOM     16  C   UNL     1      -1.289  12.680  22.667  0.00  0.00    +0.000 A 
ENDBRANCH   9  11
BRANCH   1  18
ATOM     17  C   UNL     1       1.164   9.284  19.476  0.00  0.00    +0.000 C 
ATOM     18  C   UNL     1       0.715  10.434  18.560  0.00  0.00    +0.000 C 
ATOM     19  C   UNL     1      -0.765  10.219  18.199  0.00  0.00    +0.000 C 
ENDBRANCH   1  18
BRANCH   5  20
ATOM     20  C   UNL     1       3.820  14.543  18.640  0.00  0.00    +0.000 C 
ATOM     21  C   UNL     1       3.613  15.660  17.618  0.00  0.00    +0.000 C 
ATOM     22  C   UNL     1       4.781  15.050  19.736  0.00  0.00    +0.000 C 
ENDBRANCH   5  20
BRANCH  10  23
ATOM     23  O   UNL     1       2.413  12.487  17.201  0.00  0.00    +0.000 OA
ATOM     24  H   UNL     1       2.427  11.571  16.883  0.00  0.00    +0.000 HD
ENDBRANCH  10  23
TORSDOF 4
ENDMDL
MODEL 9
REMARK VINA RESULT:      -5.8      8.266     10.888
REMARK  Name = 
REMARK  8 active torsions:
REMARK  status: ('A' for Active; 'I' for Inactive)
REMARK    1  A    between atoms: C_1  and  C_2
REMARK    2  A    between atoms: C_2  and  C_3
REMARK    3  A    between atoms: C_2  and  C_4
REMARK    4  A    between atoms: C_8  and  C_9
REMARK    5  A    between atoms: C_9  and  C_10
REMARK    6  A    between atoms: C_9  and  C_11
REMARK    7  A    between atoms: C_15  and  C_16
REMARK    8  A    between atoms: C_22  and  O_23
REMARK                            x       y       z     vdW  Elec       q    Type
REMARK                         _______ _______ _______ _____ _____    ______ ____
ROOT
ATOM      1  C   UNL     1      10.523  13.558  18.955  0.00  0.00    +0.000 C 
ATOM      2  C   UNL     1      11.207  13.943  20.291  0.00  0.00    +0.000 C 
ATOM      3  N   UNL     1      10.593  15.140  20.882  0.00  0.00    +0.000 NA
ATOM      4  C   UNL     1      10.874  16.299  20.013  0.00  0.00    +0.000 C 
ATOM      5  C   UNL     1      10.292  16.081  18.596  0.00  0.00    +0.000 C 
ATOM      6  C   UNL     1       8.767  15.911  18.843  0.00  0.00    +0.000 C 
ATOM      7  N   UNL     1       8.485  14.766  19.741  0.00  0.00    +0.000 NA
ATOM      8  C   UNL     1       8.978  13.539  19.104  0.00  0.00    +0.000 C 
ATOM      9  C   UNL     1       9.128  14.964  21.065  0.00  0.00    +0.000 C 
ATOM     10  C   UNL     1      10.862  14.741  18.019  0.00  0.00    +0.000 C 
ENDROOT
BRANCH   9  11
ATOM     11  C   UNL     1       8.767  13.898  22.140  0.00  0.00    +0.000 A 
ATOM     12  C   UNL     1       8.661  14.238  23.498  0.00  0.00    +0.000 A 
ATOM     13  C   UNL     1       8.387  13.290  24.482  0.00  0.00    +0.000 A 
ATOM     14  C   UNL     1       8.170  11.950  24.135  0.00  0.00    +0.000 A 
ATOM     15  C   UNL     1       8.217  11.589  22.797  0.00  0.00    +0.000 A 
ATOM     16  C   UNL     1       8.499  12.557  21.825  0.00  0.00    +0.000 A 
ENDBRANCH   9  11
BRANCH   1  18
ATOM     17  C   UNL     1      12.160  11.550  19.265  0.00  0.00    +0.000 C 
ATOM     18  C   UNL     1      11.032  12.173  18.427  0.00  0.00    +0.000 C 
ATOM     19  C   UNL     1       9.899  11.140  18.293  0.00  0.00    +0.000 C 
ENDBRANCH   1  18
BRANCH   5  20
ATOM     20  C   UNL     1      10.628  17.239  17.593  0.00  0.00    +0.000 C 
ATOM     21  C   UNL     1       9.801  18.509  17.789  0.00  0.00    +0.000 C 
ATOM     22  C   UNL     1      12.124  17.621  17.589  0.00  0.00    +0.000 C 
ENDBRANCH   5  20
BRANCH  10  23
ATOM     23  O   UNL     1      10.444  14.521  16.671  0.00  0.00    +0.000 OA
ATOM     24  H   UNL     1      11.037  13.880  16.248  0.00  0.00    +0.000 HD
ENDBRANCH  10  23
TORSDOF 4
ENDMDL
