MODEL 1
REMARK VINA RESULT:      -8.4      0.000      0.000
REMARK  Name = 
REMARK  9 active torsions:
REMARK  status: ('A' for Active; 'I' for Inactive)
REMARK    1  A    between atoms: C_2  and  C_3
REMARK    2  A    between atoms: C_3  and  N_4
REMARK    3  A    between atoms: C_6  and  C_7
REMARK    4  A    between atoms: C_7  and  O_9
REMARK    5  A    between atoms: O_9  and  C_10
REMARK    6  A    between atoms: C_10  and  C_11
REMARK    7  A    between atoms: C_13  and  C_14
REMARK    8  A    between atoms: C_18  and  C_20
REMARK    9  A    between atoms: C_27  and  C_28
REMARK                            x       y       z     vdW  Elec       q    Type
REMARK                         _______ _______ _______ _____ _____    ______ ____
ROOT
ATOM      1  C   UNL     1       4.346   5.989  17.375  0.00  0.00    +0.000 A 
ATOM      2  S   UNL     1       3.793   7.618  17.548  0.00  0.00    +0.000 S 
ATOM      3  C   UNL     1       2.775   7.140  18.828  0.00  0.00    +0.000 A 
ATOM      4  N   UNL     1       2.081   8.146  19.451  0.00  0.00    +0.000 N 
ATOM      5  C   UNL     1       1.342   7.894  20.591  0.00  0.00    +0.000 C 
ATOM      6  O   UNL     1       1.309   6.836  21.212  0.00  0.00    +0.000 OA
ATOM      7  N   UNL     1       2.743   5.861  19.078  0.00  0.00    +0.000 NA
ATOM      8  C   UNL     1       3.600   5.182  18.233  0.00  0.00    +0.000 A 
ATOM      9  C   UNL     1       3.636   3.701  18.379  0.00  0.00    +0.000 C 
ATOM     10  H   UNL     1       2.116   9.053  19.018  0.00  0.00    +0.000 HD
ENDROOT
BRANCH   5  11
ATOM     11  C   UNL     1       0.504   9.017  21.116  0.00  0.00    +0.000 A 
ATOM     12  C   UNL     1       0.210   9.015  22.490  0.00  0.00    +0.000 A 
ATOM     13  C   UNL     1      -0.572  10.021  23.056  0.00  0.00    +0.000 A 
ATOM     14  C   UNL     1      -1.062  11.049  22.253  0.00  0.00    +0.000 A 
ATOM     15  C   UNL     1      -0.760  11.073  20.891  0.00  0.00    +0.000 A 
ATOM     16  C   UNL     1       0.026  10.065  20.320  0.00  0.00    +0.000 A 
ENDBRANCH   5  11
BRANCH   1  21
ATOM     17  N   UNL     1       6.679   5.250  16.716  0.00  0.00    +0.000 N 
ATOM     18  N   UNL     1       7.357   4.800  15.636  0.00  0.00    +0.000 NA
ATOM     19  C   UNL     1       6.457   4.788  14.639  0.00  0.00    +0.000 A 
ATOM     20  C   UNL     1       5.226   5.323  15.088  0.00  0.00    +0.000 A 
ATOM     21  C   UNL     1       5.367   5.577  16.442  0.00  0.00    +0.000 A 
BRANCH  19  22
ATOM     22  C   UNL     1       6.724   4.200  13.320  0.00  0.00    +0.000 C 
ATOM     23  O   UNL     1       7.470   4.724  12.498  0.00  0.00    +0.000 OA
BRANCH  22  24
ATOM     24  O   UNL     1       5.971   3.085  13.077  0.00  0.00    +0.000 OA
BRANCH  24  25
ATOM     25  C   UNL     1       5.702   2.799  11.699  0.00  0.00    +0.000 C 
ATOM     26  C   UNL     1       4.273   3.212  11.395  0.00  0.00    +0.000 C 
ENDBRANCH  24  25
ENDBRANCH  22  24
ENDBRANCH  19  22
BRANCH  17  27
ATOM     27  C   UNL     1       7.387   5.199  17.994  0.00  0.00    +0.000 C 
BRANCH  27  29
ATOM     28  C   UNL     1       7.754   7.672  17.704  0.00  0.00    +0.000 C 
ATOM     29  C   UNL     1       7.829   6.562  18.451  0.00  0.00    +0.000 C 
ENDBRANCH  27  29
ENDBRANCH  17  27
ENDBRANCH   1  21
TORSDOF 7
ENDMDL
MODEL 2
REMARK VINA RESULT:      -8.2      0.350      1.057
REMARK  Name = 
REMARK  9 active torsions:
REMARK  status: ('A' for Active; 'I' for Inactive)
REMARK    1  A    between atoms: C_2  and  C_3
REMARK    2  A    between atoms: C_3  and  N_4
REMARK    3  A    between atoms: C_6  and  C_7
REMARK    4  A    between atoms: C_7  and  O_9
REMARK    5  A    between atoms: O_9  and  C_10
REMARK    6  A    between atoms: C_10  and  C_11
REMARK    7  A    between atoms: C_13  and  C_14
REMARK    8  A    between atoms: C_18  and  C_20
REMARK    9  A    between atoms: C_27  and  C_28
REMARK                            x       y       z     vdW  Elec       q    Type
REMARK                         _______ _______ _______ _____ _____    ______ ____
ROOT
ATOM      1  C   UNL     1       4.338   5.877  17.284  0.00  0.00    +0.000 A 
ATOM      2  S   UNL     1       3.839   7.517  17.504  0.00  0.00    +0.000 S 
ATOM      3  C   UNL     1       2.796   7.034  18.762  0.00  0.00    +0.000 A 
ATOM      4  N   UNL     1       2.131   8.043  19.413  0.00  0.00    +0.000 N 
ATOM      5  C   UNL     1       1.377   7.780  20.540  0.00  0.00    +0.000 C 
ATOM      6  O   UNL     1       1.304   6.704  21.127  0.00  0.00    +0.000 OA
ATOM      7  N   UNL     1       2.720   5.750  18.972  0.00  0.00    +0.000 NA
ATOM      8  C   UNL     1       3.560   5.069  18.111  0.00  0.00    +0.000 A 
ATOM      9  C   UNL     1       3.545   3.584  18.210  0.00  0.00    +0.000 C 
ATOM     10  H   UNL     1       2.199   8.961  19.009  0.00  0.00    +0.000 HD
ENDROOT
BRANCH   5  11
ATOM     11  C   UNL     1       0.572   8.913  21.095  0.00  0.00    +0.000 A 
ATOM     12  C   UNL     1       0.128   9.892  20.190  0.00  0.00    +0.000 A 
ATOM     13  C   UNL     1      -0.620  10.985  20.627  0.00  0.00    +0.000 A 
ATOM     14  C   UNL     1      -0.941  11.105  21.978  0.00  0.00    +0.000 A 
ATOM     15  C   UNL     1      -0.523  10.129  22.883  0.00  0.00    +0.000 A 
ATOM     16  C   UNL     1       0.227   9.030  22.447  0.00  0.00    +0.000 A 
ENDBRANCH   5  11
BRANCH   1  21
ATOM     17  N   UNL     1       6.657   5.107  16.612  0.00  0.00    +0.000 N 
ATOM     18  N   UNL     1       7.327   4.660  15.525  0.00  0.00    +0.000 NA
ATOM     19  C   UNL     1       6.427   4.678  14.529  0.00  0.00    +0.000 A 
ATOM     20  C   UNL     1       5.206   5.228  14.987  0.00  0.00    +0.000 A 
ATOM     21  C   UNL     1       5.351   5.461  16.344  0.00  0.00    +0.000 A 
BRANCH  19  22
ATOM     22  C   UNL     1       6.683   4.105  13.202  0.00  0.00    +0.000 C 
ATOM     23  O   UNL     1       7.370   4.669  12.355  0.00  0.00    +0.000 OA
BRANCH  22  24
ATOM     24  O   UNL     1       5.986   2.949  12.983  0.00  0.00    +0.000 OA
BRANCH  24  25
ATOM     25  C   UNL     1       5.603   2.696  11.626  0.00  0.00    +0.000 C 
ATOM     26  C   UNL     1       6.210   1.372  11.196  0.00  0.00    +0.000 C 
ENDBRANCH  24  25
ENDBRANCH  22  24
ENDBRANCH  19  22
BRANCH  17  27
ATOM     27  C   UNL     1       7.365   5.025  17.889  0.00  0.00    +0.000 C 
BRANCH  27  29
ATOM     28  C   UNL     1       7.713   7.510  17.693  0.00  0.00    +0.000 C 
ATOM     29  C   UNL     1       7.738   6.383  18.417  0.00  0.00    +0.000 C 
ENDBRANCH  27  29
ENDBRANCH  17  27
ENDBRANCH   1  21
TORSDOF 7
ENDMDL
MODEL 3
REMARK VINA RESULT:      -8.0      1.877      3.371
REMARK  Name = 
REMARK  9 active torsions:
REMARK  status: ('A' for Active; 'I' for Inactive)
REMARK    1  A    between atoms: C_2  and  C_3
REMARK    2  A    between atoms: C_3  and  N_4
REMARK    3  A    between atoms: C_6  and  C_7
REMARK    4  A    between atoms: C_7  and  O_9
REMARK    5  A    between atoms: O_9  and  C_10
REMARK    6  A    between atoms: C_10  and  C_11
REMARK    7  A    between atoms: C_13  and  C_14
REMARK    8  A    between atoms: C_18  and  C_20
REMARK    9  A    between atoms: C_27  and  C_28
REMARK                            x       y       z     vdW  Elec       q    Type
REMARK                         _______ _______ _______ _____ _____    ______ ____
ROOT
ATOM      1  C   UNL     1       2.925   6.369  18.917  0.00  0.00    +0.000 A 
ATOM      2  S   UNL     1       2.323   7.920  18.447  0.00  0.00    +0.000 S 
ATOM      3  C   UNL     1       1.530   8.069  19.948  0.00  0.00    +0.000 A 
ATOM      4  N   UNL     1       0.885   9.260  20.171  0.00  0.00    +0.000 N 
ATOM      5  C   UNL     1       0.337   9.547  21.407  0.00  0.00    +0.000 C 
ATOM      6  O   UNL     1       0.449   8.867  22.423  0.00  0.00    +0.000 OA
ATOM      7  N   UNL     1       1.600   7.030  20.731  0.00  0.00    +0.000 NA
ATOM      8  C   UNL     1       2.356   6.033  20.143  0.00  0.00    +0.000 A 
ATOM      9  C   UNL     1       2.487   4.765  20.911  0.00  0.00    +0.000 C 
ATOM     10  H   UNL     1       0.810   9.886  19.387  0.00  0.00    +0.000 HD
ENDROOT
BRANCH   5  11
ATOM     11  C   UNL     1      -0.470  10.802  21.514  0.00  0.00    +0.000 A 
ATOM     12  C   UNL     1      -0.922  11.171  22.792  0.00  0.00    +0.000 A 
ATOM     13  C   UNL     1      -1.687  12.322  22.976  0.00  0.00    +0.000 A 
ATOM     14  C   UNL     1      -2.001  13.125  21.881  0.00  0.00    +0.000 A 
ATOM     15  C   UNL     1      -1.542  12.780  20.610  0.00  0.00    +0.000 A 
ATOM     16  C   UNL     1      -0.773  11.625  20.422  0.00  0.00    +0.000 A 
ENDBRANCH   5  11
BRANCH   1  21
ATOM     17  N   UNL     1       3.513   4.436  17.386  0.00  0.00    +0.000 N 
ATOM     18  N   UNL     1       4.549   3.979  16.645  0.00  0.00    +0.000 NA
ATOM     19  C   UNL     1       5.541   4.861  16.850  0.00  0.00    +0.000 A 
ATOM     20  C   UNL     1       5.142   5.829  17.803  0.00  0.00    +0.000 A 
ATOM     21  C   UNL     1       3.817   5.571  18.109  0.00  0.00    +0.000 A 
BRANCH  19  22
ATOM     22  C   UNL     1       6.801   4.844  16.097  0.00  0.00    +0.000 C 
ATOM     23  O   UNL     1       7.867   4.493  16.593  0.00  0.00    +0.000 OA
BRANCH  22  24
ATOM     24  O   UNL     1       6.671   5.365  14.839  0.00  0.00    +0.000 OA
BRANCH  24  25
ATOM     25  C   UNL     1       7.216   4.576  13.775  0.00  0.00    +0.000 C 
ATOM     26  C   UNL     1       6.085   3.786  13.139  0.00  0.00    +0.000 C 
ENDBRANCH  24  25
ENDBRANCH  22  24
ENDBRANCH  19  22
BRANCH  17  27
ATOM     27  C   UNL     1       2.235   3.748  17.210  0.00  0.00    +0.000 C 
BRANCH  27  29
ATOM     28  C   UNL     1       1.049   2.186  18.787  0.00  0.00    +0.000 C 
ATOM     29  C   UNL     1       2.131   2.519  18.070  0.00  0.00    +0.000 C 
ENDBRANCH  27  29
ENDBRANCH  17  27
ENDBRANCH   1  21
TORSDOF 7
ENDMDL
MODEL 4
REMARK VINA RESULT:      -8.0      1.799      3.300
REMARK  Name = 
REMARK  9 active torsions:
REMARK  status: ('A' for Active; 'I' for Inactive)
REMARK    1  A    between atoms: C_2  and  C_3
REMARK    2  A    between atoms: C_3  and  N_4
REMARK    3  A    between atoms: C_6  and  C_7
REMARK    4  A    between atoms: C_7  and  O_9
REMARK    5  A    between atoms: O_9  and  C_10
REMARK    6  A    between atoms: C_10  and  C_11
REMARK    7  A    between atoms: C_13  and  C_14
REMARK    8  A    between atoms: C_18  and  C_20
REMARK    9  A    between atoms: C_27  and  C_28
REMARK                            x       y       z     vdW  Elec       q    Type
REMARK                         _______ _______ _______ _____ _____    ______ ____
ROOT
ATOM      1  C   UNL     1       2.898   6.455  18.855  0.00  0.00    +0.000 A 
ATOM      2  S   UNL     1       2.301   8.021  18.432  0.00  0.00    +0.000 S 
ATOM      3  C   UNL     1       1.517   8.133  19.941  0.00  0.00    +0.000 A 
ATOM      4  N   UNL     1       0.880   9.320  20.201  0.00  0.00    +0.000 N 
ATOM      5  C   UNL     1       0.339   9.575  21.447  0.00  0.00    +0.000 C 
ATOM      6  O   UNL     1       0.453   8.866  22.443  0.00  0.00    +0.000 OA
ATOM      7  N   UNL     1       1.586   7.071  20.694  0.00  0.00    +0.000 NA
ATOM      8  C   UNL     1       2.333   6.087  20.075  0.00  0.00    +0.000 A 
ATOM      9  C   UNL     1       2.461   4.797  20.806  0.00  0.00    +0.000 C 
ATOM     10  H   UNL     1       0.804   9.968  19.435  0.00  0.00    +0.000 HD
ENDROOT
BRANCH   5  11
ATOM     11  C   UNL     1      -0.461  10.830  21.593  0.00  0.00    +0.000 A 
ATOM     12  C   UNL     1      -0.775  11.536  20.419  0.00  0.00    +0.000 A 
ATOM     13  C   UNL     1      -1.510  12.719  20.470  0.00  0.00    +0.000 A 
ATOM     14  C   UNL     1      -1.949  13.207  21.699  0.00  0.00    +0.000 A 
ATOM     15  C   UNL     1      -1.661  12.505  22.870  0.00  0.00    +0.000 A 
ATOM     16  C   UNL     1      -0.924  11.316  22.822  0.00  0.00    +0.000 A 
ENDBRANCH   5  11
BRANCH   1  21
ATOM     17  N   UNL     1       3.511   4.477  17.393  0.00  0.00    +0.000 N 
ATOM     18  N   UNL     1       4.515   4.052  16.593  0.00  0.00    +0.000 NA
ATOM     19  C   UNL     1       5.447   5.016  16.661  0.00  0.00    +0.000 A 
ATOM     20  C   UNL     1       5.052   6.011  17.587  0.00  0.00    +0.000 A 
ATOM     21  C   UNL     1       3.781   5.676  18.021  0.00  0.00    +0.000 A 
BRANCH  19  22
ATOM     22  C   UNL     1       6.640   5.044  15.804  0.00  0.00    +0.000 C 
ATOM     23  O   UNL     1       7.474   5.943  15.856  0.00  0.00    +0.000 OA
BRANCH  22  24
ATOM     24  O   UNL     1       6.650   4.036  14.880  0.00  0.00    +0.000 OA
BRANCH  24  25
ATOM     25  C   UNL     1       6.792   4.440  13.513  0.00  0.00    +0.000 C 
ATOM     26  C   UNL     1       6.007   3.473  12.645  0.00  0.00    +0.000 C 
ENDBRANCH  24  25
ENDBRANCH  22  24
ENDBRANCH  19  22
BRANCH  17  27
ATOM     27  C   UNL     1       2.281   3.686  17.368  0.00  0.00    +0.000 C 
BRANCH  27  29
ATOM     28  C   UNL     1       3.116   1.770  18.769  0.00  0.00    +0.000 C 
ATOM     29  C   UNL     1       2.538   2.232  17.653  0.00  0.00    +0.000 C 
ENDBRANCH  27  29
ENDBRANCH  17  27
ENDBRANCH   1  21
TORSDOF 7
ENDMDL
MODEL 5
REMARK VINA RESULT:      -7.6      2.270      4.050
REMARK  Name = 
REMARK  9 active torsions:
REMARK  status: ('A' for Active; 'I' for Inactive)
REMARK    1  A    between atoms: C_2  and  C_3
REMARK    2  A    between atoms: C_3  and  N_4
REMARK    3  A    between atoms: C_6  and  C_7
REMARK    4  A    between atoms: C_7  and  O_9
REMARK    5  A    between atoms: O_9  and  C_10
REMARK    6  A    between atoms: C_10  and  C_11
REMARK    7  A    between atoms: C_13  and  C_14
REMARK    8  A    between atoms: C_18  and  C_20
REMARK    9  A    between atoms: C_27  and  C_28
REMARK                            x       y       z     vdW  Elec       q    Type
REMARK                         _______ _______ _______ _____ _____    ______ ____
ROOT
ATOM      1  C   UNL     1       2.607   6.861  19.008  0.00  0.00    +0.000 A 
ATOM      2  S   UNL     1       1.997   8.426  18.598  0.00  0.00    +0.000 S 
ATOM      3  C   UNL     1       1.216   8.520  20.110  0.00  0.00    +0.000 A 
ATOM      4  N   UNL     1       0.571   9.701  20.379  0.00  0.00    +0.000 N 
ATOM      5  C   UNL     1       0.032   9.943  21.629  0.00  0.00    +0.000 C 
ATOM      6  O   UNL     1       0.154   9.228  22.620  0.00  0.00    +0.000 OA
ATOM      7  N   UNL     1       1.296   7.455  20.855  0.00  0.00    +0.000 NA
ATOM      8  C   UNL     1       2.049   6.480  20.227  0.00  0.00    +0.000 A 
ATOM      9  C   UNL     1       2.189   5.187  20.949  0.00  0.00    +0.000 C 
ATOM     10  H   UNL     1       0.488  10.353  19.619  0.00  0.00    +0.000 HD
ENDROOT
BRANCH   5  11
ATOM     11  C   UNL     1      -0.777  11.191  21.786  0.00  0.00    +0.000 A 
ATOM     12  C   UNL     1      -1.458  11.370  23.003  0.00  0.00    +0.000 A 
ATOM     13  C   UNL     1      -2.240  12.502  23.226  0.00  0.00    +0.000 A 
ATOM     14  C   UNL     1      -2.342  13.476  22.236  0.00  0.00    +0.000 A 
ATOM     15  C   UNL     1      -1.655  13.321  21.031  0.00  0.00    +0.000 A 
ATOM     16  C   UNL     1      -0.868  12.186  20.804  0.00  0.00    +0.000 A 
ENDBRANCH   5  11
BRANCH   1  21
ATOM     17  N   UNL     1       3.229   4.900  17.526  0.00  0.00    +0.000 N 
ATOM     18  N   UNL     1       4.235   4.488  16.722  0.00  0.00    +0.000 NA
ATOM     19  C   UNL     1       5.162   5.456  16.798  0.00  0.00    +0.000 A 
ATOM     20  C   UNL     1       4.763   6.440  17.734  0.00  0.00    +0.000 A 
ATOM     21  C   UNL     1       3.493   6.094  18.166  0.00  0.00    +0.000 A 
BRANCH  19  22
ATOM     22  C   UNL     1       6.353   5.499  15.941  0.00  0.00    +0.000 C 
ATOM     23  O   UNL     1       6.301   5.356  14.723  0.00  0.00    +0.000 OA
BRANCH  22  24
ATOM     24  O   UNL     1       7.515   5.598  16.656  0.00  0.00    +0.000 OA
BRANCH  24  25
ATOM     25  C   UNL     1       7.668   4.667  17.734  0.00  0.00    +0.000 C 
ATOM     26  C   UNL     1       8.017   5.444  18.991  0.00  0.00    +0.000 C 
ENDBRANCH  24  25
ENDBRANCH  22  24
ENDBRANCH  19  22
BRANCH  17  27
ATOM     27  C   UNL     1       2.003   4.104  17.494  0.00  0.00    +0.000 C 
BRANCH  27  29
ATOM     28  C   UNL     1       1.643   2.091  18.961  0.00  0.00    +0.000 C 
ATOM     29  C   UNL     1       2.242   2.681  17.917  0.00  0.00    +0.000 C 
ENDBRANCH  27  29
ENDBRANCH  17  27
ENDBRANCH   1  21
TORSDOF 7
ENDMDL
MODEL 6
REMARK VINA RESULT:      -7.4      2.055      3.695
REMARK  Name = 
REMARK  9 active torsions:
REMARK  status: ('A' for Active; 'I' for Inactive)
REMARK    1  A    between atoms: C_2  and  C_3
REMARK    2  A    between atoms: C_3  and  N_4
REMARK    3  A    between atoms: C_6  and  C_7
REMARK    4  A    between atoms: C_7  and  O_9
REMARK    5  A    between atoms: O_9  and  C_10
REMARK    6  A    between atoms: C_10  and  C_11
REMARK    7  A    between atoms: C_13  and  C_14
REMARK    8  A    between atoms: C_18  and  C_20
REMARK    9  A    between atoms: C_27  and  C_28
REMARK                            x       y       z     vdW  Elec       q    Type
REMARK                         _______ _______ _______ _____ _____    ______ ____
ROOT
ATOM      1  C   UNL     1       2.788   6.966  18.600  0.00  0.00    +0.000 A 
ATOM      2  S   UNL     1       2.285   8.489  17.955  0.00  0.00    +0.000 S 
ATOM      3  C   UNL     1       1.513   8.860  19.427  0.00  0.00    +0.000 A 
ATOM      4  N   UNL     1       0.948  10.109  19.511  0.00  0.00    +0.000 N 
ATOM      5  C   UNL     1       0.427  10.570  20.705  0.00  0.00    +0.000 C 
ATOM      6  O   UNL     1       0.500  10.005  21.792  0.00  0.00    +0.000 OA
ATOM      7  N   UNL     1       1.520   7.915  20.324  0.00  0.00    +0.000 NA
ATOM      8  C   UNL     1       2.206   6.810  19.856  0.00  0.00    +0.000 A 
ATOM      9  C   UNL     1       2.259   5.633  20.764  0.00  0.00    +0.000 C 
ATOM     10  H   UNL     1       0.909  10.644  18.661  0.00  0.00    +0.000 HD
ENDROOT
BRANCH   5  11
ATOM     11  C   UNL     1      -0.296  11.879  20.666  0.00  0.00    +0.000 A 
ATOM     12  C   UNL     1       0.124  12.820  19.711  0.00  0.00    +0.000 A 
ATOM     13  C   UNL     1      -0.493  14.066  19.614  0.00  0.00    +0.000 A 
ATOM     14  C   UNL     1      -1.547  14.383  20.469  0.00  0.00    +0.000 A 
ATOM     15  C   UNL     1      -1.986  13.450  21.408  0.00  0.00    +0.000 A 
ATOM     16  C   UNL     1      -1.370  12.197  21.507  0.00  0.00    +0.000 A 
ENDBRANCH   5  11
BRANCH   1  21
ATOM     17  N   UNL     1       3.267   4.785  17.400  0.00  0.00    +0.000 N 
ATOM     18  N   UNL     1       4.249   4.188  16.687  0.00  0.00    +0.000 NA
ATOM     19  C   UNL     1       5.256   5.076  16.669  0.00  0.00    +0.000 A 
ATOM     20  C   UNL     1       4.925   6.203  17.459  0.00  0.00    +0.000 A 
ATOM     21  C   UNL     1       3.622   6.025  17.891  0.00  0.00    +0.000 A 
BRANCH  19  22
ATOM     22  C   UNL     1       6.464   4.907  15.852  0.00  0.00    +0.000 C 
ATOM     23  O   UNL     1       7.406   5.693  15.888  0.00  0.00    +0.000 OA
BRANCH  22  24
ATOM     24  O   UNL     1       6.368   3.859  14.979  0.00  0.00    +0.000 OA
BRANCH  24  25
ATOM     25  C   UNL     1       6.688   4.150  13.613  0.00  0.00    +0.000 C 
ATOM     26  C   UNL     1       5.664   3.464  12.726  0.00  0.00    +0.000 C 
ENDBRANCH  24  25
ENDBRANCH  22  24
ENDBRANCH  19  22
BRANCH  17  27
ATOM     27  C   UNL     1       1.977   4.097  17.430  0.00  0.00    +0.000 C 
BRANCH  27  29
ATOM     28  C   UNL     1       0.893   2.352  18.885  0.00  0.00    +0.000 C 
ATOM     29  C   UNL     1       1.990   2.910  18.353  0.00  0.00    +0.000 C 
ENDBRANCH  27  29
ENDBRANCH  17  27
ENDBRANCH   1  21
TORSDOF 7
ENDMDL
MODEL 7
REMARK VINA RESULT:      -7.4      3.371     10.421
REMARK  Name = 
REMARK  9 active torsions:
REMARK  status: ('A' for Active; 'I' for Inactive)
REMARK    1  A    between atoms: C_2  and  C_3
REMARK    2  A    between atoms: C_3  and  N_4
REMARK    3  A    between atoms: C_6  and  C_7
REMARK    4  A    between atoms: C_7  and  O_9
REMARK    5  A    between atoms: O_9  and  C_10
REMARK    6  A    between atoms: C_10  and  C_11
REMARK    7  A    between atoms: C_13  and  C_14
REMARK    8  A    between atoms: C_18  and  C_20
REMARK    9  A    between atoms: C_27  and  C_28
REMARK                            x       y       z     vdW  Elec       q    Type
REMARK                         _______ _______ _______ _____ _____    ______ ____
ROOT
ATOM      1  C   UNL     1       0.592   9.677  19.413  0.00  0.00    +0.000 A 
ATOM      2  S   UNL     1       1.533   9.466  17.977  0.00  0.00    +0.000 S 
ATOM      3  C   UNL     1       2.292   8.109  18.672  0.00  0.00    +0.000 A 
ATOM      4  N   UNL     1       3.174   7.435  17.864  0.00  0.00    +0.000 N 
ATOM      5  C   UNL     1       3.734   6.239  18.270  0.00  0.00    +0.000 C 
ATOM      6  O   UNL     1       3.445   5.614  19.287  0.00  0.00    +0.000 OA
ATOM      7  N   UNL     1       1.973   7.853  19.909  0.00  0.00    +0.000 NA
ATOM      8  C   UNL     1       1.036   8.761  20.364  0.00  0.00    +0.000 A 
ATOM      9  C   UNL     1       0.608   8.614  21.781  0.00  0.00    +0.000 C 
ATOM     10  H   UNL     1       3.408   7.872  16.989  0.00  0.00    +0.000 HD
ENDROOT
BRANCH   5  11
ATOM     11  C   UNL     1       4.792   5.653  17.390  0.00  0.00    +0.000 A 
ATOM     12  C   UNL     1       6.029   6.317  17.339  0.00  0.00    +0.000 A 
ATOM     13  C   UNL     1       7.065   5.840  16.537  0.00  0.00    +0.000 A 
ATOM     14  C   UNL     1       6.877   4.685  15.781  0.00  0.00    +0.000 A 
ATOM     15  C   UNL     1       5.660   4.005  15.838  0.00  0.00    +0.000 A 
ATOM     16  C   UNL     1       4.618   4.481  16.644  0.00  0.00    +0.000 A 
ENDBRANCH   5  11
BRANCH   1  21
ATOM     17  N   UNL     1      -1.587  10.836  18.837  0.00  0.00    +0.000 N 
ATOM     18  N   UNL     1      -2.391  11.821  19.299  0.00  0.00    +0.000 NA
ATOM     19  C   UNL     1      -1.765  12.300  20.387  0.00  0.00    +0.000 A 
ATOM     20  C   UNL     1      -0.513  11.662  20.549  0.00  0.00    +0.000 A 
ATOM     21  C   UNL     1      -0.427  10.687  19.568  0.00  0.00    +0.000 A 
BRANCH  19  22
ATOM     22  C   UNL     1      -2.376  13.271  21.304  0.00  0.00    +0.000 C 
ATOM     23  O   UNL     1      -1.948  14.413  21.444  0.00  0.00    +0.000 OA
BRANCH  22  24
ATOM     24  O   UNL     1      -3.382  12.728  22.054  0.00  0.00    +0.000 OA
BRANCH  24  25
ATOM     25  C   UNL     1      -2.995  12.183  23.321  0.00  0.00    +0.000 C 
ATOM     26  C   UNL     1      -4.029  12.594  24.354  0.00  0.00    +0.000 C 
ENDBRANCH  24  25
ENDBRANCH  22  24
ENDBRANCH  19  22
BRANCH  17  27
ATOM     27  C   UNL     1      -2.119  10.024  17.745  0.00  0.00    +0.000 C 
BRANCH  27  29
ATOM     28  C   UNL     1      -2.825  10.494  15.375  0.00  0.00    +0.000 C 
ATOM     29  C   UNL     1      -2.731  10.866  16.659  0.00  0.00    +0.000 C 
ENDBRANCH  27  29
ENDBRANCH  17  27
ENDBRANCH   1  21
TORSDOF 7
ENDMDL
MODEL 8
REMARK VINA RESULT:      -7.3      2.499      4.044
REMARK  Name = 
REMARK  9 active torsions:
REMARK  status: ('A' for Active; 'I' for Inactive)
REMARK    1  A    between atoms: C_2  and  C_3
REMARK    2  A    between atoms: C_3  and  N_4
REMARK    3  A    between atoms: C_6  and  C_7
REMARK    4  A    between atoms: C_7  and  O_9
REMARK    5  A    between atoms: O_9  and  C_10
REMARK    6  A    between atoms: C_10  and  C_11
REMARK    7  A    between atoms: C_13  and  C_14
REMARK    8  A    between atoms: C_18  and  C_20
REMARK    9  A    between atoms: C_27  and  C_28
REMARK                            x       y       z     vdW  Elec       q    Type
REMARK                         _______ _______ _______ _____ _____    ______ ____
ROOT
ATOM      1  C   UNL     1       2.871   6.478  19.185  0.00  0.00    +0.000 A 
ATOM      2  S   UNL     1       2.320   8.058  18.749  0.00  0.00    +0.000 S 
ATOM      3  C   UNL     1       1.356   8.112  20.152  0.00  0.00    +0.000 A 
ATOM      4  N   UNL     1       0.684   9.288  20.374  0.00  0.00    +0.000 N 
ATOM      5  C   UNL     1      -0.008   9.496  21.552  0.00  0.00    +0.000 C 
ATOM      6  O   UNL     1      -0.012   8.752  22.528  0.00  0.00    +0.000 OA
ATOM      7  N   UNL     1       1.339   7.024  20.869  0.00  0.00    +0.000 NA
ATOM      8  C   UNL     1       2.163   6.065  20.312  0.00  0.00    +0.000 A 
ATOM      9  C   UNL     1       2.210   4.750  21.007  0.00  0.00    +0.000 C 
ATOM     10  H   UNL     1       0.698   9.963  19.628  0.00  0.00    +0.000 HD
ENDROOT
BRANCH   5  11
ATOM     11  C   UNL     1      -0.828  10.743  21.644  0.00  0.00    +0.000 A 
ATOM     12  C   UNL     1      -1.251  11.145  22.922  0.00  0.00    +0.000 A 
ATOM     13  C   UNL     1      -2.025  12.291  23.093  0.00  0.00    +0.000 A 
ATOM     14  C   UNL     1      -2.379  13.057  21.984  0.00  0.00    +0.000 A 
ATOM     15  C   UNL     1      -1.948  12.680  20.711  0.00  0.00    +0.000 A 
ATOM     16  C   UNL     1      -1.169  11.530  20.536  0.00  0.00    +0.000 A 
ENDBRANCH   5  11
BRANCH   1  21
ATOM     17  N   UNL     1       3.645   4.646  17.613  0.00  0.00    +0.000 N 
ATOM     18  N   UNL     1       4.762   4.235  16.971  0.00  0.00    +0.000 NA
ATOM     19  C   UNL     1       5.719   5.099  17.349  0.00  0.00    +0.000 A 
ATOM     20  C   UNL     1       5.207   6.004  18.308  0.00  0.00    +0.000 A 
ATOM     21  C   UNL     1       3.855   5.731  18.439  0.00  0.00    +0.000 A 
BRANCH  19  22
ATOM     22  C   UNL     1       7.060   5.127  16.750  0.00  0.00    +0.000 C 
ATOM     23  O   UNL     1       7.694   4.108  16.493  0.00  0.00    +0.000 OA
BRANCH  22  24
ATOM     24  O   UNL     1       7.555   6.395  16.624  0.00  0.00    +0.000 OA
BRANCH  24  25
ATOM     25  C   UNL     1       7.931   7.044  17.844  0.00  0.00    +0.000 C 
ATOM     26  C   UNL     1       7.861   8.546  17.628  0.00  0.00    +0.000 C 
ENDBRANCH  24  25
ENDBRANCH  22  24
ENDBRANCH  19  22
BRANCH  17  27
ATOM     27  C   UNL     1       2.400   3.976  17.243  0.00  0.00    +0.000 C 
BRANCH  27  29
ATOM     28  C   UNL     1       3.079   1.816  18.342  0.00  0.00    +0.000 C 
ATOM     29  C   UNL     1       2.152   2.745  18.071  0.00  0.00    +0.000 C 
ENDBRANCH  27  29
ENDBRANCH  17  27
ENDBRANCH   1  21
TORSDOF 7
ENDMDL
MODEL 9
REMARK VINA RESULT:      -7.2      3.286      5.369
REMARK  Name = 
REMARK  9 active torsions:
REMARK  status: ('A' for Active; 'I' for Inactive)
REMARK    1  A    between atoms: C_2  and  C_3
REMARK    2  A    between atoms: C_3  and  N_4
REMARK    3  A    between atoms: C_6  and  C_7
REMARK    4  A    between atoms: C_7  and  O_9
REMARK    5  A    between atoms: O_9  and  C_10
REMARK    6  A    between atoms: C_10  and  C_11
REMARK    7  A    between atoms: C_13  and  C_14
REMARK    8  A    between atoms: C_18  and  C_20
REMARK    9  A    between atoms: C_27  and  C_28
REMARK                            x       y       z     vdW  Elec       q    Type
REMARK                         _______ _______ _______ _____ _____    ______ ____
ROOT
ATOM      1  C   UNL     1       1.872   7.969  19.870  0.00  0.00    +0.000 A 
ATOM      2  S   UNL     1       1.397   8.436  21.466  0.00  0.00    +0.000 S 
ATOM      3  C   UNL     1       0.556   9.773  20.826  0.00  0.00    +0.000 A 
ATOM      4  N   UNL     1      -0.142  10.532  21.732  0.00  0.00    +0.000 N 
ATOM      5  C   UNL     1      -0.976  11.549  21.308  0.00  0.00    +0.000 C 
ATOM      6  O   UNL     1      -1.265  11.809  20.143  0.00  0.00    +0.000 OA
ATOM      7  N   UNL     1       0.672   9.953  19.541  0.00  0.00    +0.000 NA
ATOM      8  C   UNL     1       1.454   8.958  18.983  0.00  0.00    +0.000 A 
ATOM      9  C   UNL     1       1.707   9.061  17.520  0.00  0.00    +0.000 C 
ATOM     10  H   UNL     1       0.012  10.329  22.705  0.00  0.00    +0.000 HD
ENDROOT
BRANCH   5  11
ATOM     11  C   UNL     1      -1.580  12.415  22.368  0.00  0.00    +0.000 A 
ATOM     12  C   UNL     1      -2.859  12.065  22.835  0.00  0.00    +0.000 A 
ATOM     13  C   UNL     1      -3.495  12.825  23.816  0.00  0.00    +0.000 A 
ATOM     14  C   UNL     1      -2.853  13.940  24.349  0.00  0.00    +0.000 A 
ATOM     15  C   UNL     1      -1.575  14.286  23.908  0.00  0.00    +0.000 A 
ATOM     16  C   UNL     1      -0.933  13.525  22.924  0.00  0.00    +0.000 A 
ENDBRANCH   5  11
BRANCH   1  21
ATOM     17  N   UNL     1       2.319   5.474  19.908  0.00  0.00    +0.000 N 
ATOM     18  N   UNL     1       3.176   4.567  19.386  0.00  0.00    +0.000 NA
ATOM     19  C   UNL     1       4.039   5.285  18.650  0.00  0.00    +0.000 A 
ATOM     20  C   UNL     1       3.766   6.667  18.791  0.00  0.00    +0.000 A 
ATOM     21  C   UNL     1       2.627   6.776  19.570  0.00  0.00    +0.000 A 
BRANCH  19  22
ATOM     22  C   UNL     1       5.039   4.678  17.763  0.00  0.00    +0.000 C 
ATOM     23  O   UNL     1       4.829   4.465  16.572  0.00  0.00    +0.000 OA
BRANCH  22  24
ATOM     24  O   UNL     1       6.164   4.280  18.430  0.00  0.00    +0.000 OA
BRANCH  24  25
ATOM     25  C   UNL     1       7.401   4.824  17.954  0.00  0.00    +0.000 C 
ATOM     26  C   UNL     1       7.707   6.082  18.748  0.00  0.00    +0.000 C 
ENDBRANCH  24  25
ENDBRANCH  22  24
ENDBRANCH  19  22
BRANCH  17  27
ATOM     27  C   UNL     1       1.161   4.938  20.623  0.00  0.00    +0.000 C 
BRANCH  27  29
ATOM     28  C   UNL     1       1.372   2.661  21.673  0.00  0.00    +0.000 C 
ATOM     29  C   UNL     1       1.133   3.435  20.606  0.00  0.00    +0.000 C 
ENDBRANCH  27  29
ENDBRANCH  17  27
ENDBRANCH   1  21
TORSDOF 7
ENDMDL
