MODEL 1
REMARK VINA RESULT:      -8.3      0.000      0.000
REMARK  Name = 
REMARK  14 active torsions:
REMARK  status: ('A' for Active; 'I' for Inactive)
REMARK    1  A    between atoms: C_1  and  C_2
REMARK    2  A    between atoms: C_5  and  C_6
REMARK    3  A    between atoms: C_6  and  C_7
REMARK    4  A    between atoms: C_6  and  N_14
REMARK    5  A    between atoms: C_7  and  C_8
REMARK    6  A    between atoms: N_14  and  C_15
REMARK    7  A    between atoms: C_15  and  C_16
REMARK    8  A    between atoms: C_16  and  O_17
REMARK    9  A    between atoms: C_16  and  C_18
REMARK   10  A    between atoms: C_21  and  O_22
REMARK   11  A    between atoms: C_23  and  N_24
REMARK   12  A    between atoms: N_24  and  S_25
REMARK   13  A    between atoms: S_25  and  C_26
REMARK   14  A    between atoms: C_31  and  C_32
REMARK                            x       y       z     vdW  Elec       q    Type
REMARK                         _______ _______ _______ _____ _____    ______ ____
ROOT
ATOM      1  N   UNL     1       2.198   8.077  19.388  0.00  0.00    +0.000 NA
ATOM      2  H   UNL     1       2.768   8.814  19.808  0.00  0.00    +0.000 HD
ENDROOT
BRANCH   1   3
ATOM      3  C   UNL     1       3.084   6.975  18.951  0.00  0.00    +0.000 C 
BRANCH   3   8
ATOM      4  C   UNL     1       0.709   1.603  19.045  0.00  0.00    +0.000 C 
ATOM      5  C   UNL     1       1.238   3.010  19.051  0.00  0.00    +0.000 A 
ATOM      6  C   UNL     1       1.419   3.675  17.833  0.00  0.00    +0.000 A 
ATOM      7  C   UNL     1       1.994   4.947  17.787  0.00  0.00    +0.000 A 
ATOM      8  C   UNL     1       2.371   5.615  18.960  0.00  0.00    +0.000 A 
ATOM      9  C   UNL     1       2.112   4.969  20.185  0.00  0.00    +0.000 A 
ATOM     10  C   UNL     1       1.612   3.656  20.241  0.00  0.00    +0.000 A 
ATOM     11  C   UNL     1       1.568   2.944  21.566  0.00  0.00    +0.000 C 
ENDBRANCH   3   8
BRANCH   3  12
ATOM     12  C   UNL     1       3.789   7.249  17.581  0.00  0.00    +0.000 C 
BRANCH  12  13
ATOM     13  C   UNL     1       4.982   6.384  17.224  0.00  0.00    +0.000 A 
ATOM     14  C   UNL     1       5.874   5.928  18.203  0.00  0.00    +0.000 A 
ATOM     15  C   UNL     1       6.936   5.086  17.866  0.00  0.00    +0.000 A 
ATOM     16  C   UNL     1       7.118   4.688  16.544  0.00  0.00    +0.000 A 
ATOM     17  C   UNL     1       6.249   5.145  15.558  0.00  0.00    +0.000 A 
ATOM     18  C   UNL     1       5.191   5.989  15.895  0.00  0.00    +0.000 A 
ENDBRANCH  12  13
ENDBRANCH   3  12
ENDBRANCH   1   3
BRANCH   1  19
ATOM     19  C   UNL     1       1.422   8.685  18.305  0.00  0.00    +0.000 C 
BRANCH  19  20
ATOM     20  C   UNL     1       1.331  10.219  18.477  0.00  0.00    +0.000 C 
BRANCH  20  21
ATOM     21  C   UNL     1      -0.110  10.685  18.394  0.00  0.00    +0.000 A 
ATOM     22  C   UNL     1      -1.031   9.992  17.590  0.00  0.00    +0.000 A 
ATOM     23  C   UNL     1      -2.360  10.416  17.496  0.00  0.00    +0.000 A 
ATOM     24  C   UNL     1      -2.778  11.522  18.231  0.00  0.00    +0.000 A 
ATOM     25  C   UNL     1      -1.882  12.217  19.046  0.00  0.00    +0.000 A 
ATOM     26  C   UNL     1      -0.549  11.818  19.104  0.00  0.00    +0.000 A 
BRANCH  24  27
ATOM     27  O   UNL     1      -4.080  11.940  18.178  0.00  0.00    +0.000 OA
ATOM     28  H   UNL     1      -4.629  11.199  17.867  0.00  0.00    +0.000 HD
ENDBRANCH  24  27
BRANCH  25  29
ATOM     29  N   UNL     1      -2.317  13.318  19.846  0.00  0.00    +0.000 N 
ATOM     30  H   UNL     1      -1.634  14.073  19.896  0.00  0.00    +0.000 HD
BRANCH  29  31
ATOM     31  S   UNL     1      -3.019  13.011  21.337  0.00  0.00    +0.000 S 
ATOM     32  C   UNL     1      -3.005  14.600  22.148  0.00  0.00    +0.000 C 
ATOM     33  O   UNL     1      -4.403  12.688  21.058  0.00  0.00    +0.000 OA
ATOM     34  O   UNL     1      -2.181  12.099  22.086  0.00  0.00    +0.000 OA
ENDBRANCH  29  31
ENDBRANCH  25  29
ENDBRANCH  20  21
BRANCH  20  35
ATOM     35  O   UNL     1       2.117  10.883  17.484  0.00  0.00    +0.000 OA
ATOM     36  H   UNL     1       2.575  11.622  17.915  0.00  0.00    +0.000 HD
ENDBRANCH  20  35
ENDBRANCH  19  20
ENDBRANCH   1  19
TORSDOF 11
ENDMDL
MODEL 2
REMARK VINA RESULT:      -8.2      1.463      2.300
REMARK  Name = 
REMARK  14 active torsions:
REMARK  status: ('A' for Active; 'I' for Inactive)
REMARK    1  A    between atoms: C_1  and  C_2
REMARK    2  A    between atoms: C_5  and  C_6
REMARK    3  A    between atoms: C_6  and  C_7
REMARK    4  A    between atoms: C_6  and  N_14
REMARK    5  A    between atoms: C_7  and  C_8
REMARK    6  A    between atoms: N_14  and  C_15
REMARK    7  A    between atoms: C_15  and  C_16
REMARK    8  A    between atoms: C_16  and  O_17
REMARK    9  A    between atoms: C_16  and  C_18
REMARK   10  A    between atoms: C_21  and  O_22
REMARK   11  A    between atoms: C_23  and  N_24
REMARK   12  A    between atoms: N_24  and  S_25
REMARK   13  A    between atoms: S_25  and  C_26
REMARK   14  A    between atoms: C_31  and  C_32
REMARK                            x       y       z     vdW  Elec       q    Type
REMARK                         _______ _______ _______ _____ _____    ______ ____
ROOT
ATOM      1  N   UNL     1       2.097   8.054  19.436  0.00  0.00    +0.000 NA
ATOM      2  H   UNL     1       2.617   8.700  20.033  0.00  0.00    +0.000 HD
ENDROOT
BRANCH   1   3
ATOM      3  C   UNL     1       3.005   6.976  18.988  0.00  0.00    +0.000 C 
BRANCH   3   8
ATOM      4  C   UNL     1       0.741   1.555  19.041  0.00  0.00    +0.000 C 
ATOM      5  C   UNL     1       1.241   2.973  19.056  0.00  0.00    +0.000 A 
ATOM      6  C   UNL     1       1.430   3.641  17.841  0.00  0.00    +0.000 A 
ATOM      7  C   UNL     1       1.979   4.925  17.806  0.00  0.00    +0.000 A 
ATOM      8  C   UNL     1       2.320   5.601  18.985  0.00  0.00    +0.000 A 
ATOM      9  C   UNL     1       2.053   4.950  20.205  0.00  0.00    +0.000 A 
ATOM     10  C   UNL     1       1.579   3.627  20.252  0.00  0.00    +0.000 A 
ATOM     11  C   UNL     1       1.526   2.914  21.576  0.00  0.00    +0.000 C 
ENDBRANCH   3   8
BRANCH   3  12
ATOM     12  C   UNL     1       3.704   7.277  17.621  0.00  0.00    +0.000 C 
BRANCH  12  13
ATOM     13  C   UNL     1       4.904   6.429  17.248  0.00  0.00    +0.000 A 
ATOM     14  C   UNL     1       5.752   5.890  18.225  0.00  0.00    +0.000 A 
ATOM     15  C   UNL     1       6.820   5.064  17.868  0.00  0.00    +0.000 A 
ATOM     16  C   UNL     1       7.053   4.765  16.528  0.00  0.00    +0.000 A 
ATOM     17  C   UNL     1       6.229   5.305  15.545  0.00  0.00    +0.000 A 
ATOM     18  C   UNL     1       5.165   6.132  15.902  0.00  0.00    +0.000 A 
ENDBRANCH  12  13
ENDBRANCH   3  12
ENDBRANCH   1   3
BRANCH   1  19
ATOM     19  C   UNL     1       1.516   8.838  18.343  0.00  0.00    +0.000 C 
BRANCH  19  20
ATOM     20  C   UNL     1       1.708  10.354  18.580  0.00  0.00    +0.000 C 
BRANCH  20  21
ATOM     21  C   UNL     1       0.388  11.016  18.925  0.00  0.00    +0.000 A 
ATOM     22  C   UNL     1       0.170  11.526  20.217  0.00  0.00    +0.000 A 
ATOM     23  C   UNL     1      -1.045  12.129  20.553  0.00  0.00    +0.000 A 
ATOM     24  C   UNL     1      -2.038  12.251  19.584  0.00  0.00    +0.000 A 
ATOM     25  C   UNL     1      -1.837  11.764  18.291  0.00  0.00    +0.000 A 
ATOM     26  C   UNL     1      -0.642  11.124  17.972  0.00  0.00    +0.000 A 
BRANCH  24  27
ATOM     27  O   UNL     1      -3.226  12.863  19.879  0.00  0.00    +0.000 OA
ATOM     28  H   UNL     1      -3.036  13.689  20.359  0.00  0.00    +0.000 HD
ENDBRANCH  24  27
BRANCH  25  29
ATOM     29  N   UNL     1      -2.829  11.935  17.277  0.00  0.00    +0.000 N 
ATOM     30  H   UNL     1      -3.302  12.836  17.325  0.00  0.00    +0.000 HD
BRANCH  29  31
ATOM     31  S   UNL     1      -3.902  10.682  16.972  0.00  0.00    +0.000 S 
ATOM     32  C   UNL     1      -5.438  11.260  17.671  0.00  0.00    +0.000 C 
ATOM     33  O   UNL     1      -4.072  10.654  15.534  0.00  0.00    +0.000 OA
ATOM     34  O   UNL     1      -3.480   9.500  17.692  0.00  0.00    +0.000 OA
ENDBRANCH  29  31
ENDBRANCH  25  29
ENDBRANCH  20  21
BRANCH  20  35
ATOM     35  O   UNL     1       2.278  10.975  17.425  0.00  0.00    +0.000 OA
ATOM     36  H   UNL     1       3.139  10.558  17.260  0.00  0.00    +0.000 HD
ENDBRANCH  20  35
ENDBRANCH  19  20
ENDBRANCH   1  19
TORSDOF 11
ENDMDL
MODEL 3
REMARK VINA RESULT:      -8.2      1.438      2.551
REMARK  Name = 
REMARK  14 active torsions:
REMARK  status: ('A' for Active; 'I' for Inactive)
REMARK    1  A    between atoms: C_1  and  C_2
REMARK    2  A    between atoms: C_5  and  C_6
REMARK    3  A    between atoms: C_6  and  C_7
REMARK    4  A    between atoms: C_6  and  N_14
REMARK    5  A    between atoms: C_7  and  C_8
REMARK    6  A    between atoms: N_14  and  C_15
REMARK    7  A    between atoms: C_15  and  C_16
REMARK    8  A    between atoms: C_16  and  O_17
REMARK    9  A    between atoms: C_16  and  C_18
REMARK   10  A    between atoms: C_21  and  O_22
REMARK   11  A    between atoms: C_23  and  N_24
REMARK   12  A    between atoms: N_24  and  S_25
REMARK   13  A    between atoms: S_25  and  C_26
REMARK   14  A    between atoms: C_31  and  C_32
REMARK                            x       y       z     vdW  Elec       q    Type
REMARK                         _______ _______ _______ _____ _____    ______ ____
ROOT
ATOM      1  N   UNL     1       2.068   8.224  18.978  0.00  0.00    +0.000 NA
ATOM      2  H   UNL     1       2.333   8.755  19.810  0.00  0.00    +0.000 HD
ENDROOT
BRANCH   1   3
ATOM      3  C   UNL     1       3.042   7.129  18.776  0.00  0.00    +0.000 C 
BRANCH   3   8
ATOM      4  C   UNL     1       0.942   1.670  19.319  0.00  0.00    +0.000 C 
ATOM      5  C   UNL     1       1.405   3.098  19.220  0.00  0.00    +0.000 A 
ATOM      6  C   UNL     1       1.375   3.739  17.977  0.00  0.00    +0.000 A 
ATOM      7  C   UNL     1       1.882   5.032  17.823  0.00  0.00    +0.000 A 
ATOM      8  C   UNL     1       2.398   5.742  18.915  0.00  0.00    +0.000 A 
ATOM      9  C   UNL     1       2.350   5.117  20.176  0.00  0.00    +0.000 A 
ATOM     10  C   UNL     1       1.921   3.787  20.330  0.00  0.00    +0.000 A 
ATOM     11  C   UNL     1       2.103   3.106  21.659  0.00  0.00    +0.000 C 
ENDBRANCH   3   8
BRANCH   3  12
ATOM     12  C   UNL     1       3.857   7.258  17.446  0.00  0.00    +0.000 C 
BRANCH  12  13
ATOM     13  C   UNL     1       5.002   6.288  17.231  0.00  0.00    +0.000 A 
ATOM     14  C   UNL     1       5.112   5.535  16.054  0.00  0.00    +0.000 A 
ATOM     15  C   UNL     1       6.203   4.688  15.848  0.00  0.00    +0.000 A 
ATOM     16  C   UNL     1       7.199   4.584  16.815  0.00  0.00    +0.000 A 
ATOM     17  C   UNL     1       7.096   5.314  17.995  0.00  0.00    +0.000 A 
ATOM     18  C   UNL     1       6.005   6.157  18.202  0.00  0.00    +0.000 A 
ENDBRANCH  12  13
ENDBRANCH   3  12
ENDBRANCH   1   3
BRANCH   1  19
ATOM     19  C   UNL     1       1.991   9.169  17.860  0.00  0.00    +0.000 C 
BRANCH  19  20
ATOM     20  C   UNL     1       2.064  10.630  18.361  0.00  0.00    +0.000 C 
BRANCH  20  21
ATOM     21  C   UNL     1       0.722  11.079  18.907  0.00  0.00    +0.000 A 
ATOM     22  C   UNL     1       0.525  11.185  20.295  0.00  0.00    +0.000 A 
ATOM     23  C   UNL     1      -0.709  11.588  20.814  0.00  0.00    +0.000 A 
ATOM     24  C   UNL     1      -1.743  11.915  19.941  0.00  0.00    +0.000 A 
ATOM     25  C   UNL     1      -1.564  11.830  18.558  0.00  0.00    +0.000 A 
ATOM     26  C   UNL     1      -0.347  11.387  18.046  0.00  0.00    +0.000 A 
BRANCH  24  27
ATOM     27  O   UNL     1      -2.952  12.339  20.423  0.00  0.00    +0.000 OA
ATOM     28  H   UNL     1      -2.948  12.243  21.392  0.00  0.00    +0.000 HD
ENDBRANCH  24  27
BRANCH  25  29
ATOM     29  N   UNL     1      -2.602  12.218  17.657  0.00  0.00    +0.000 N 
ATOM     30  H   UNL     1      -3.277  12.859  18.072  0.00  0.00    +0.000 HD
BRANCH  29  31
ATOM     31  S   UNL     1      -3.350  11.041  16.725  0.00  0.00    +0.000 S 
ATOM     32  C   UNL     1      -3.208   9.564  17.716  0.00  0.00    +0.000 C 
ATOM     33  O   UNL     1      -4.753  11.399  16.694  0.00  0.00    +0.000 OA
ATOM     34  O   UNL     1      -2.605  10.852  15.499  0.00  0.00    +0.000 OA
ENDBRANCH  29  31
ENDBRANCH  25  29
ENDBRANCH  20  21
BRANCH  20  35
ATOM     35  O   UNL     1       2.477  11.502  17.305  0.00  0.00    +0.000 OA
ATOM     36  H   UNL     1       3.436  11.404  17.199  0.00  0.00    +0.000 HD
ENDBRANCH  20  35
ENDBRANCH  19  20
ENDBRANCH   1  19
TORSDOF 11
ENDMDL
MODEL 4
REMARK VINA RESULT:      -8.2      1.970      2.977
REMARK  Name = 
REMARK  14 active torsions:
REMARK  status: ('A' for Active; 'I' for Inactive)
REMARK    1  A    between atoms: C_1  and  C_2
REMARK    2  A    between atoms: C_5  and  C_6
REMARK    3  A    between atoms: C_6  and  C_7
REMARK    4  A    between atoms: C_6  and  N_14
REMARK    5  A    between atoms: C_7  and  C_8
REMARK    6  A    between atoms: N_14  and  C_15
REMARK    7  A    between atoms: C_15  and  C_16
REMARK    8  A    between atoms: C_16  and  O_17
REMARK    9  A    between atoms: C_16  and  C_18
REMARK   10  A    between atoms: C_21  and  O_22
REMARK   11  A    between atoms: C_23  and  N_24
REMARK   12  A    between atoms: N_24  and  S_25
REMARK   13  A    between atoms: S_25  and  C_26
REMARK   14  A    between atoms: C_31  and  C_32
REMARK                            x       y       z     vdW  Elec       q    Type
REMARK                         _______ _______ _______ _____ _____    ______ ____
ROOT
ATOM      1  N   UNL     1       1.884   8.236  17.692  0.00  0.00    +0.000 NA
ATOM      2  H   UNL     1       1.088   7.912  18.245  0.00  0.00    +0.000 HD
ENDROOT
BRANCH   1   3
ATOM      3  C   UNL     1       3.060   7.395  18.005  0.00  0.00    +0.000 C 
BRANCH   3   8
ATOM      4  C   UNL     1       1.267   2.801  21.196  0.00  0.00    +0.000 C 
ATOM      5  C   UNL     1       1.798   3.928  20.355  0.00  0.00    +0.000 A 
ATOM      6  C   UNL     1       2.361   5.043  20.986  0.00  0.00    +0.000 A 
ATOM      7  C   UNL     1       2.781   6.151  20.247  0.00  0.00    +0.000 A 
ATOM      8  C   UNL     1       2.691   6.166  18.849  0.00  0.00    +0.000 A 
ATOM      9  C   UNL     1       2.196   5.008  18.219  0.00  0.00    +0.000 A 
ATOM     10  C   UNL     1       1.692   3.920  18.954  0.00  0.00    +0.000 A 
ATOM     11  C   UNL     1       0.976   2.813  18.229  0.00  0.00    +0.000 C 
ENDBRANCH   3   8
BRANCH   3  12
ATOM     12  C   UNL     1       3.896   6.999  16.742  0.00  0.00    +0.000 C 
BRANCH  12  13
ATOM     13  C   UNL     1       5.140   6.161  16.962  0.00  0.00    +0.000 A 
ATOM     14  C   UNL     1       5.300   4.913  16.345  0.00  0.00    +0.000 A 
ATOM     15  C   UNL     1       6.475   4.178  16.513  0.00  0.00    +0.000 A 
ATOM     16  C   UNL     1       7.508   4.683  17.299  0.00  0.00    +0.000 A 
ATOM     17  C   UNL     1       7.358   5.914  17.930  0.00  0.00    +0.000 A 
ATOM     18  C   UNL     1       6.182   6.646  17.765  0.00  0.00    +0.000 A 
ENDBRANCH  12  13
ENDBRANCH   3  12
ENDBRANCH   1   3
BRANCH   1  19
ATOM     19  C   UNL     1       2.072   9.659  17.985  0.00  0.00    +0.000 C 
BRANCH  19  20
ATOM     20  C   UNL     1       0.736  10.327  18.386  0.00  0.00    +0.000 C 
BRANCH  20  21
ATOM     21  C   UNL     1       0.469  10.148  19.868  0.00  0.00    +0.000 A 
ATOM     22  C   UNL     1       0.979   9.028  20.547  0.00  0.00    +0.000 A 
ATOM     23  C   UNL     1       0.732   8.845  21.911  0.00  0.00    +0.000 A 
ATOM     24  C   UNL     1      -0.004   9.800  22.607  0.00  0.00    +0.000 A 
ATOM     25  C   UNL     1      -0.509  10.927  21.954  0.00  0.00    +0.000 A 
ATOM     26  C   UNL     1      -0.298  11.085  20.586  0.00  0.00    +0.000 A 
BRANCH  24  27
ATOM     27  O   UNL     1      -0.235   9.658  23.948  0.00  0.00    +0.000 OA
ATOM     28  H   UNL     1      -1.192   9.539  24.085  0.00  0.00    +0.000 HD
ENDBRANCH  24  27
BRANCH  25  29
ATOM     29  N   UNL     1      -1.216  11.938  22.673  0.00  0.00    +0.000 N 
ATOM     30  H   UNL     1      -2.222  11.780  22.704  0.00  0.00    +0.000 HD
BRANCH  29  31
ATOM     31  S   UNL     1      -0.846  13.549  22.385  0.00  0.00    +0.000 S 
ATOM     32  C   UNL     1      -1.348  14.374  23.884  0.00  0.00    +0.000 C 
ATOM     33  O   UNL     1       0.600  13.613  22.327  0.00  0.00    +0.000 OA
ATOM     34  O   UNL     1      -1.655  14.041  21.290  0.00  0.00    +0.000 OA
ENDBRANCH  29  31
ENDBRANCH  25  29
ENDBRANCH  20  21
BRANCH  20  35
ATOM     35  O   UNL     1      -0.346   9.782  17.625  0.00  0.00    +0.000 OA
ATOM     36  H   UNL     1      -0.860  10.524  17.269  0.00  0.00    +0.000 HD
ENDBRANCH  20  35
ENDBRANCH  19  20
ENDBRANCH   1  19
TORSDOF 11
ENDMDL
MODEL 5
REMARK VINA RESULT:      -8.1      1.673      4.596
REMARK  Name = 
REMARK  14 active torsions:
REMARK  status: ('A' for Active; 'I' for Inactive)
REMARK    1  A    between atoms: C_1  and  C_2
REMARK    2  A    between atoms: C_5  and  C_6
REMARK    3  A    between atoms: C_6  and  C_7
REMARK    4  A    between atoms: C_6  and  N_14
REMARK    5  A    between atoms: C_7  and  C_8
REMARK    6  A    between atoms: N_14  and  C_15
REMARK    7  A    between atoms: C_15  and  C_16
REMARK    8  A    between atoms: C_16  and  O_17
REMARK    9  A    between atoms: C_16  and  C_18
REMARK   10  A    between atoms: C_21  and  O_22
REMARK   11  A    between atoms: C_23  and  N_24
REMARK   12  A    between atoms: N_24  and  S_25
REMARK   13  A    between atoms: S_25  and  C_26
REMARK   14  A    between atoms: C_31  and  C_32
REMARK                            x       y       z     vdW  Elec       q    Type
REMARK                         _______ _______ _______ _____ _____    ______ ____
ROOT
ATOM      1  N   UNL     1       2.484   8.175  17.886  0.00  0.00    +0.000 NA
ATOM      2  H   UNL     1       2.471   8.276  16.869  0.00  0.00    +0.000 HD
ENDROOT
BRANCH   1   3
ATOM      3  C   UNL     1       2.572   6.738  18.225  0.00  0.00    +0.000 C 
BRANCH   3   8
ATOM      4  C   UNL     1       7.469   4.509  15.866  0.00  0.00    +0.000 C 
ATOM      5  C   UNL     1       6.247   5.055  16.551  0.00  0.00    +0.000 A 
ATOM      6  C   UNL     1       5.038   4.356  16.448  0.00  0.00    +0.000 A 
ATOM      7  C   UNL     1       3.860   4.875  16.990  0.00  0.00    +0.000 A 
ATOM      8  C   UNL     1       3.857   6.090  17.689  0.00  0.00    +0.000 A 
ATOM      9  C   UNL     1       5.093   6.745  17.854  0.00  0.00    +0.000 A 
ATOM     10  C   UNL     1       6.269   6.277  17.243  0.00  0.00    +0.000 A 
ATOM     11  C   UNL     1       7.503   7.138  17.272  0.00  0.00    +0.000 C 
ENDBRANCH   3   8
BRANCH   3  12
ATOM     12  C   UNL     1       2.368   6.443  19.749  0.00  0.00    +0.000 C 
BRANCH  12  13
ATOM     13  C   UNL     1       2.033   5.019  20.147  0.00  0.00    +0.000 A 
ATOM     14  C   UNL     1       2.472   4.477  21.361  0.00  0.00    +0.000 A 
ATOM     15  C   UNL     1       2.108   3.183  21.739  0.00  0.00    +0.000 A 
ATOM     16  C   UNL     1       1.298   2.415  20.907  0.00  0.00    +0.000 A 
ATOM     17  C   UNL     1       0.866   2.934  19.690  0.00  0.00    +0.000 A 
ATOM     18  C   UNL     1       1.233   4.225  19.313  0.00  0.00    +0.000 A 
ENDBRANCH  12  13
ENDBRANCH   3  12
ENDBRANCH   1   3
BRANCH   1  19
ATOM     19  C   UNL     1       1.288   8.840  18.409  0.00  0.00    +0.000 C 
BRANCH  19  20
ATOM     20  C   UNL     1       1.543  10.349  18.634  0.00  0.00    +0.000 C 
BRANCH  20  21
ATOM     21  C   UNL     1       0.252  11.066  18.983  0.00  0.00    +0.000 A 
ATOM     22  C   UNL     1       0.069  11.603  20.269  0.00  0.00    +0.000 A 
ATOM     23  C   UNL     1      -1.119  12.258  20.608  0.00  0.00    +0.000 A 
ATOM     24  C   UNL     1      -2.118  12.403  19.648  0.00  0.00    +0.000 A 
ATOM     25  C   UNL     1      -1.949  11.889  18.360  0.00  0.00    +0.000 A 
ATOM     26  C   UNL     1      -0.783  11.199  18.039  0.00  0.00    +0.000 A 
BRANCH  24  27
ATOM     27  O   UNL     1      -3.278  13.064  19.946  0.00  0.00    +0.000 OA
ATOM     28  H   UNL     1      -3.931  12.868  19.251  0.00  0.00    +0.000 HD
ENDBRANCH  24  27
BRANCH  25  29
ATOM     29  N   UNL     1      -2.946  12.083  17.355  0.00  0.00    +0.000 N 
ATOM     30  H   UNL     1      -3.456  12.958  17.458  0.00  0.00    +0.000 HD
BRANCH  29  31
ATOM     31  S   UNL     1      -3.963  10.808  16.964  0.00  0.00    +0.000 S 
ATOM     32  C   UNL     1      -3.547  10.438  15.270  0.00  0.00    +0.000 C 
ATOM     33  O   UNL     1      -3.515   9.689  17.767  0.00  0.00    +0.000 OA
ATOM     34  O   UNL     1      -5.338  11.255  17.018  0.00  0.00    +0.000 OA
ENDBRANCH  29  31
ENDBRANCH  25  29
ENDBRANCH  20  21
BRANCH  20  35
ATOM     35  O   UNL     1       2.129  10.938  17.471  0.00  0.00    +0.000 OA
ATOM     36  H   UNL     1       1.480  10.883  16.752  0.00  0.00    +0.000 HD
ENDBRANCH  20  35
ENDBRANCH  19  20
ENDBRANCH   1  19
TORSDOF 11
ENDMDL
MODEL 6
REMARK VINA RESULT:      -8.0      1.771      2.775
REMARK  Name = 
REMARK  14 active torsions:
REMARK  status: ('A' for Active; 'I' for Inactive)
REMARK    1  A    between atoms: C_1  and  C_2
REMARK    2  A    between atoms: C_5  and  C_6
REMARK    3  A    between atoms: C_6  and  C_7
REMARK    4  A    between atoms: C_6  and  N_14
REMARK    5  A    between atoms: C_7  and  C_8
REMARK    6  A    between atoms: N_14  and  C_15
REMARK    7  A    between atoms: C_15  and  C_16
REMARK    8  A    between atoms: C_16  and  O_17
REMARK    9  A    between atoms: C_16  and  C_18
REMARK   10  A    between atoms: C_21  and  O_22
REMARK   11  A    between atoms: C_23  and  N_24
REMARK   12  A    between atoms: N_24  and  S_25
REMARK   13  A    between atoms: S_25  and  C_26
REMARK   14  A    between atoms: C_31  and  C_32
REMARK                            x       y       z     vdW  Elec       q    Type
REMARK                         _______ _______ _______ _____ _____    ______ ____
ROOT
ATOM      1  N   UNL     1       2.043   8.293  18.243  0.00  0.00    +0.000 NA
ATOM      2  H   UNL     1       1.113   7.877  18.172  0.00  0.00    +0.000 HD
ENDROOT
BRANCH   1   3
ATOM      3  C   UNL     1       3.048   7.211  18.331  0.00  0.00    +0.000 C 
BRANCH   3   8
ATOM      4  C   UNL     1       0.974   1.838  19.486  0.00  0.00    +0.000 C 
ATOM      5  C   UNL     1       1.429   3.247  19.226  0.00  0.00    +0.000 A 
ATOM      6  C   UNL     1       1.417   3.736  17.914  0.00  0.00    +0.000 A 
ATOM      7  C   UNL     1       1.918   5.005  17.616  0.00  0.00    +0.000 A 
ATOM      8  C   UNL     1       2.410   5.845  18.624  0.00  0.00    +0.000 A 
ATOM      9  C   UNL     1       2.345   5.374  19.950  0.00  0.00    +0.000 A 
ATOM     10  C   UNL     1       1.922   4.068  20.254  0.00  0.00    +0.000 A 
ATOM     11  C   UNL     1       2.086   3.552  21.657  0.00  0.00    +0.000 C 
ENDBRANCH   3   8
BRANCH   3  12
ATOM     12  C   UNL     1       4.006   7.149  17.095  0.00  0.00    +0.000 C 
BRANCH  12  13
ATOM     13  C   UNL     1       5.184   6.196  17.170  0.00  0.00    +0.000 A 
ATOM     14  C   UNL     1       5.393   5.214  16.194  0.00  0.00    +0.000 A 
ATOM     15  C   UNL     1       6.512   4.381  16.246  0.00  0.00    +0.000 A 
ATOM     16  C   UNL     1       7.438   4.521  17.277  0.00  0.00    +0.000 A 
ATOM     17  C   UNL     1       7.236   5.482  18.263  0.00  0.00    +0.000 A 
ATOM     18  C   UNL     1       6.116   6.311  18.211  0.00  0.00    +0.000 A 
ENDBRANCH  12  13
ENDBRANCH   3  12
ENDBRANCH   1   3
BRANCH   1  19
ATOM     19  C   UNL     1       2.034   9.195  19.397  0.00  0.00    +0.000 C 
BRANCH  19  20
ATOM     20  C   UNL     1       0.764   8.989  20.255  0.00  0.00    +0.000 C 
BRANCH  20  21
ATOM     21  C   UNL     1      -0.209  10.137  20.060  0.00  0.00    +0.000 A 
ATOM     22  C   UNL     1      -0.640  10.892  21.164  0.00  0.00    +0.000 A 
ATOM     23  C   UNL     1      -1.543  11.946  21.001  0.00  0.00    +0.000 A 
ATOM     24  C   UNL     1      -1.997  12.267  19.724  0.00  0.00    +0.000 A 
ATOM     25  C   UNL     1      -1.570  11.538  18.612  0.00  0.00    +0.000 A 
ATOM     26  C   UNL     1      -0.704  10.461  18.783  0.00  0.00    +0.000 A 
BRANCH  24  27
ATOM     27  O   UNL     1      -2.860  13.312  19.534  0.00  0.00    +0.000 OA
ATOM     28  H   UNL     1      -2.337  14.121  19.397  0.00  0.00    +0.000 HD
ENDBRANCH  24  27
BRANCH  25  29
ATOM     29  N   UNL     1      -1.988  11.896  17.293  0.00  0.00    +0.000 N 
ATOM     30  H   UNL     1      -1.958  12.899  17.121  0.00  0.00    +0.000 HD
BRANCH  29  31
ATOM     31  S   UNL     1      -3.374  11.194  16.662  0.00  0.00    +0.000 S 
ATOM     32  C   UNL     1      -3.412   9.578  17.415  0.00  0.00    +0.000 C 
ATOM     33  O   UNL     1      -4.480  11.948  17.216  0.00  0.00    +0.000 OA
ATOM     34  O   UNL     1      -3.226  11.037  15.231  0.00  0.00    +0.000 OA
ENDBRANCH  29  31
ENDBRANCH  25  29
ENDBRANCH  20  21
BRANCH  20  35
ATOM     35  O   UNL     1       1.106   8.869  21.638  0.00  0.00    +0.000 OA
ATOM     36  H   UNL     1       0.286   8.718  22.134  0.00  0.00    +0.000 HD
ENDBRANCH  20  35
ENDBRANCH  19  20
ENDBRANCH   1  19
TORSDOF 11
ENDMDL
MODEL 7
REMARK VINA RESULT:      -8.0      1.939      4.566
REMARK  Name = 
REMARK  14 active torsions:
REMARK  status: ('A' for Active; 'I' for Inactive)
REMARK    1  A    between atoms: C_1  and  C_2
REMARK    2  A    between atoms: C_5  and  C_6
REMARK    3  A    between atoms: C_6  and  C_7
REMARK    4  A    between atoms: C_6  and  N_14
REMARK    5  A    between atoms: C_7  and  C_8
REMARK    6  A    between atoms: N_14  and  C_15
REMARK    7  A    between atoms: C_15  and  C_16
REMARK    8  A    between atoms: C_16  and  O_17
REMARK    9  A    between atoms: C_16  and  C_18
REMARK   10  A    between atoms: C_21  and  O_22
REMARK   11  A    between atoms: C_23  and  N_24
REMARK   12  A    between atoms: N_24  and  S_25
REMARK   13  A    between atoms: S_25  and  C_26
REMARK   14  A    between atoms: C_31  and  C_32
REMARK                            x       y       z     vdW  Elec       q    Type
REMARK                         _______ _______ _______ _____ _____    ______ ____
ROOT
ATOM      1  N   UNL     1       2.320   7.374  19.744  0.00  0.00    +0.000 NA
ATOM      2  H   UNL     1       3.202   7.382  20.259  0.00  0.00    +0.000 HD
ENDROOT
BRANCH   1   3
ATOM      3  C   UNL     1       2.556   6.813  18.395  0.00  0.00    +0.000 C 
BRANCH   3   8
ATOM      4  C   UNL     1       7.859   4.403  17.637  0.00  0.00    +0.000 C 
ATOM      5  C   UNL     1       6.540   5.101  17.817  0.00  0.00    +0.000 A 
ATOM      6  C   UNL     1       6.001   5.218  19.103  0.00  0.00    +0.000 A 
ATOM      7  C   UNL     1       4.736   5.775  19.304  0.00  0.00    +0.000 A 
ATOM      8  C   UNL     1       3.984   6.272  18.231  0.00  0.00    +0.000 A 
ATOM      9  C   UNL     1       4.569   6.221  16.951  0.00  0.00    +0.000 A 
ATOM     10  C   UNL     1       5.804   5.587  16.724  0.00  0.00    +0.000 A 
ATOM     11  C   UNL     1       6.267   5.370  15.309  0.00  0.00    +0.000 C 
ENDBRANCH   3   8
BRANCH   3  12
ATOM     12  C   UNL     1       1.484   5.759  17.962  0.00  0.00    +0.000 C 
BRANCH  12  13
ATOM     13  C   UNL     1       1.677   4.331  18.434  0.00  0.00    +0.000 A 
ATOM     14  C   UNL     1       1.235   3.911  19.695  0.00  0.00    +0.000 A 
ATOM     15  C   UNL     1       1.369   2.580  20.093  0.00  0.00    +0.000 A 
ATOM     16  C   UNL     1       1.948   1.650  19.233  0.00  0.00    +0.000 A 
ATOM     17  C   UNL     1       2.406   2.054  17.983  0.00  0.00    +0.000 A 
ATOM     18  C   UNL     1       2.274   3.386  17.588  0.00  0.00    +0.000 A 
ENDBRANCH  12  13
ENDBRANCH   3  12
ENDBRANCH   1   3
BRANCH   1  19
ATOM     19  C   UNL     1       1.801   8.744  19.739  0.00  0.00    +0.000 C 
BRANCH  19  20
ATOM     20  C   UNL     1       0.743   8.943  20.849  0.00  0.00    +0.000 C 
BRANCH  20  21
ATOM     21  C   UNL     1      -0.195  10.083  20.500  0.00  0.00    +0.000 A 
ATOM     22  C   UNL     1      -0.731  10.893  21.517  0.00  0.00    +0.000 A 
ATOM     23  C   UNL     1      -1.604  11.940  21.211  0.00  0.00    +0.000 A 
ATOM     24  C   UNL     1      -1.922  12.199  19.880  0.00  0.00    +0.000 A 
ATOM     25  C   UNL     1      -1.390  11.415  18.854  0.00  0.00    +0.000 A 
ATOM     26  C   UNL     1      -0.555  10.345  19.165  0.00  0.00    +0.000 A 
BRANCH  24  27
ATOM     27  O   UNL     1      -2.752  13.236  19.553  0.00  0.00    +0.000 OA
ATOM     28  H   UNL     1      -3.330  12.950  18.823  0.00  0.00    +0.000 HD
ENDBRANCH  24  27
BRANCH  25  29
ATOM     29  N   UNL     1      -1.668  11.709  17.484  0.00  0.00    +0.000 N 
ATOM     30  H   UNL     1      -1.552  12.695  17.253  0.00  0.00    +0.000 HD
BRANCH  29  31
ATOM     31  S   UNL     1      -3.042  11.059  16.776  0.00  0.00    +0.000 S 
ATOM     32  C   UNL     1      -3.270   9.513  17.636  0.00  0.00    +0.000 C 
ATOM     33  O   UNL     1      -4.132  11.928  17.167  0.00  0.00    +0.000 OA
ATOM     34  O   UNL     1      -2.779  10.780  15.381  0.00  0.00    +0.000 OA
ENDBRANCH  29  31
ENDBRANCH  25  29
ENDBRANCH  20  21
BRANCH  20  35
ATOM     35  O   UNL     1       1.375   9.199  22.106  0.00  0.00    +0.000 OA
ATOM     36  H   UNL     1       1.312   8.391  22.639  0.00  0.00    +0.000 HD
ENDBRANCH  20  35
ENDBRANCH  19  20
ENDBRANCH   1  19
TORSDOF 11
ENDMDL
MODEL 8
REMARK VINA RESULT:      -8.0      4.193      9.360
REMARK  Name = 
REMARK  14 active torsions:
REMARK  status: ('A' for Active; 'I' for Inactive)
REMARK    1  A    between atoms: C_1  and  C_2
REMARK    2  A    between atoms: C_5  and  C_6
REMARK    3  A    between atoms: C_6  and  C_7
REMARK    4  A    between atoms: C_6  and  N_14
REMARK    5  A    between atoms: C_7  and  C_8
REMARK    6  A    between atoms: N_14  and  C_15
REMARK    7  A    between atoms: C_15  and  C_16
REMARK    8  A    between atoms: C_16  and  O_17
REMARK    9  A    between atoms: C_16  and  C_18
REMARK   10  A    between atoms: C_21  and  O_22
REMARK   11  A    between atoms: C_23  and  N_24
REMARK   12  A    between atoms: N_24  and  S_25
REMARK   13  A    between atoms: S_25  and  C_26
REMARK   14  A    between atoms: C_31  and  C_32
REMARK                            x       y       z     vdW  Elec       q    Type
REMARK                         _______ _______ _______ _____ _____    ______ ____
ROOT
ATOM      1  N   UNL     1       0.792   9.075  19.816  0.00  0.00    +0.000 NA
ATOM      2  H   UNL     1      -0.122   8.621  19.863  0.00  0.00    +0.000 HD
ENDROOT
BRANCH   1   3
ATOM      3  C   UNL     1       0.625  10.437  19.264  0.00  0.00    +0.000 C 
BRANCH   3   8
ATOM      4  C   UNL     1      -4.652  11.625  16.972  0.00  0.00    +0.000 C 
ATOM      5  C   UNL     1      -3.332  11.239  17.580  0.00  0.00    +0.000 A 
ATOM      6  C   UNL     1      -2.970  11.777  18.820  0.00  0.00    +0.000 A 
ATOM      7  C   UNL     1      -1.715  11.518  19.376  0.00  0.00    +0.000 A 
ATOM      8  C   UNL     1      -0.795  10.680  18.731  0.00  0.00    +0.000 A 
ATOM      9  C   UNL     1      -1.201  10.081  17.523  0.00  0.00    +0.000 A 
ATOM     10  C   UNL     1      -2.427  10.399  16.911  0.00  0.00    +0.000 A 
ATOM     11  C   UNL     1      -2.703   9.900  15.519  0.00  0.00    +0.000 C 
ENDBRANCH   3   8
BRANCH   3  12
ATOM     12  C   UNL     1       1.075  11.567  20.248  0.00  0.00    +0.000 C 
BRANCH  12  13
ATOM     13  C   UNL     1       1.556  12.871  19.642  0.00  0.00    +0.000 A 
ATOM     14  C   UNL     1       2.507  12.893  18.614  0.00  0.00    +0.000 A 
ATOM     15  C   UNL     1       2.898  14.098  18.027  0.00  0.00    +0.000 A 
ATOM     16  C   UNL     1       2.341  15.298  18.460  0.00  0.00    +0.000 A 
ATOM     17  C   UNL     1       1.405  15.295  19.490  0.00  0.00    +0.000 A 
ATOM     18  C   UNL     1       1.018  14.090  20.078  0.00  0.00    +0.000 A 
ENDBRANCH  12  13
ENDBRANCH   3  12
ENDBRANCH   1   3
BRANCH   1  19
ATOM     19  C   UNL     1       1.670   8.212  19.021  0.00  0.00    +0.000 C 
BRANCH  19  20
ATOM     20  C   UNL     1       2.482   7.258  19.927  0.00  0.00    +0.000 C 
BRANCH  20  21
ATOM     21  C   UNL     1       2.967   6.054  19.142  0.00  0.00    +0.000 A 
ATOM     22  C   UNL     1       2.091   5.374  18.279  0.00  0.00    +0.000 A 
ATOM     23  C   UNL     1       2.521   4.257  17.556  0.00  0.00    +0.000 A 
ATOM     24  C   UNL     1       3.842   3.834  17.675  0.00  0.00    +0.000 A 
ATOM     25  C   UNL     1       4.733   4.503  18.517  0.00  0.00    +0.000 A 
ATOM     26  C   UNL     1       4.290   5.589  19.268  0.00  0.00    +0.000 A 
BRANCH  24  27
ATOM     27  O   UNL     1       4.296   2.761  16.957  0.00  0.00    +0.000 OA
ATOM     28  H   UNL     1       4.905   3.084  16.271  0.00  0.00    +0.000 HD
ENDBRANCH  24  27
BRANCH  25  29
ATOM     29  N   UNL     1       6.104   4.109  18.601  0.00  0.00    +0.000 N 
ATOM     30  H   UNL     1       6.396   3.869  19.547  0.00  0.00    +0.000 HD
BRANCH  29  31
ATOM     31  S   UNL     1       7.261   5.022  17.802  0.00  0.00    +0.000 S 
ATOM     32  C   UNL     1       7.861   6.139  19.057  0.00  0.00    +0.000 C 
ATOM     33  O   UNL     1       8.341   4.105  17.497  0.00  0.00    +0.000 OA
ATOM     34  O   UNL     1       6.628   5.795  16.756  0.00  0.00    +0.000 OA
ENDBRANCH  29  31
ENDBRANCH  25  29
ENDBRANCH  20  21
BRANCH  20  35
ATOM     35  O   UNL     1       1.693   6.829  21.040  0.00  0.00    +0.000 OA
ATOM     36  H   UNL     1       1.276   7.615  21.427  0.00  0.00    +0.000 HD
ENDBRANCH  20  35
ENDBRANCH  19  20
ENDBRANCH   1  19
TORSDOF 11
ENDMDL
MODEL 9
REMARK VINA RESULT:      -8.0      1.104      3.965
REMARK  Name = 
REMARK  14 active torsions:
REMARK  status: ('A' for Active; 'I' for Inactive)
REMARK    1  A    between atoms: C_1  and  C_2
REMARK    2  A    between atoms: C_5  and  C_6
REMARK    3  A    between atoms: C_6  and  C_7
REMARK    4  A    between atoms: C_6  and  N_14
REMARK    5  A    between atoms: C_7  and  C_8
REMARK    6  A    between atoms: N_14  and  C_15
REMARK    7  A    between atoms: C_15  and  C_16
REMARK    8  A    between atoms: C_16  and  O_17
REMARK    9  A    between atoms: C_16  and  C_18
REMARK   10  A    between atoms: C_21  and  O_22
REMARK   11  A    between atoms: C_23  and  N_24
REMARK   12  A    between atoms: N_24  and  S_25
REMARK   13  A    between atoms: S_25  and  C_26
REMARK   14  A    between atoms: C_31  and  C_32
REMARK                            x       y       z     vdW  Elec       q    Type
REMARK                         _______ _______ _______ _____ _____    ______ ____
ROOT
ATOM      1  N   UNL     1       2.208   8.063  17.915  0.00  0.00    +0.000 NA
ATOM      2  H   UNL     1       1.584   8.122  17.107  0.00  0.00    +0.000 HD
ENDROOT
BRANCH   1   3
ATOM      3  C   UNL     1       2.404   6.639  18.267  0.00  0.00    +0.000 C 
BRANCH   3   8
ATOM      4  C   UNL     1       7.373   4.728  15.785  0.00  0.00    +0.000 C 
ATOM      5  C   UNL     1       6.135   5.193  16.500  0.00  0.00    +0.000 A 
ATOM      6  C   UNL     1       4.963   4.434  16.396  0.00  0.00    +0.000 A 
ATOM      7  C   UNL     1       3.768   4.877  16.968  0.00  0.00    +0.000 A 
ATOM      8  C   UNL     1       3.712   6.073  17.696  0.00  0.00    +0.000 A 
ATOM      9  C   UNL     1       4.915   6.788  17.861  0.00  0.00    +0.000 A 
ATOM     10  C   UNL     1       6.105   6.397  17.222  0.00  0.00    +0.000 A 
ATOM     11  C   UNL     1       7.292   7.321  17.255  0.00  0.00    +0.000 C 
ENDBRANCH   3   8
BRANCH   3  12
ATOM     12  C   UNL     1       2.268   6.352  19.799  0.00  0.00    +0.000 C 
BRANCH  12  13
ATOM     13  C   UNL     1       1.970   4.926  20.219  0.00  0.00    +0.000 A 
ATOM     14  C   UNL     1       2.452   4.404  21.427  0.00  0.00    +0.000 A 
ATOM     15  C   UNL     1       2.123   3.107  21.826  0.00  0.00    +0.000 A 
ATOM     16  C   UNL     1       1.305   2.316  21.024  0.00  0.00    +0.000 A 
ATOM     17  C   UNL     1       0.831   2.815  19.814  0.00  0.00    +0.000 A 
ATOM     18  C   UNL     1       1.163   4.109  19.415  0.00  0.00    +0.000 A 
ENDBRANCH  12  13
ENDBRANCH   3  12
ENDBRANCH   1   3
BRANCH   1  19
ATOM     19  C   UNL     1       1.616   8.867  18.987  0.00  0.00    +0.000 C 
BRANCH  19  20
ATOM     20  C   UNL     1       1.533  10.358  18.584  0.00  0.00    +0.000 C 
BRANCH  20  21
ATOM     21  C   UNL     1       0.091  10.828  18.554  0.00  0.00    +0.000 A 
ATOM     22  C   UNL     1      -0.893  10.047  17.924  0.00  0.00    +0.000 A 
ATOM     23  C   UNL     1      -2.223  10.472  17.879  0.00  0.00    +0.000 A 
ATOM     24  C   UNL     1      -2.579  11.670  18.493  0.00  0.00    +0.000 A 
ATOM     25  C   UNL     1      -1.619  12.455  19.137  0.00  0.00    +0.000 A 
ATOM     26  C   UNL     1      -0.287  12.050  19.142  0.00  0.00    +0.000 A 
BRANCH  24  27
ATOM     27  O   UNL     1      -3.880  12.094  18.488  0.00  0.00    +0.000 OA
ATOM     28  H   UNL     1      -4.044  12.576  17.658  0.00  0.00    +0.000 HD
ENDBRANCH  24  27
BRANCH  25  29
ATOM     29  N   UNL     1      -1.987  13.656  19.817  0.00  0.00    +0.000 N 
ATOM     30  H   UNL     1      -1.407  14.455  19.563  0.00  0.00    +0.000 HD
BRANCH  29  31
ATOM     31  S   UNL     1      -2.282  13.598  21.466  0.00  0.00    +0.000 S 
ATOM     32  C   UNL     1      -0.769  14.206  22.190  0.00  0.00    +0.000 C 
ATOM     33  O   UNL     1      -3.304  14.594  21.716  0.00  0.00    +0.000 OA
ATOM     34  O   UNL     1      -2.472  12.222  21.873  0.00  0.00    +0.000 OA
ENDBRANCH  29  31
ENDBRANCH  25  29
ENDBRANCH  20  21
BRANCH  20  35
ATOM     35  O   UNL     1       2.142  10.568  17.307  0.00  0.00    +0.000 OA
ATOM     36  H   UNL     1       2.990  11.015  17.454  0.00  0.00    +0.000 HD
ENDBRANCH  20  35
ENDBRANCH  19  20
ENDBRANCH   1  19
TORSDOF 11
ENDMDL
