MODEL 1
REMARK VINA RESULT:      -7.2      0.000      0.000
REMARK  Name = 
REMARK  7 active torsions:
REMARK  status: ('A' for Active; 'I' for Inactive)
REMARK    1  A    between atoms: C_2  and  C_15
REMARK    2  A    between atoms: N_3  and  C_4
REMARK    3  A    between atoms: C_5  and  O_6
REMARK    4  A    between atoms: C_8  and  C_9
REMARK    5  A    between atoms: C_9  and  O_10
REMARK    6  A    between atoms: C_11  and  O_12
REMARK    7  A    between atoms: C_13  and  O_14
REMARK                            x       y       z     vdW  Elec       q    Type
REMARK                         _______ _______ _______ _____ _____    ______ ____
ROOT
ATOM      1  C   UNL     1       3.656   3.736  17.793  0.00  0.00    +0.000 C 
ATOM      2  C   UNL     1       2.199   3.227  17.718  0.00  0.00    +0.000 C 
ATOM      3  O   UNL     1       1.547   3.261  18.983  0.00  0.00    +0.000 OA
ATOM      4  C   UNL     1       2.226   2.536  20.020  0.00  0.00    +0.000 C 
ATOM      5  C   UNL     1       3.675   3.001  20.204  0.00  0.00    +0.000 C 
ATOM      6  C   UNL     1       4.429   2.945  18.865  0.00  0.00    +0.000 C 
ENDROOT
BRANCH   1   9
ATOM      7  O   UNL     1       5.527   5.584  16.817  0.00  0.00    +0.000 OA
ATOM      8  C   UNL     1       5.213   4.646  16.085  0.00  0.00    +0.000 C 
ATOM      9  N   UNL     1       4.313   3.681  16.482  0.00  0.00    +0.000 N 
ATOM     10  H   UNL     1       4.235   2.825  15.947  0.00  0.00    +0.000 HD
BRANCH   8  11
ATOM     11  C   UNL     1       5.824   4.482  14.735  0.00  0.00    +0.000 A 
ATOM     12  C   UNL     1       7.029   5.138  14.457  0.00  0.00    +0.000 A 
ATOM     13  C   UNL     1       7.637   4.989  13.209  0.00  0.00    +0.000 A 
ATOM     14  C   UNL     1       7.047   4.174  12.235  0.00  0.00    +0.000 A 
ATOM     15  C   UNL     1       5.838   3.538  12.502  0.00  0.00    +0.000 A 
ATOM     16  C   UNL     1       5.222   3.685  13.747  0.00  0.00    +0.000 A 
ENDBRANCH   8  11
ENDBRANCH   1   9
BRANCH   2  17
ATOM     17  O   UNL     1       2.087   1.941  17.122  0.00  0.00    +0.000 OA
ATOM     18  H   UNL     1       2.899   1.737  16.639  0.00  0.00    +0.000 HD
ENDBRANCH   2  17
BRANCH   5  19
ATOM     19  O   UNL     1       4.296   2.168  21.187  0.00  0.00    +0.000 OA
ATOM     20  H   UNL     1       4.665   1.383  20.738  0.00  0.00    +0.000 HD
ENDBRANCH   5  19
BRANCH   6  21
ATOM     21  O   UNL     1       5.762   3.422  19.073  0.00  0.00    +0.000 OA
ATOM     22  H   UNL     1       5.910   4.204  18.497  0.00  0.00    +0.000 HD
ENDBRANCH   6  21
BRANCH   4  23
ATOM     23  C   UNL     1       1.425   2.717  21.316  0.00  0.00    +0.000 C 
BRANCH  23  24
ATOM     24  O   UNL     1       2.191   3.478  22.253  0.00  0.00    +0.000 OA
ATOM     25  H   UNL     1       1.560   4.067  22.707  0.00  0.00    +0.000 HD
ENDBRANCH  23  24
ENDBRANCH   4  23
TORSDOF 7
ENDMDL
MODEL 2
REMARK VINA RESULT:      -7.2      0.049      1.083
REMARK  Name = 
REMARK  7 active torsions:
REMARK  status: ('A' for Active; 'I' for Inactive)
REMARK    1  A    between atoms: C_2  and  C_15
REMARK    2  A    between atoms: N_3  and  C_4
REMARK    3  A    between atoms: C_5  and  O_6
REMARK    4  A    between atoms: C_8  and  C_9
REMARK    5  A    between atoms: C_9  and  O_10
REMARK    6  A    between atoms: C_11  and  O_12
REMARK    7  A    between atoms: C_13  and  O_14
REMARK                            x       y       z     vdW  Elec       q    Type
REMARK                         _______ _______ _______ _____ _____    ______ ____
ROOT
ATOM      1  C   UNL     1       3.673   3.736  17.772  0.00  0.00    +0.000 C 
ATOM      2  C   UNL     1       2.221   3.216  17.677  0.00  0.00    +0.000 C 
ATOM      3  O   UNL     1       1.551   3.247  18.933  0.00  0.00    +0.000 OA
ATOM      4  C   UNL     1       2.221   2.528  19.981  0.00  0.00    +0.000 C 
ATOM      5  C   UNL     1       3.663   3.004  20.185  0.00  0.00    +0.000 C 
ATOM      6  C   UNL     1       4.437   2.952  18.856  0.00  0.00    +0.000 C 
ENDROOT
BRANCH   1   9
ATOM      7  O   UNL     1       5.565   5.581  16.831  0.00  0.00    +0.000 OA
ATOM      8  C   UNL     1       5.258   4.648  16.091  0.00  0.00    +0.000 C 
ATOM      9  N   UNL     1       4.349   3.685  16.470  0.00  0.00    +0.000 N 
ATOM     10  H   UNL     1       4.275   2.831  15.931  0.00  0.00    +0.000 HD
BRANCH   8  11
ATOM     11  C   UNL     1       5.888   4.487  14.749  0.00  0.00    +0.000 A 
ATOM     12  C   UNL     1       5.248   3.687  13.796  0.00  0.00    +0.000 A 
ATOM     13  C   UNL     1       5.802   3.533  12.524  0.00  0.00    +0.000 A 
ATOM     14  C   UNL     1       6.996   4.186  12.196  0.00  0.00    +0.000 A 
ATOM     15  C   UNL     1       7.645   4.964  13.149  0.00  0.00    +0.000 A 
ATOM     16  C   UNL     1       7.099   5.121  14.425  0.00  0.00    +0.000 A 
ENDBRANCH   8  11
ENDBRANCH   1   9
BRANCH   2  17
ATOM     17  O   UNL     1       2.127   1.929  17.082  0.00  0.00    +0.000 OA
ATOM     18  H   UNL     1       2.546   1.275  17.657  0.00  0.00    +0.000 HD
ENDBRANCH   2  17
BRANCH   5  19
ATOM     19  O   UNL     1       4.277   2.177  21.176  0.00  0.00    +0.000 OA
ATOM     20  H   UNL     1       5.161   1.912  20.855  0.00  0.00    +0.000 HD
ENDBRANCH   5  19
BRANCH   6  21
ATOM     21  O   UNL     1       5.764   3.439  19.082  0.00  0.00    +0.000 OA
ATOM     22  H   UNL     1       6.203   3.571  18.213  0.00  0.00    +0.000 HD
ENDBRANCH   6  21
BRANCH   4  23
ATOM     23  C   UNL     1       1.400   2.705  21.265  0.00  0.00    +0.000 C 
BRANCH  23  24
ATOM     24  O   UNL     1       2.148   3.472  22.212  0.00  0.00    +0.000 OA
ATOM     25  H   UNL     1       1.551   4.176  22.526  0.00  0.00    +0.000 HD
ENDBRANCH  23  24
ENDBRANCH   4  23
TORSDOF 7
ENDMDL
MODEL 3
REMARK VINA RESULT:      -6.9      1.414      1.802
REMARK  Name = 
REMARK  7 active torsions:
REMARK  status: ('A' for Active; 'I' for Inactive)
REMARK    1  A    between atoms: C_2  and  C_15
REMARK    2  A    between atoms: N_3  and  C_4
REMARK    3  A    between atoms: C_5  and  O_6
REMARK    4  A    between atoms: C_8  and  C_9
REMARK    5  A    between atoms: C_9  and  O_10
REMARK    6  A    between atoms: C_11  and  O_12
REMARK    7  A    between atoms: C_13  and  O_14
REMARK                            x       y       z     vdW  Elec       q    Type
REMARK                         _______ _______ _______ _____ _____    ______ ____
ROOT
ATOM      1  C   UNL     1       4.498   3.819  17.870  0.00  0.00    +0.000 C 
ATOM      2  C   UNL     1       3.977   5.170  18.410  0.00  0.00    +0.000 C 
ATOM      3  O   UNL     1       3.543   5.082  19.763  0.00  0.00    +0.000 OA
ATOM      4  C   UNL     1       2.539   4.082  20.000  0.00  0.00    +0.000 C 
ATOM      5  C   UNL     1       2.981   2.690  19.536  0.00  0.00    +0.000 C 
ATOM      6  C   UNL     1       3.425   2.732  18.064  0.00  0.00    +0.000 C 
ENDROOT
BRANCH   1   9
ATOM      7  O   UNL     1       7.097   4.412  16.996  0.00  0.00    +0.000 OA
ATOM      8  C   UNL     1       6.231   4.239  16.140  0.00  0.00    +0.000 C 
ATOM      9  N   UNL     1       4.930   3.930  16.471  0.00  0.00    +0.000 N 
ATOM     10  H   UNL     1       4.301   3.594  15.753  0.00  0.00    +0.000 HD
BRANCH   8  11
ATOM     11  C   UNL     1       6.555   4.315  14.687  0.00  0.00    +0.000 A 
ATOM     12  C   UNL     1       7.572   5.182  14.269  0.00  0.00    +0.000 A 
ATOM     13  C   UNL     1       7.913   5.262  12.917  0.00  0.00    +0.000 A 
ATOM     14  C   UNL     1       7.244   4.468  11.978  0.00  0.00    +0.000 A 
ATOM     15  C   UNL     1       6.219   3.622  12.389  0.00  0.00    +0.000 A 
ATOM     16  C   UNL     1       5.869   3.539  13.738  0.00  0.00    +0.000 A 
ENDBRANCH   8  11
ENDBRANCH   1   9
BRANCH   2  17
ATOM     17  O   UNL     1       2.971   5.749  17.589  0.00  0.00    +0.000 OA
ATOM     18  H   UNL     1       2.207   5.157  17.549  0.00  0.00    +0.000 HD
ENDBRANCH   2  17
BRANCH   5  19
ATOM     19  O   UNL     1       1.891   1.783  19.725  0.00  0.00    +0.000 OA
ATOM     20  H   UNL     1       1.101   2.298  19.978  0.00  0.00    +0.000 HD
ENDBRANCH   5  19
BRANCH   6  21
ATOM     21  O   UNL     1       3.865   1.424  17.684  0.00  0.00    +0.000 OA
ATOM     22  H   UNL     1       3.082   0.897  17.409  0.00  0.00    +0.000 HD
ENDBRANCH   6  21
BRANCH   4  23
ATOM     23  C   UNL     1       2.225   4.085  21.502  0.00  0.00    +0.000 C 
BRANCH  23  24
ATOM     24  O   UNL     1       2.654   2.852  22.084  0.00  0.00    +0.000 OA
ATOM     25  H   UNL     1       3.370   2.515  21.513  0.00  0.00    +0.000 HD
ENDBRANCH  23  24
ENDBRANCH   4  23
TORSDOF 7
ENDMDL
MODEL 4
REMARK VINA RESULT:      -6.9      1.409      2.101
REMARK  Name = 
REMARK  7 active torsions:
REMARK  status: ('A' for Active; 'I' for Inactive)
REMARK    1  A    between atoms: C_2  and  C_15
REMARK    2  A    between atoms: N_3  and  C_4
REMARK    3  A    between atoms: C_5  and  O_6
REMARK    4  A    between atoms: C_8  and  C_9
REMARK    5  A    between atoms: C_9  and  O_10
REMARK    6  A    between atoms: C_11  and  O_12
REMARK    7  A    between atoms: C_13  and  O_14
REMARK                            x       y       z     vdW  Elec       q    Type
REMARK                         _______ _______ _______ _____ _____    ______ ____
ROOT
ATOM      1  C   UNL     1       4.529   3.784  17.896  0.00  0.00    +0.000 C 
ATOM      2  C   UNL     1       4.018   5.140  18.431  0.00  0.00    +0.000 C 
ATOM      3  O   UNL     1       3.566   5.056  19.778  0.00  0.00    +0.000 OA
ATOM      4  C   UNL     1       2.546   4.069  20.001  0.00  0.00    +0.000 C 
ATOM      5  C   UNL     1       2.975   2.672  19.541  0.00  0.00    +0.000 C 
ATOM      6  C   UNL     1       3.439   2.710  18.074  0.00  0.00    +0.000 C 
ENDROOT
BRANCH   1   9
ATOM      7  O   UNL     1       7.099   4.529  17.055  0.00  0.00    +0.000 OA
ATOM      8  C   UNL     1       6.263   4.278  16.188  0.00  0.00    +0.000 C 
ATOM      9  N   UNL     1       4.979   3.891  16.503  0.00  0.00    +0.000 N 
ATOM     10  H   UNL     1       4.388   3.497  15.781  0.00  0.00    +0.000 HD
BRANCH   8  11
ATOM     11  C   UNL     1       6.610   4.343  14.739  0.00  0.00    +0.000 A 
ATOM     12  C   UNL     1       5.896   3.543  13.839  0.00  0.00    +0.000 A 
ATOM     13  C   UNL     1       6.184   3.596  12.474  0.00  0.00    +0.000 A 
ATOM     14  C   UNL     1       7.182   4.455  12.001  0.00  0.00    +0.000 A 
ATOM     15  C   UNL     1       7.908   5.235  12.896  0.00  0.00    +0.000 A 
ATOM     16  C   UNL     1       7.628   5.186  14.264  0.00  0.00    +0.000 A 
ENDBRANCH   8  11
ENDBRANCH   1   9
BRANCH   2  17
ATOM     17  O   UNL     1       3.030   5.733  17.599  0.00  0.00    +0.000 OA
ATOM     18  H   UNL     1       2.846   5.150  16.849  0.00  0.00    +0.000 HD
ENDBRANCH   2  17
BRANCH   5  19
ATOM     19  O   UNL     1       1.872   1.779  19.715  0.00  0.00    +0.000 OA
ATOM     20  H   UNL     1       1.364   1.750  18.881  0.00  0.00    +0.000 HD
ENDBRANCH   5  19
BRANCH   6  21
ATOM     21  O   UNL     1       3.867   1.397  17.698  0.00  0.00    +0.000 OA
ATOM     22  H   UNL     1       3.239   1.041  17.030  0.00  0.00    +0.000 HD
ENDBRANCH   6  21
BRANCH   4  23
ATOM     23  C   UNL     1       2.213   4.073  21.499  0.00  0.00    +0.000 C 
BRANCH  23  24
ATOM     24  O   UNL     1       2.627   2.838  22.087  0.00  0.00    +0.000 OA
ATOM     25  H   UNL     1       3.242   3.072  22.808  0.00  0.00    +0.000 HD
ENDBRANCH  23  24
ENDBRANCH   4  23
TORSDOF 7
ENDMDL
MODEL 5
REMARK VINA RESULT:      -6.1      1.244      1.879
REMARK  Name = 
REMARK  7 active torsions:
REMARK  status: ('A' for Active; 'I' for Inactive)
REMARK    1  A    between atoms: C_2  and  C_15
REMARK    2  A    between atoms: N_3  and  C_4
REMARK    3  A    between atoms: C_5  and  O_6
REMARK    4  A    between atoms: C_8  and  C_9
REMARK    5  A    between atoms: C_9  and  O_10
REMARK    6  A    between atoms: C_11  and  O_12
REMARK    7  A    between atoms: C_13  and  O_14
REMARK                            x       y       z     vdW  Elec       q    Type
REMARK                         _______ _______ _______ _____ _____    ______ ____
ROOT
ATOM      1  C   UNL     1       2.936   3.746  17.229  0.00  0.00    +0.000 C 
ATOM      2  C   UNL     1       2.916   2.295  17.761  0.00  0.00    +0.000 C 
ATOM      3  O   UNL     1       2.115   2.158  18.930  0.00  0.00    +0.000 OA
ATOM      4  C   UNL     1       2.486   3.030  20.009  0.00  0.00    +0.000 C 
ATOM      5  C   UNL     1       2.492   4.504  19.592  0.00  0.00    +0.000 C 
ATOM      6  C   UNL     1       3.378   4.705  18.350  0.00  0.00    +0.000 C 
ENDROOT
BRANCH   1   9
ATOM      7  O   UNL     1       5.699   4.232  17.205  0.00  0.00    +0.000 OA
ATOM      8  C   UNL     1       5.128   4.120  16.122  0.00  0.00    +0.000 C 
ATOM      9  N   UNL     1       3.776   3.867  16.031  0.00  0.00    +0.000 N 
ATOM     10  H   UNL     1       3.383   3.579  15.144  0.00  0.00    +0.000 HD
BRANCH   8  11
ATOM     11  C   UNL     1       5.882   4.214  14.838  0.00  0.00    +0.000 A 
ATOM     12  C   UNL     1       5.414   3.501  13.729  0.00  0.00    +0.000 A 
ATOM     13  C   UNL     1       6.086   3.584  12.508  0.00  0.00    +0.000 A 
ATOM     14  C   UNL     1       7.226   4.388  12.389  0.00  0.00    +0.000 A 
ATOM     15  C   UNL     1       7.705   5.081  13.496  0.00  0.00    +0.000 A 
ATOM     16  C   UNL     1       7.040   5.001  14.722  0.00  0.00    +0.000 A 
ENDBRANCH   8  11
ENDBRANCH   1   9
BRANCH   2  17
ATOM     17  O   UNL     1       4.216   1.758  17.968  0.00  0.00    +0.000 OA
ATOM     18  H   UNL     1       4.873   2.465  17.898  0.00  0.00    +0.000 HD
ENDBRANCH   2  17
BRANCH   5  19
ATOM     19  O   UNL     1       2.958   5.285  20.695  0.00  0.00    +0.000 OA
ATOM     20  H   UNL     1       3.821   5.676  20.455  0.00  0.00    +0.000 HD
ENDBRANCH   5  19
BRANCH   6  21
ATOM     21  O   UNL     1       3.325   6.085  17.971  0.00  0.00    +0.000 OA
ATOM     22  H   UNL     1       3.180   6.627  18.778  0.00  0.00    +0.000 HD
ENDBRANCH   6  21
BRANCH   4  23
ATOM     23  C   UNL     1       1.499   2.791  21.160  0.00  0.00    +0.000 C 
BRANCH  23  24
ATOM     24  O   UNL     1       2.128   3.105  22.405  0.00  0.00    +0.000 OA
ATOM     25  H   UNL     1       2.082   2.293  22.945  0.00  0.00    +0.000 HD
ENDBRANCH  23  24
ENDBRANCH   4  23
TORSDOF 7
ENDMDL
MODEL 6
REMARK VINA RESULT:      -6.1      1.271      1.570
REMARK  Name = 
REMARK  7 active torsions:
REMARK  status: ('A' for Active; 'I' for Inactive)
REMARK    1  A    between atoms: C_2  and  C_15
REMARK    2  A    between atoms: N_3  and  C_4
REMARK    3  A    between atoms: C_5  and  O_6
REMARK    4  A    between atoms: C_8  and  C_9
REMARK    5  A    between atoms: C_9  and  O_10
REMARK    6  A    between atoms: C_11  and  O_12
REMARK    7  A    between atoms: C_13  and  O_14
REMARK                            x       y       z     vdW  Elec       q    Type
REMARK                         _______ _______ _______ _____ _____    ______ ____
ROOT
ATOM      1  C   UNL     1       2.959   3.737  17.197  0.00  0.00    +0.000 C 
ATOM      2  C   UNL     1       2.992   2.300  17.762  0.00  0.00    +0.000 C 
ATOM      3  O   UNL     1       2.214   2.165  18.946  0.00  0.00    +0.000 OA
ATOM      4  C   UNL     1       2.575   3.073  20.000  0.00  0.00    +0.000 C 
ATOM      5  C   UNL     1       2.529   4.537  19.549  0.00  0.00    +0.000 C 
ATOM      6  C   UNL     1       3.388   4.735  18.288  0.00  0.00    +0.000 C 
ENDROOT
BRANCH   1   9
ATOM      7  O   UNL     1       5.718   4.241  17.119  0.00  0.00    +0.000 OA
ATOM      8  C   UNL     1       5.127   4.119  16.047  0.00  0.00    +0.000 C 
ATOM      9  N   UNL     1       3.776   3.857  15.983  0.00  0.00    +0.000 N 
ATOM     10  H   UNL     1       3.368   3.560  15.106  0.00  0.00    +0.000 HD
BRANCH   8  11
ATOM     11  C   UNL     1       5.857   4.210  14.749  0.00  0.00    +0.000 A 
ATOM     12  C   UNL     1       7.009   5.001  14.679  0.00  0.00    +0.000 A 
ATOM     13  C   UNL     1       7.725   5.091  13.484  0.00  0.00    +0.000 A 
ATOM     14  C   UNL     1       7.297   4.382  12.355  0.00  0.00    +0.000 A 
ATOM     15  C   UNL     1       6.139   3.612  12.417  0.00  0.00    +0.000 A 
ATOM     16  C   UNL     1       5.415   3.520  13.608  0.00  0.00    +0.000 A 
ENDBRANCH   8  11
ENDBRANCH   1   9
BRANCH   2  17
ATOM     17  O   UNL     1       4.311   1.808  17.960  0.00  0.00    +0.000 OA
ATOM     18  H   UNL     1       4.699   1.571  17.107  0.00  0.00    +0.000 HD
ENDBRANCH   2  17
BRANCH   5  19
ATOM     19  O   UNL     1       2.988   5.357  20.626  0.00  0.00    +0.000 OA
ATOM     20  H   UNL     1       3.873   5.702  20.397  0.00  0.00    +0.000 HD
ENDBRANCH   5  19
BRANCH   6  21
ATOM     21  O   UNL     1       3.287   6.104  17.880  0.00  0.00    +0.000 OA
ATOM     22  H   UNL     1       2.478   6.493  18.282  0.00  0.00    +0.000 HD
ENDBRANCH   6  21
BRANCH   4  23
ATOM     23  C   UNL     1       1.614   2.831  21.172  0.00  0.00    +0.000 C 
BRANCH  23  24
ATOM     24  O   UNL     1       2.290   3.080  22.407  0.00  0.00    +0.000 OA
ATOM     25  H   UNL     1       1.628   3.475  23.005  0.00  0.00    +0.000 HD
ENDBRANCH  23  24
ENDBRANCH   4  23
TORSDOF 7
ENDMDL
MODEL 7
REMARK VINA RESULT:      -6.0      1.838      2.571
REMARK  Name = 
REMARK  7 active torsions:
REMARK  status: ('A' for Active; 'I' for Inactive)
REMARK    1  A    between atoms: C_2  and  C_15
REMARK    2  A    between atoms: N_3  and  C_4
REMARK    3  A    between atoms: C_5  and  O_6
REMARK    4  A    between atoms: C_8  and  C_9
REMARK    5  A    between atoms: C_9  and  O_10
REMARK    6  A    between atoms: C_11  and  O_12
REMARK    7  A    between atoms: C_13  and  O_14
REMARK                            x       y       z     vdW  Elec       q    Type
REMARK                         _______ _______ _______ _____ _____    ______ ____
ROOT
ATOM      1  C   UNL     1       4.141   4.428  17.449  0.00  0.00    +0.000 C 
ATOM      2  C   UNL     1       4.249   5.834  18.079  0.00  0.00    +0.000 C 
ATOM      3  O   UNL     1       3.735   5.875  19.406  0.00  0.00    +0.000 OA
ATOM      4  C   UNL     1       2.375   5.429  19.529  0.00  0.00    +0.000 C 
ATOM      5  C   UNL     1       2.172   4.017  18.970  0.00  0.00    +0.000 C 
ATOM      6  C   UNL     1       2.683   3.937  17.521  0.00  0.00    +0.000 C 
ENDROOT
BRANCH   1   9
ATOM      7  O   UNL     1       6.849   4.298  16.731  0.00  0.00    +0.000 OA
ATOM      8  C   UNL     1       6.019   4.358  15.825  0.00  0.00    +0.000 C 
ATOM      9  N   UNL     1       4.666   4.410  16.078  0.00  0.00    +0.000 N 
ATOM     10  H   UNL     1       4.012   4.250  15.322  0.00  0.00    +0.000 HD
BRANCH   8  11
ATOM     11  C   UNL     1       6.435   4.336  14.393  0.00  0.00    +0.000 A 
ATOM     12  C   UNL     1       7.455   5.199  13.975  0.00  0.00    +0.000 A 
ATOM     13  C   UNL     1       7.880   5.188  12.646  0.00  0.00    +0.000 A 
ATOM     14  C   UNL     1       7.294   4.307  11.730  0.00  0.00    +0.000 A 
ATOM     15  C   UNL     1       6.266   3.463  12.138  0.00  0.00    +0.000 A 
ATOM     16  C   UNL     1       5.832   3.470  13.466  0.00  0.00    +0.000 A 
ENDBRANCH   8  11
ENDBRANCH   1   9
BRANCH   2  17
ATOM     17  O   UNL     1       3.667   6.852  17.275  0.00  0.00    +0.000 OA
ATOM     18  H   UNL     1       3.271   7.527  17.845  0.00  0.00    +0.000 HD
ENDBRANCH   2  17
BRANCH   5  19
ATOM     19  O   UNL     1       0.782   3.693  19.050  0.00  0.00    +0.000 OA
ATOM     20  H   UNL     1       0.588   3.386  19.957  0.00  0.00    +0.000 HD
ENDBRANCH   5  19
BRANCH   6  21
ATOM     21  O   UNL     1       2.511   2.595  17.051  0.00  0.00    +0.000 OA
ATOM     22  H   UNL     1       2.959   1.983  17.676  0.00  0.00    +0.000 HD
ENDBRANCH   6  21
BRANCH   4  23
ATOM     23  C   UNL     1       1.999   5.488  21.015  0.00  0.00    +0.000 C 
BRANCH  23  24
ATOM     24  O   UNL     1       1.751   6.843  21.396  0.00  0.00    +0.000 OA
ATOM     25  H   UNL     1       1.077   7.181  20.776  0.00  0.00    +0.000 HD
ENDBRANCH  23  24
ENDBRANCH   4  23
TORSDOF 7
ENDMDL
MODEL 8
REMARK VINA RESULT:      -6.0      1.869      2.828
REMARK  Name = 
REMARK  7 active torsions:
REMARK  status: ('A' for Active; 'I' for Inactive)
REMARK    1  A    between atoms: C_2  and  C_15
REMARK    2  A    between atoms: N_3  and  C_4
REMARK    3  A    between atoms: C_5  and  O_6
REMARK    4  A    between atoms: C_8  and  C_9
REMARK    5  A    between atoms: C_9  and  O_10
REMARK    6  A    between atoms: C_11  and  O_12
REMARK    7  A    between atoms: C_13  and  O_14
REMARK                            x       y       z     vdW  Elec       q    Type
REMARK                         _______ _______ _______ _____ _____    ______ ____
ROOT
ATOM      1  C   UNL     1       4.189   4.711  17.496  0.00  0.00    +0.000 C 
ATOM      2  C   UNL     1       4.109   6.159  18.027  0.00  0.00    +0.000 C 
ATOM      3  O   UNL     1       3.566   6.225  19.341  0.00  0.00    +0.000 OA
ATOM      4  C   UNL     1       2.270   5.620  19.479  0.00  0.00    +0.000 C 
ATOM      5  C   UNL     1       2.256   4.159  19.017  0.00  0.00    +0.000 C 
ATOM      6  C   UNL     1       2.803   4.047  17.583  0.00  0.00    +0.000 C 
ENDROOT
BRANCH   1   9
ATOM      7  O   UNL     1       6.883   4.296  16.830  0.00  0.00    +0.000 OA
ATOM      8  C   UNL     1       6.085   4.469  15.909  0.00  0.00    +0.000 C 
ATOM      9  N   UNL     1       4.741   4.667  16.136  0.00  0.00    +0.000 N 
ATOM     10  H   UNL     1       4.091   4.599  15.362  0.00  0.00    +0.000 HD
BRANCH   8  11
ATOM     11  C   UNL     1       6.530   4.435  14.486  0.00  0.00    +0.000 A 
ATOM     12  C   UNL     1       5.909   3.537  13.609  0.00  0.00    +0.000 A 
ATOM     13  C   UNL     1       6.289   3.495  12.266  0.00  0.00    +0.000 A 
ATOM     14  C   UNL     1       7.286   4.355  11.792  0.00  0.00    +0.000 A 
ATOM     15  C   UNL     1       7.919   5.233  12.667  0.00  0.00    +0.000 A 
ATOM     16  C   UNL     1       7.547   5.280  14.013  0.00  0.00    +0.000 A 
ENDBRANCH   8  11
ENDBRANCH   1   9
BRANCH   2  17
ATOM     17  O   UNL     1       3.421   7.040  17.148  0.00  0.00    +0.000 OA
ATOM     18  H   UNL     1       3.031   7.764  17.656  0.00  0.00    +0.000 HD
ENDBRANCH   2  17
BRANCH   5  19
ATOM     19  O   UNL     1       0.915   3.670  19.103  0.00  0.00    +0.000 OA
ATOM     20  H   UNL     1       0.533   3.657  18.204  0.00  0.00    +0.000 HD
ENDBRANCH   5  19
BRANCH   6  21
ATOM     21  O   UNL     1       2.809   2.666  17.206  0.00  0.00    +0.000 OA
ATOM     22  H   UNL     1       3.641   2.255  17.529  0.00  0.00    +0.000 HD
ENDBRANCH   6  21
BRANCH   4  23
ATOM     23  C   UNL     1       1.859   5.732  20.953  0.00  0.00    +0.000 C 
BRANCH  23  24
ATOM     24  O   UNL     1       1.836   7.107  21.344  0.00  0.00    +0.000 OA
ATOM     25  H   UNL     1       1.070   7.506  20.891  0.00  0.00    +0.000 HD
ENDBRANCH  23  24
ENDBRANCH   4  23
TORSDOF 7
ENDMDL
MODEL 9
REMARK VINA RESULT:      -5.9      0.967      2.445
REMARK  Name = 
REMARK  7 active torsions:
REMARK  status: ('A' for Active; 'I' for Inactive)
REMARK    1  A    between atoms: C_2  and  C_15
REMARK    2  A    between atoms: N_3  and  C_4
REMARK    3  A    between atoms: C_5  and  O_6
REMARK    4  A    between atoms: C_8  and  C_9
REMARK    5  A    between atoms: C_9  and  O_10
REMARK    6  A    between atoms: C_11  and  O_12
REMARK    7  A    between atoms: C_13  and  O_14
REMARK                            x       y       z     vdW  Elec       q    Type
REMARK                         _______ _______ _______ _____ _____    ______ ____
ROOT
ATOM      1  C   UNL     1       3.859   2.749  17.968  0.00  0.00    +0.000 C 
ATOM      2  C   UNL     1       4.738   2.828  19.237  0.00  0.00    +0.000 C 
ATOM      3  O   UNL     1       3.983   2.648  20.431  0.00  0.00    +0.000 OA
ATOM      4  C   UNL     1       2.886   3.563  20.583  0.00  0.00    +0.000 C 
ATOM      5  C   UNL     1       1.927   3.527  19.389  0.00  0.00    +0.000 C 
ATOM      6  C   UNL     1       2.698   3.754  18.076  0.00  0.00    +0.000 C 
ENDROOT
BRANCH   1   9
ATOM      7  O   UNL     1       4.473   5.222  16.796  0.00  0.00    +0.000 OA
ATOM      8  C   UNL     1       4.892   4.206  16.243  0.00  0.00    +0.000 C 
ATOM      9  N   UNL     1       4.654   2.948  16.751  0.00  0.00    +0.000 N 
ATOM     10  H   UNL     1       5.180   2.160  16.393  0.00  0.00    +0.000 HD
BRANCH   8  11
ATOM     11  C   UNL     1       5.721   4.287  15.005  0.00  0.00    +0.000 A 
ATOM     12  C   UNL     1       5.309   3.576  13.872  0.00  0.00    +0.000 A 
ATOM     13  C   UNL     1       6.052   3.647  12.693  0.00  0.00    +0.000 A 
ATOM     14  C   UNL     1       7.207   4.437  12.638  0.00  0.00    +0.000 A 
ATOM     15  C   UNL     1       7.630   5.127  13.770  0.00  0.00    +0.000 A 
ATOM     16  C   UNL     1       6.894   5.058  14.955  0.00  0.00    +0.000 A 
ENDBRANCH   8  11
ENDBRANCH   1   9
BRANCH   2  17
ATOM     17  O   UNL     1       5.519   4.013  19.302  0.00  0.00    +0.000 OA
ATOM     18  H   UNL     1       5.436   4.502  18.471  0.00  0.00    +0.000 HD
ENDBRANCH   2  17
BRANCH   5  19
ATOM     19  O   UNL     1       0.925   4.528  19.583  0.00  0.00    +0.000 OA
ATOM     20  H   UNL     1       0.588   4.803  18.708  0.00  0.00    +0.000 HD
ENDBRANCH   5  19
BRANCH   6  21
ATOM     21  O   UNL     1       1.773   3.675  16.986  0.00  0.00    +0.000 OA
ATOM     22  H   UNL     1       1.728   2.742  16.680  0.00  0.00    +0.000 HD
ENDBRANCH   6  21
BRANCH   4  23
ATOM     23  C   UNL     1       2.155   3.201  21.882  0.00  0.00    +0.000 C 
BRANCH  23  24
ATOM     24  O   UNL     1       0.869   2.659  21.575  0.00  0.00    +0.000 OA
ATOM     25  H   UNL     1       0.974   1.689  21.577  0.00  0.00    +0.000 HD
ENDBRANCH  23  24
ENDBRANCH   4  23
TORSDOF 7
ENDMDL
