MODEL 1
REMARK VINA RESULT:      -8.7      0.000      0.000
REMARK  Name = 
REMARK  4 active torsions:
REMARK  status: ('A' for Active; 'I' for Inactive)
REMARK    1  A    between atoms: C_1  and  C_2
REMARK    2  A    between atoms: C_6  and  C_8
REMARK    3  A    between atoms: N_19  and  C_20
REMARK    4  A    between atoms: C_20  and  C_21
REMARK                            x       y       z     vdW  Elec       q    Type
REMARK                         _______ _______ _______ _____ _____    ______ ____
ROOT
ATOM      1  C   UNL     1       1.513   2.317  19.461  0.00  0.00    +0.000 C 
ATOM      2  C   UNL     1       1.690   3.765  19.728  0.00  0.00    +0.000 A 
ATOM      3  C   UNL     1       1.142   4.577  20.713  0.00  0.00    +0.000 A 
ATOM      4  C   UNL     1       1.608   5.889  20.445  0.00  0.00    +0.000 A 
ATOM      5  N   UNL     1       1.225   7.015  21.135  0.00  0.00    +0.000 N 
ATOM      6  C   UNL     1       1.525   8.324  20.765  0.00  0.00    +0.000 C 
ATOM      7  O   UNL     1       2.256   8.689  19.870  0.00  0.00    +0.000 OA
ATOM      8  N   UNL     1       2.445   5.881  19.412  0.00  0.00    +0.000 NA
ATOM      9  N   UNL     1       2.453   4.610  18.960  0.00  0.00    +0.000 N 
ATOM     10  H   UNL     1       0.571   6.898  21.891  0.00  0.00    +0.000 HD
ENDROOT
BRANCH   6  11
ATOM     11  C   UNL     1       0.763   9.310  21.581  0.00  0.00    +0.000 A 
ATOM     12  N   UNL     1       0.860   9.230  22.919  0.00  0.00    +0.000 NA
ATOM     13  O   UNL     1       0.001  10.166  23.413  0.00  0.00    +0.000 OA
ATOM     14  C   UNL     1      -0.627  10.802  22.394  0.00  0.00    +0.000 A 
ATOM     15  C   UNL     1      -0.131  10.374  21.182  0.00  0.00    +0.000 A 
ATOM     16  C   UNL     1      -0.377  10.914  19.805  0.00  0.00    +0.000 C 
ATOM     17  C   UNL     1      -1.735  11.476  19.363  0.00  0.00    +0.000 C 
ATOM     18  C   UNL     1      -2.560  12.445  20.200  0.00  0.00    +0.000 C 
ATOM     19  C   UNL     1      -2.551  12.354  21.750  0.00  0.00    +0.000 C 
ATOM     20  C   UNL     1      -1.642  11.757  22.852  0.00  0.00    +0.000 C 
ENDBRANCH   6  11
BRANCH   9  21
ATOM     21  C   UNL     1       3.261   4.305  17.786  0.00  0.00    +0.000 C 
BRANCH  21  22
ATOM     22  C   UNL     1       4.487   5.187  17.684  0.00  0.00    +0.000 A 
ATOM     23  C   UNL     1       5.616   4.947  18.489  0.00  0.00    +0.000 A 
ATOM     24  C   UNL     1       6.737   5.776  18.414  0.00  0.00    +0.000 A 
ATOM     25  C   UNL     1       6.749   6.839  17.518  0.00  0.00    +0.000 A 
ATOM     26 CL   UNL     1       8.112   7.887  17.448  0.00  0.00    +0.000 Cl
ATOM     27  C   UNL     1       5.660   7.063  16.676  0.00  0.00    +0.000 A 
ATOM     28  C   UNL     1       4.534   6.238  16.758  0.00  0.00    +0.000 A 
ENDBRANCH  21  22
ENDBRANCH   9  21
TORSDOF 3
ENDMDL
MODEL 2
REMARK VINA RESULT:      -8.5      3.717      8.845
REMARK  Name = 
REMARK  4 active torsions:
REMARK  status: ('A' for Active; 'I' for Inactive)
REMARK    1  A    between atoms: C_1  and  C_2
REMARK    2  A    between atoms: C_6  and  C_8
REMARK    3  A    between atoms: N_19  and  C_20
REMARK    4  A    between atoms: C_20  and  C_21
REMARK                            x       y       z     vdW  Elec       q    Type
REMARK                         _______ _______ _______ _____ _____    ______ ____
ROOT
ATOM      1  C   UNL     1      -0.760  12.062  22.389  0.00  0.00    +0.000 C 
ATOM      2  C   UNL     1      -0.241  11.095  21.391  0.00  0.00    +0.000 A 
ATOM      3  C   UNL     1       0.444   9.898  21.563  0.00  0.00    +0.000 A 
ATOM      4  C   UNL     1       0.749   9.431  20.259  0.00  0.00    +0.000 A 
ATOM      5  N   UNL     1       1.505   8.316  19.982  0.00  0.00    +0.000 N 
ATOM      6  C   UNL     1       1.969   7.955  18.718  0.00  0.00    +0.000 C 
ATOM      7  O   UNL     1       1.695   8.471  17.657  0.00  0.00    +0.000 OA
ATOM      8  N   UNL     1       0.227  10.240  19.343  0.00  0.00    +0.000 NA
ATOM      9  N   UNL     1      -0.327  11.260  20.031  0.00  0.00    +0.000 N 
ATOM     10  H   UNL     1       1.862   7.789  20.761  0.00  0.00    +0.000 HD
ENDROOT
BRANCH   6  11
ATOM     11  C   UNL     1       2.953   6.839  18.797  0.00  0.00    +0.000 A 
ATOM     12  N   UNL     1       4.047   6.908  18.019  0.00  0.00    +0.000 NA
ATOM     13  O   UNL     1       4.714   5.735  18.209  0.00  0.00    +0.000 OA
ATOM     14  C   UNL     1       4.034   4.950  19.080  0.00  0.00    +0.000 A 
ATOM     15  C   UNL     1       2.936   5.620  19.573  0.00  0.00    +0.000 A 
ATOM     16  C   UNL     1       2.003   5.239  20.685  0.00  0.00    +0.000 C 
ATOM     17  C   UNL     1       1.585   3.787  20.956  0.00  0.00    +0.000 C 
ATOM     18  C   UNL     1       2.563   2.620  20.992  0.00  0.00    +0.000 C 
ATOM     19  C   UNL     1       3.806   2.603  20.061  0.00  0.00    +0.000 C 
ATOM     20  C   UNL     1       4.644   3.628  19.259  0.00  0.00    +0.000 C 
ENDBRANCH   6  11
BRANCH   9  21
ATOM     21  C   UNL     1      -0.946  12.341  19.274  0.00  0.00    +0.000 C 
BRANCH  21  22
ATOM     22  C   UNL     1      -2.408  12.079  18.984  0.00  0.00    +0.000 A 
ATOM     23  C   UNL     1      -3.410  12.551  19.851  0.00  0.00    +0.000 A 
ATOM     24  C   UNL     1      -4.758  12.287  19.597  0.00  0.00    +0.000 A 
ATOM     25  C   UNL     1      -5.117  11.567  18.462  0.00  0.00    +0.000 A 
ATOM     26 CL   UNL     1      -6.773  11.206  18.165  0.00  0.00    +0.000 Cl
ATOM     27  C   UNL     1      -4.142  11.135  17.565  0.00  0.00    +0.000 A 
ATOM     28  C   UNL     1      -2.792  11.392  17.824  0.00  0.00    +0.000 A 
ENDBRANCH  21  22
ENDBRANCH   9  21
TORSDOF 3
ENDMDL
MODEL 3
REMARK VINA RESULT:      -8.5      3.666      8.923
REMARK  Name = 
REMARK  4 active torsions:
REMARK  status: ('A' for Active; 'I' for Inactive)
REMARK    1  A    between atoms: C_1  and  C_2
REMARK    2  A    between atoms: C_6  and  C_8
REMARK    3  A    between atoms: N_19  and  C_20
REMARK    4  A    between atoms: C_20  and  C_21
REMARK                            x       y       z     vdW  Elec       q    Type
REMARK                         _______ _______ _______ _____ _____    ______ ____
ROOT
ATOM      1  C   UNL     1      -0.777  10.763  22.923  0.00  0.00    +0.000 C 
ATOM      2  C   UNL     1      -0.174  10.214  21.683  0.00  0.00    +0.000 A 
ATOM      3  C   UNL     1       0.469   9.005  21.449  0.00  0.00    +0.000 A 
ATOM      4  C   UNL     1       0.899   9.045  20.098  0.00  0.00    +0.000 A 
ATOM      5  N   UNL     1       1.660   8.076  19.487  0.00  0.00    +0.000 N 
ATOM      6  C   UNL     1       2.246   8.191  18.228  0.00  0.00    +0.000 C 
ATOM      7  O   UNL     1       2.092   9.082  17.421  0.00  0.00    +0.000 OA
ATOM      8  N   UNL     1       0.488  10.167  19.514  0.00  0.00    +0.000 NA
ATOM      9  N   UNL     1      -0.116  10.882  20.485  0.00  0.00    +0.000 N 
ATOM     10  H   UNL     1       1.926   7.277  20.037  0.00  0.00    +0.000 HD
ENDROOT
BRANCH   6  11
ATOM     11  C   UNL     1       3.198   7.075  17.965  0.00  0.00    +0.000 A 
ATOM     12  N   UNL     1       4.420   7.386  17.501  0.00  0.00    +0.000 NA
ATOM     13  O   UNL     1       5.040   6.197  17.257  0.00  0.00    +0.000 OA
ATOM     14  C   UNL     1       4.205   5.170  17.552  0.00  0.00    +0.000 A 
ATOM     15  C   UNL     1       3.033   5.645  18.096  0.00  0.00    +0.000 A 
ATOM     16  C   UNL     1       1.905   4.894  18.740  0.00  0.00    +0.000 C 
ATOM     17  C   UNL     1       1.443   3.514  18.255  0.00  0.00    +0.000 C 
ATOM     18  C   UNL     1       2.396   2.371  17.930  0.00  0.00    +0.000 C 
ATOM     19  C   UNL     1       3.795   2.659  17.319  0.00  0.00    +0.000 C 
ATOM     20  C   UNL     1       4.771   3.857  17.220  0.00  0.00    +0.000 C 
ENDBRANCH   6  11
BRANCH   9  21
ATOM     21  C   UNL     1      -0.635  12.200  20.143  0.00  0.00    +0.000 C 
BRANCH  21  22
ATOM     22  C   UNL     1      -2.093  12.159  19.737  0.00  0.00    +0.000 A 
ATOM     23  C   UNL     1      -2.491  11.532  18.542  0.00  0.00    +0.000 A 
ATOM     24  C   UNL     1      -3.832  11.516  18.155  0.00  0.00    +0.000 A 
ATOM     25  C   UNL     1      -4.791  12.110  18.969  0.00  0.00    +0.000 A 
ATOM     26 CL   UNL     1      -6.440  12.128  18.478  0.00  0.00    +0.000 Cl
ATOM     27  C   UNL     1      -4.423  12.692  20.181  0.00  0.00    +0.000 A 
ATOM     28  C   UNL     1      -3.078  12.715  20.565  0.00  0.00    +0.000 A 
ENDBRANCH  21  22
ENDBRANCH   9  21
TORSDOF 3
ENDMDL
MODEL 4
REMARK VINA RESULT:      -8.3      6.099      9.448
REMARK  Name = 
REMARK  4 active torsions:
REMARK  status: ('A' for Active; 'I' for Inactive)
REMARK    1  A    between atoms: C_1  and  C_2
REMARK    2  A    between atoms: C_6  and  C_8
REMARK    3  A    between atoms: N_19  and  C_20
REMARK    4  A    between atoms: C_20  and  C_21
REMARK                            x       y       z     vdW  Elec       q    Type
REMARK                         _______ _______ _______ _____ _____    ______ ____
ROOT
ATOM      1  C   UNL     1       8.947  13.304  18.341  0.00  0.00    +0.000 C 
ATOM      2  C   UNL     1       8.870  11.823  18.353  0.00  0.00    +0.000 A 
ATOM      3  C   UNL     1       8.234  10.943  17.486  0.00  0.00    +0.000 A 
ATOM      4  C   UNL     1       8.439   9.646  18.023  0.00  0.00    +0.000 A 
ATOM      5  N   UNL     1       7.893   8.491  17.515  0.00  0.00    +0.000 N 
ATOM      6  C   UNL     1       7.930   7.245  18.137  0.00  0.00    +0.000 C 
ATOM      7  O   UNL     1       8.536   6.939  19.141  0.00  0.00    +0.000 OA
ATOM      8  N   UNL     1       9.210   9.709  19.104  0.00  0.00    +0.000 NA
ATOM      9  N   UNL     1       9.426  11.022  19.321  0.00  0.00    +0.000 N 
ATOM     10  H   UNL     1       7.310   8.570  16.699  0.00  0.00    +0.000 HD
ENDROOT
BRANCH   6  11
ATOM     11  C   UNL     1       7.044   6.265  17.449  0.00  0.00    +0.000 A 
ATOM     12  N   UNL     1       7.315   5.959  16.169  0.00  0.00    +0.000 NA
ATOM     13  O   UNL     1       6.311   5.134  15.760  0.00  0.00    +0.000 OA
ATOM     14  C   UNL     1       5.425   4.947  16.770  0.00  0.00    +0.000 A 
ATOM     15  C   UNL     1       5.867   5.567  17.917  0.00  0.00    +0.000 A 
ATOM     16  C   UNL     1       5.330   5.484  19.316  0.00  0.00    +0.000 C 
ATOM     17  C   UNL     1       3.831   5.370  19.624  0.00  0.00    +0.000 C 
ATOM     18  C   UNL     1       2.891   4.414  18.902  0.00  0.00    +0.000 C 
ATOM     19  C   UNL     1       3.106   4.080  17.400  0.00  0.00    +0.000 C 
ATOM     20  C   UNL     1       4.262   4.147  16.371  0.00  0.00    +0.000 C 
ENDBRANCH   6  11
BRANCH   9  21
ATOM     21  C   UNL     1      10.216  11.404  20.485  0.00  0.00    +0.000 C 
BRANCH  21  22
ATOM     22  C   UNL     1       9.389  12.114  21.535  0.00  0.00    +0.000 A 
ATOM     23  C   UNL     1       9.626  13.465  21.847  0.00  0.00    +0.000 A 
ATOM     24  C   UNL     1       8.881  14.113  22.835  0.00  0.00    +0.000 A 
ATOM     25  C   UNL     1       7.877  13.421  23.505  0.00  0.00    +0.000 A 
ATOM     26 CL   UNL     1       6.982  14.202  24.750  0.00  0.00    +0.000 Cl
ATOM     27  C   UNL     1       7.594  12.097  23.175  0.00  0.00    +0.000 A 
ATOM     28  C   UNL     1       8.346  11.446  22.192  0.00  0.00    +0.000 A 
ENDBRANCH  21  22
ENDBRANCH   9  21
TORSDOF 3
ENDMDL
MODEL 5
REMARK VINA RESULT:      -8.2      5.863      8.740
REMARK  Name = 
REMARK  4 active torsions:
REMARK  status: ('A' for Active; 'I' for Inactive)
REMARK    1  A    between atoms: C_1  and  C_2
REMARK    2  A    between atoms: C_6  and  C_8
REMARK    3  A    between atoms: N_19  and  C_20
REMARK    4  A    between atoms: C_20  and  C_21
REMARK                            x       y       z     vdW  Elec       q    Type
REMARK                         _______ _______ _______ _____ _____    ______ ____
ROOT
ATOM      1  C   UNL     1       6.989   4.380  18.501  0.00  0.00    +0.000 C 
ATOM      2  C   UNL     1       7.362   5.797  18.273  0.00  0.00    +0.000 A 
ATOM      3  C   UNL     1       8.307   6.597  18.904  0.00  0.00    +0.000 A 
ATOM      4  C   UNL     1       8.184   7.883  18.320  0.00  0.00    +0.000 A 
ATOM      5  N   UNL     1       8.879   8.999  18.726  0.00  0.00    +0.000 N 
ATOM      6  C   UNL     1       8.631  10.300  18.292  0.00  0.00    +0.000 C 
ATOM      7  O   UNL     1       7.871  10.654  17.418  0.00  0.00    +0.000 OA
ATOM      8  N   UNL     1       7.280   7.865  17.345  0.00  0.00    +0.000 NA
ATOM      9  N   UNL     1       6.760   6.622  17.354  0.00  0.00    +0.000 N 
ATOM     10  H   UNL     1       9.527   8.893  19.488  0.00  0.00    +0.000 HD
ENDROOT
BRANCH   6  11
ATOM     11  C   UNL     1       9.389  11.297  19.099  0.00  0.00    +0.000 A 
ATOM     12  N   UNL     1       9.110  11.389  20.411  0.00  0.00    +0.000 NA
ATOM     13  O   UNL     1       9.859  12.427  20.880  0.00  0.00    +0.000 OA
ATOM     14  C   UNL     1      10.576  12.975  19.869  0.00  0.00    +0.000 A 
ATOM     15  C   UNL     1      10.400  12.253  18.709  0.00  0.00    +0.000 A 
ATOM     16  C   UNL     1      11.120  12.362  17.397  0.00  0.00    +0.000 C 
ATOM     17  C   UNL     1      11.595  13.701  16.819  0.00  0.00    +0.000 C 
ATOM     18  C   UNL     1      12.327  14.760  17.633  0.00  0.00    +0.000 C 
ATOM     19  C   UNL     1      11.995  14.969  19.136  0.00  0.00    +0.000 C 
ATOM     20  C   UNL     1      11.333  14.163  20.280  0.00  0.00    +0.000 C 
ENDBRANCH   6  11
BRANCH   9  21
ATOM     21  C   UNL     1       5.695   6.317  16.406  0.00  0.00    +0.000 C 
BRANCH  21  22
ATOM     22  C   UNL     1       4.519   5.628  17.062  0.00  0.00    +0.000 A 
ATOM     23  C   UNL     1       4.145   4.324  16.685  0.00  0.00    +0.000 A 
ATOM     24  C   UNL     1       3.044   3.698  17.272  0.00  0.00    +0.000 A 
ATOM     25  C   UNL     1       2.318   4.361  18.256  0.00  0.00    +0.000 A 
ATOM     26 CL   UNL     1       0.936   3.609  18.955  0.00  0.00    +0.000 Cl
ATOM     27  C   UNL     1       2.703   5.632  18.679  0.00  0.00    +0.000 A 
ATOM     28  C   UNL     1       3.801   6.263  18.085  0.00  0.00    +0.000 A 
ENDBRANCH  21  22
ENDBRANCH   9  21
TORSDOF 3
ENDMDL
MODEL 6
REMARK VINA RESULT:      -8.1      3.521      8.062
REMARK  Name = 
REMARK  4 active torsions:
REMARK  status: ('A' for Active; 'I' for Inactive)
REMARK    1  A    between atoms: C_1  and  C_2
REMARK    2  A    between atoms: C_6  and  C_8
REMARK    3  A    between atoms: N_19  and  C_20
REMARK    4  A    between atoms: C_20  and  C_21
REMARK                            x       y       z     vdW  Elec       q    Type
REMARK                         _______ _______ _______ _____ _____    ______ ____
ROOT
ATOM      1  C   UNL     1      -0.481  12.127  21.864  0.00  0.00    +0.000 C 
ATOM      2  C   UNL     1       0.072  11.145  20.899  0.00  0.00    +0.000 A 
ATOM      3  C   UNL     1       0.616   9.883  21.105  0.00  0.00    +0.000 A 
ATOM      4  C   UNL     1       1.043   9.427  19.832  0.00  0.00    +0.000 A 
ATOM      5  N   UNL     1       1.722   8.253  19.605  0.00  0.00    +0.000 N 
ATOM      6  C   UNL     1       2.311   7.887  18.397  0.00  0.00    +0.000 C 
ATOM      7  O   UNL     1       2.226   8.458  17.332  0.00  0.00    +0.000 OA
ATOM      8  N   UNL     1       0.720  10.310  18.892  0.00  0.00    +0.000 NA
ATOM      9  N   UNL     1       0.179  11.357  19.547  0.00  0.00    +0.000 N 
ATOM     10  H   UNL     1       1.926   7.671  20.401  0.00  0.00    +0.000 HD
ENDROOT
BRANCH   6  11
ATOM     11  C   UNL     1       3.170   6.680  18.552  0.00  0.00    +0.000 A 
ATOM     12  N   UNL     1       4.264   6.581  17.778  0.00  0.00    +0.000 NA
ATOM     13  O   UNL     1       4.802   5.358  18.046  0.00  0.00    +0.000 OA
ATOM     14  C   UNL     1       4.042   4.708  18.961  0.00  0.00    +0.000 A 
ATOM     15  C   UNL     1       3.023   5.521  19.404  0.00  0.00    +0.000 A 
ATOM     16  C   UNL     1       2.055   5.313  20.531  0.00  0.00    +0.000 C 
ATOM     17  C   UNL     1       1.483   3.935  20.891  0.00  0.00    +0.000 C 
ATOM     18  C   UNL     1       2.330   2.674  21.007  0.00  0.00    +0.000 C 
ATOM     19  C   UNL     1       3.564   2.465  20.086  0.00  0.00    +0.000 C 
ATOM     20  C   UNL     1       4.507   3.341  19.226  0.00  0.00    +0.000 C 
ENDBRANCH   6  11
BRANCH   9  21
ATOM     21  C   UNL     1      -0.235  12.515  18.765  0.00  0.00    +0.000 C 
BRANCH  21  22
ATOM     22  C   UNL     1       0.849  13.567  18.673  0.00  0.00    +0.000 A 
ATOM     23  C   UNL     1       0.609  14.888  19.095  0.00  0.00    +0.000 A 
ATOM     24  C   UNL     1       1.601  15.865  18.987  0.00  0.00    +0.000 A 
ATOM     25  C   UNL     1       2.849  15.526  18.474  0.00  0.00    +0.000 A 
ATOM     26 CL   UNL     1       4.062  16.734  18.302  0.00  0.00    +0.000 Cl
ATOM     27  C   UNL     1       3.122  14.212  18.098  0.00  0.00    +0.000 A 
ATOM     28  C   UNL     1       2.126  13.235  18.199  0.00  0.00    +0.000 A 
ENDBRANCH  21  22
ENDBRANCH   9  21
TORSDOF 3
ENDMDL
MODEL 7
REMARK VINA RESULT:      -8.1      3.505      8.839
REMARK  Name = 
REMARK  4 active torsions:
REMARK  status: ('A' for Active; 'I' for Inactive)
REMARK    1  A    between atoms: C_1  and  C_2
REMARK    2  A    between atoms: C_6  and  C_8
REMARK    3  A    between atoms: N_19  and  C_20
REMARK    4  A    between atoms: C_20  and  C_21
REMARK                            x       y       z     vdW  Elec       q    Type
REMARK                         _______ _______ _______ _____ _____    ______ ____
ROOT
ATOM      1  C   UNL     1      -1.152  11.295  23.050  0.00  0.00    +0.000 C 
ATOM      2  C   UNL     1      -0.509  10.485  21.986  0.00  0.00    +0.000 A 
ATOM      3  C   UNL     1       0.079   9.227  22.038  0.00  0.00    +0.000 A 
ATOM      4  C   UNL     1       0.588   8.979  20.738  0.00  0.00    +0.000 A 
ATOM      5  N   UNL     1       1.329   7.876  20.382  0.00  0.00    +0.000 N 
ATOM      6  C   UNL     1       1.992   7.713  19.168  0.00  0.00    +0.000 C 
ATOM      7  O   UNL     1       1.935   8.430  18.193  0.00  0.00    +0.000 OA
ATOM      8  N   UNL     1       0.274   9.978  19.919  0.00  0.00    +0.000 NA
ATOM      9  N   UNL     1      -0.345  10.898  20.687  0.00  0.00    +0.000 N 
ATOM     10  H   UNL     1       1.517   7.192  21.095  0.00  0.00    +0.000 HD
ENDROOT
BRANCH   6  11
ATOM     11  C   UNL     1       2.894   6.527  19.195  0.00  0.00    +0.000 A 
ATOM     12  N   UNL     1       2.620   5.546  20.071  0.00  0.00    +0.000 NA
ATOM     13  O   UNL     1       3.639   4.649  19.958  0.00  0.00    +0.000 OA
ATOM     14  C   UNL     1       4.535   5.078  19.035  0.00  0.00    +0.000 A 
ATOM     15  C   UNL     1       4.088   6.234  18.434  0.00  0.00    +0.000 A 
ATOM     16  C   UNL     1       4.635   6.965  17.244  0.00  0.00    +0.000 C 
ATOM     17  C   UNL     1       6.138   7.066  16.951  0.00  0.00    +0.000 C 
ATOM     18  C   UNL     1       7.093   5.882  17.020  0.00  0.00    +0.000 C 
ATOM     19  C   UNL     1       6.875   4.752  18.064  0.00  0.00    +0.000 C 
ATOM     20  C   UNL     1       5.712   4.209  18.930  0.00  0.00    +0.000 C 
ENDBRANCH   6  11
BRANCH   9  21
ATOM     21  C   UNL     1      -0.769  12.142  20.058  0.00  0.00    +0.000 C 
BRANCH  21  22
ATOM     22  C   UNL     1      -2.169  12.054  19.491  0.00  0.00    +0.000 A 
ATOM     23  C   UNL     1      -3.267  12.581  20.196  0.00  0.00    +0.000 A 
ATOM     24  C   UNL     1      -4.562  12.477  19.684  0.00  0.00    +0.000 A 
ATOM     25  C   UNL     1      -4.770  11.864  18.454  0.00  0.00    +0.000 A 
ATOM     26 CL   UNL     1      -6.368  11.698  17.837  0.00  0.00    +0.000 Cl
ATOM     27  C   UNL     1      -3.690  11.381  17.717  0.00  0.00    +0.000 A 
ATOM     28  C   UNL     1      -2.393  11.477  18.233  0.00  0.00    +0.000 A 
ENDBRANCH  21  22
ENDBRANCH   9  21
TORSDOF 3
ENDMDL
MODEL 8
REMARK VINA RESULT:      -8.0      3.628      8.913
REMARK  Name = 
REMARK  4 active torsions:
REMARK  status: ('A' for Active; 'I' for Inactive)
REMARK    1  A    between atoms: C_1  and  C_2
REMARK    2  A    between atoms: C_6  and  C_8
REMARK    3  A    between atoms: N_19  and  C_20
REMARK    4  A    between atoms: C_20  and  C_21
REMARK                            x       y       z     vdW  Elec       q    Type
REMARK                         _______ _______ _______ _____ _____    ______ ____
ROOT
ATOM      1  C   UNL     1      -0.494  12.326  22.200  0.00  0.00    +0.000 C 
ATOM      2  C   UNL     1      -0.051  11.244  21.288  0.00  0.00    +0.000 A 
ATOM      3  C   UNL     1       0.593  10.042  21.555  0.00  0.00    +0.000 A 
ATOM      4  C   UNL     1       0.828   9.435  20.296  0.00  0.00    +0.000 A 
ATOM      5  N   UNL     1       1.529   8.266  20.106  0.00  0.00    +0.000 N 
ATOM      6  C   UNL     1       1.929   7.762  18.870  0.00  0.00    +0.000 C 
ATOM      7  O   UNL     1       1.635   8.181  17.772  0.00  0.00    +0.000 OA
ATOM      8  N   UNL     1       0.302  10.170  19.321  0.00  0.00    +0.000 NA
ATOM      9  N   UNL     1      -0.184  11.275  19.921  0.00  0.00    +0.000 N 
ATOM     10  H   UNL     1       1.896   7.805  20.921  0.00  0.00    +0.000 HD
ENDROOT
BRANCH   6  11
ATOM     11  C   UNL     1       2.872   6.619  19.027  0.00  0.00    +0.000 A 
ATOM     12  N   UNL     1       2.580   5.682  19.945  0.00  0.00    +0.000 NA
ATOM     13  O   UNL     1       3.637   4.823  19.951  0.00  0.00    +0.000 OA
ATOM     14  C   UNL     1       4.573   5.233  19.060  0.00  0.00    +0.000 A 
ATOM     15  C   UNL     1       4.122   6.330  18.361  0.00  0.00    +0.000 A 
ATOM     16  C   UNL     1       4.716   7.011  17.163  0.00  0.00    +0.000 C 
ATOM     17  C   UNL     1       6.230   7.157  16.957  0.00  0.00    +0.000 C 
ATOM     18  C   UNL     1       7.223   6.019  17.159  0.00  0.00    +0.000 C 
ATOM     19  C   UNL     1       6.981   4.947  18.257  0.00  0.00    +0.000 C 
ATOM     20  C   UNL     1       5.787   4.409  19.082  0.00  0.00    +0.000 C 
ENDBRANCH   6  11
BRANCH   9  21
ATOM     21  C   UNL     1      -0.790  12.301  19.082  0.00  0.00    +0.000 C 
BRANCH  21  22
ATOM     22  C   UNL     1      -2.257  12.040  18.819  0.00  0.00    +0.000 A 
ATOM     23  C   UNL     1      -2.667  11.295  17.697  0.00  0.00    +0.000 A 
ATOM     24  C   UNL     1      -4.022  11.075  17.441  0.00  0.00    +0.000 A 
ATOM     25  C   UNL     1      -4.979  11.581  18.314  0.00  0.00    +0.000 A 
ATOM     26 CL   UNL     1      -6.651  11.347  17.981  0.00  0.00    +0.000 Cl
ATOM     27  C   UNL     1      -4.591  12.278  19.457  0.00  0.00    +0.000 A 
ATOM     28  C   UNL     1      -3.234  12.505  19.710  0.00  0.00    +0.000 A 
ENDBRANCH  21  22
ENDBRANCH   9  21
TORSDOF 3
ENDMDL
MODEL 9
REMARK VINA RESULT:      -8.0      3.085      7.863
REMARK  Name = 
REMARK  4 active torsions:
REMARK  status: ('A' for Active; 'I' for Inactive)
REMARK    1  A    between atoms: C_1  and  C_2
REMARK    2  A    between atoms: C_6  and  C_8
REMARK    3  A    between atoms: N_19  and  C_20
REMARK    4  A    between atoms: C_20  and  C_21
REMARK                            x       y       z     vdW  Elec       q    Type
REMARK                         _______ _______ _______ _____ _____    ______ ____
ROOT
ATOM      1  C   UNL     1      -0.527  10.417  23.075  0.00  0.00    +0.000 C 
ATOM      2  C   UNL     1       0.070   9.924  21.810  0.00  0.00    +0.000 A 
ATOM      3  C   UNL     1       0.592   8.679  21.481  0.00  0.00    +0.000 A 
ATOM      4  C   UNL     1       1.083   8.797  20.156  0.00  0.00    +0.000 A 
ATOM      5  N   UNL     1       1.765   7.812  19.481  0.00  0.00    +0.000 N 
ATOM      6  C   UNL     1       2.415   7.979  18.260  0.00  0.00    +0.000 C 
ATOM      7  O   UNL     1       2.393   8.952  17.538  0.00  0.00    +0.000 OA
ATOM      8  N   UNL     1       0.819  10.006  19.670  0.00  0.00    +0.000 NA
ATOM      9  N   UNL     1       0.251  10.689  20.684  0.00  0.00    +0.000 N 
ATOM     10  H   UNL     1       1.920   6.940  19.959  0.00  0.00    +0.000 HD
ENDROOT
BRANCH   6  11
ATOM     11  C   UNL     1       3.255   6.795  17.923  0.00  0.00    +0.000 A 
ATOM     12  N   UNL     1       4.407   7.006  17.264  0.00  0.00    +0.000 NA
ATOM     13  O   UNL     1       4.918   5.771  16.999  0.00  0.00    +0.000 OA
ATOM     14  C   UNL     1       4.085   4.813  17.475  0.00  0.00    +0.000 A 
ATOM     15  C   UNL     1       3.037   5.386  18.160  0.00  0.00    +0.000 A 
ATOM     16  C   UNL     1       1.981   4.738  19.007  0.00  0.00    +0.000 C 
ATOM     17  C   UNL     1       1.378   3.366  18.677  0.00  0.00    +0.000 C 
ATOM     18  C   UNL     1       2.209   2.152  18.281  0.00  0.00    +0.000 C 
ATOM     19  C   UNL     1       3.511   2.324  17.452  0.00  0.00    +0.000 C 
ATOM     20  C   UNL     1       4.523   3.454  17.138  0.00  0.00    +0.000 C 
ENDBRANCH   6  11
BRANCH   9  21
ATOM     21  C   UNL     1      -0.111  12.083  20.454  0.00  0.00    +0.000 C 
BRANCH  21  22
ATOM     22  C   UNL     1       1.053  12.904  19.943  0.00  0.00    +0.000 A 
ATOM     23  C   UNL     1       2.061  13.348  20.820  0.00  0.00    +0.000 A 
ATOM     24  C   UNL     1       3.122  14.128  20.353  0.00  0.00    +0.000 A 
ATOM     25  C   UNL     1       3.195  14.454  19.003  0.00  0.00    +0.000 A 
ATOM     26 CL   UNL     1       4.478  15.447  18.430  0.00  0.00    +0.000 Cl
ATOM     27  C   UNL     1       2.234  13.981  18.111  0.00  0.00    +0.000 A 
ATOM     28  C   UNL     1       1.167  13.207  18.580  0.00  0.00    +0.000 A 
ENDBRANCH  21  22
ENDBRANCH   9  21
TORSDOF 3
ENDMDL
