MODEL 1
REMARK VINA RESULT:      -4.5      0.000      0.000
REMARK  Name = 
REMARK  2 active torsions:
REMARK  status: ('A' for Active; 'I' for Inactive)
REMARK    1  A    between atoms: C_2  and  O_3
REMARK    2  A    between atoms: C_2  and  C_4
REMARK                            x       y       z     vdW  Elec       q    Type
REMARK                         _______ _______ _______ _____ _____    ______ ____
ROOT
ATOM      1  C   UNL     1       9.496   4.597  27.856  0.00  0.00    +0.000 A 
ATOM      2  C   UNL     1      10.191   5.656  28.535  0.00  0.00    +0.000 A 
ATOM      3  C   UNL     1      11.534   5.401  28.700  0.00  0.00    +0.000 A 
ATOM      4  S   UNL     1      11.986   3.904  28.011  0.00  0.00    +0.000 S 
ATOM      5  C   UNL     1      10.383   3.596  27.493  0.00  0.00    +0.000 A 
ENDROOT
BRANCH   1   7
ATOM      6  O   UNL     1       7.269   5.332  28.134  0.00  0.00    +0.000 OA
ATOM      7  C   UNL     1       8.067   4.608  27.556  0.00  0.00    +0.000 C 
BRANCH   7   8
ATOM      8  O   UNL     1       7.670   3.719  26.611  0.00  0.00    +0.000 OA
ATOM      9  H   UNL     1       8.103   3.860  25.750  0.00  0.00    +0.000 HD
ENDBRANCH   7   8
ENDBRANCH   1   7
TORSDOF 2
ENDMDL
MODEL 2
REMARK VINA RESULT:      -4.2      0.924      1.857
REMARK  Name = 
REMARK  2 active torsions:
REMARK  status: ('A' for Active; 'I' for Inactive)
REMARK    1  A    between atoms: C_2  and  O_3
REMARK    2  A    between atoms: C_2  and  C_4
REMARK                            x       y       z     vdW  Elec       q    Type
REMARK                         _______ _______ _______ _____ _____    ______ ____
ROOT
ATOM      1  C   UNL     1       9.908   4.548  27.876  0.00  0.00    +0.000 A 
ATOM      2  C   UNL     1      10.723   3.365  27.875  0.00  0.00    +0.000 A 
ATOM      3  C   UNL     1      12.051   3.625  28.129  0.00  0.00    +0.000 A 
ATOM      4  S   UNL     1      12.331   5.288  28.407  0.00  0.00    +0.000 S 
ATOM      5  C   UNL     1      10.674   5.660  28.186  0.00  0.00    +0.000 A 
ENDROOT
BRANCH   1   7
ATOM      6  O   UNL     1       7.918   3.790  26.854  0.00  0.00    +0.000 OA
ATOM      7  C   UNL     1       8.468   4.558  27.630  0.00  0.00    +0.000 C 
BRANCH   7   8
ATOM      8  O   UNL     1       7.776   5.518  28.295  0.00  0.00    +0.000 OA
ATOM      9  H   UNL     1       7.923   5.493  29.257  0.00  0.00    +0.000 HD
ENDBRANCH   7   8
ENDBRANCH   1   7
TORSDOF 2
ENDMDL
MODEL 3
REMARK VINA RESULT:      -4.2     10.676     11.656
REMARK  Name = 
REMARK  2 active torsions:
REMARK  status: ('A' for Active; 'I' for Inactive)
REMARK    1  A    between atoms: C_2  and  O_3
REMARK    2  A    between atoms: C_2  and  C_4
REMARK                            x       y       z     vdW  Elec       q    Type
REMARK                         _______ _______ _______ _____ _____    ______ ____
ROOT
ATOM      1  C   UNL     1       5.826   4.687  17.422  0.00  0.00    +0.000 A 
ATOM      2  C   UNL     1       4.691   4.279  16.640  0.00  0.00    +0.000 A 
ATOM      3  C   UNL     1       3.553   4.102  17.394  0.00  0.00    +0.000 A 
ATOM      4  S   UNL     1       3.821   4.458  19.043  0.00  0.00    +0.000 S 
ATOM      5  C   UNL     1       5.462   4.848  18.749  0.00  0.00    +0.000 A 
ENDROOT
BRANCH   1   7
ATOM      6  O   UNL     1       7.384   5.813  16.049  0.00  0.00    +0.000 OA
ATOM      7  C   UNL     1       7.157   4.940  16.875  0.00  0.00    +0.000 C 
BRANCH   7   8
ATOM      8  O   UNL     1       8.129   4.103  17.316  0.00  0.00    +0.000 OA
ATOM      9  H   UNL     1       8.340   4.229  18.258  0.00  0.00    +0.000 HD
ENDBRANCH   7   8
ENDBRANCH   1   7
TORSDOF 2
ENDMDL
MODEL 4
REMARK VINA RESULT:      -4.1     10.248     11.007
REMARK  Name = 
REMARK  2 active torsions:
REMARK  status: ('A' for Active; 'I' for Inactive)
REMARK    1  A    between atoms: C_2  and  O_3
REMARK    2  A    between atoms: C_2  and  C_4
REMARK                            x       y       z     vdW  Elec       q    Type
REMARK                         _______ _______ _______ _____ _____    ______ ____
ROOT
ATOM      1  C   UNL     1       7.074   5.671  17.854  0.00  0.00    +0.000 A 
ATOM      2  C   UNL     1       7.417   4.538  17.039  0.00  0.00    +0.000 A 
ATOM      3  C   UNL     1       6.636   4.429  15.911  0.00  0.00    +0.000 A 
ATOM      4  S   UNL     1       5.504   5.703  15.796  0.00  0.00    +0.000 S 
ATOM      5  C   UNL     1       6.058   6.401  17.258  0.00  0.00    +0.000 A 
ENDROOT
BRANCH   1   7
ATOM      6  O   UNL     1       7.575   5.395  20.146  0.00  0.00    +0.000 OA
ATOM      7  C   UNL     1       7.739   6.019  19.107  0.00  0.00    +0.000 C 
BRANCH   7   8
ATOM      8  O   UNL     1       8.529   7.121  19.053  0.00  0.00    +0.000 OA
ATOM      9  H   UNL     1       8.022   7.952  19.076  0.00  0.00    +0.000 HD
ENDBRANCH   7   8
ENDBRANCH   1   7
TORSDOF 2
ENDMDL
MODEL 5
REMARK VINA RESULT:      -4.1     10.181     11.043
REMARK  Name = 
REMARK  2 active torsions:
REMARK  status: ('A' for Active; 'I' for Inactive)
REMARK    1  A    between atoms: C_2  and  O_3
REMARK    2  A    between atoms: C_2  and  C_4
REMARK                            x       y       z     vdW  Elec       q    Type
REMARK                         _______ _______ _______ _____ _____    ______ ____
ROOT
ATOM      1  C   UNL     1       3.218   2.556  19.838  0.00  0.00    +0.000 A 
ATOM      2  C   UNL     1       2.364   3.115  20.850  0.00  0.00    +0.000 A 
ATOM      3  C   UNL     1       1.041   3.163  20.472  0.00  0.00    +0.000 A 
ATOM      4  S   UNL     1       0.800   2.507  18.913  0.00  0.00    +0.000 S 
ATOM      5  C   UNL     1       2.468   2.159  18.743  0.00  0.00    +0.000 A 
ENDROOT
BRANCH   1   7
ATOM      6  O   UNL     1       5.174   1.606  20.760  0.00  0.00    +0.000 OA
ATOM      7  C   UNL     1       4.663   2.393  19.976  0.00  0.00    +0.000 C 
BRANCH   7   8
ATOM      8  O   UNL     1       5.412   3.215  19.198  0.00  0.00    +0.000 OA
ATOM      9  H   UNL     1       5.904   3.880  19.712  0.00  0.00    +0.000 HD
ENDBRANCH   7   8
ENDBRANCH   1   7
TORSDOF 2
ENDMDL
MODEL 6
REMARK VINA RESULT:      -4.1     10.487     11.396
REMARK  Name = 
REMARK  2 active torsions:
REMARK  status: ('A' for Active; 'I' for Inactive)
REMARK    1  A    between atoms: C_2  and  O_3
REMARK    2  A    between atoms: C_2  and  C_4
REMARK                            x       y       z     vdW  Elec       q    Type
REMARK                         _______ _______ _______ _____ _____    ______ ____
ROOT
ATOM      1  C   UNL     1       6.067   5.047  17.527  0.00  0.00    +0.000 A 
ATOM      2  C   UNL     1       5.773   4.860  18.921  0.00  0.00    +0.000 A 
ATOM      3  C   UNL     1       4.532   5.335  19.279  0.00  0.00    +0.000 A 
ATOM      4  S   UNL     1       3.688   5.980  17.941  0.00  0.00    +0.000 S 
ATOM      5  C   UNL     1       4.985   5.624  16.881  0.00  0.00    +0.000 A 
ENDROOT
BRANCH   1   7
ATOM      6  O   UNL     1       7.523   4.775  15.687  0.00  0.00    +0.000 OA
ATOM      7  C   UNL     1       7.313   4.639  16.884  0.00  0.00    +0.000 C 
BRANCH   7   8
ATOM      8  O   UNL     1       8.220   4.052  17.705  0.00  0.00    +0.000 OA
ATOM      9  H   UNL     1       9.140   4.229  17.443  0.00  0.00    +0.000 HD
ENDBRANCH   7   8
ENDBRANCH   1   7
TORSDOF 2
ENDMDL
MODEL 7
REMARK VINA RESULT:      -4.1     10.837     11.663
REMARK  Name = 
REMARK  2 active torsions:
REMARK  status: ('A' for Active; 'I' for Inactive)
REMARK    1  A    between atoms: C_2  and  O_3
REMARK    2  A    between atoms: C_2  and  C_4
REMARK                            x       y       z     vdW  Elec       q    Type
REMARK                         _______ _______ _______ _____ _____    ______ ____
ROOT
ATOM      1  C   UNL     1       5.810   4.517  17.312  0.00  0.00    +0.000 A 
ATOM      2  C   UNL     1       5.450   4.449  18.702  0.00  0.00    +0.000 A 
ATOM      3  C   UNL     1       4.135   4.097  18.902  0.00  0.00    +0.000 A 
ATOM      4  S   UNL     1       3.322   3.810  17.426  0.00  0.00    +0.000 S 
ATOM      5  C   UNL     1       4.732   4.158  16.519  0.00  0.00    +0.000 A 
ENDROOT
BRANCH   1   7
ATOM      6  O   UNL     1       7.333   5.752  15.995  0.00  0.00    +0.000 OA
ATOM      7  C   UNL     1       7.139   4.871  16.820  0.00  0.00    +0.000 C 
BRANCH   7   8
ATOM      8  O   UNL     1       8.155   4.118  17.313  0.00  0.00    +0.000 OA
ATOM      9  H   UNL     1       8.957   4.155  16.762  0.00  0.00    +0.000 HD
ENDBRANCH   7   8
ENDBRANCH   1   7
TORSDOF 2
ENDMDL
MODEL 8
REMARK VINA RESULT:      -4.1     10.491     11.482
REMARK  Name = 
REMARK  2 active torsions:
REMARK  status: ('A' for Active; 'I' for Inactive)
REMARK    1  A    between atoms: C_2  and  O_3
REMARK    2  A    between atoms: C_2  and  C_4
REMARK                            x       y       z     vdW  Elec       q    Type
REMARK                         _______ _______ _______ _____ _____    ______ ____
ROOT
ATOM      1  C   UNL     1       5.916   4.884  17.622  0.00  0.00    +0.000 A 
ATOM      2  C   UNL     1       4.737   4.423  16.943  0.00  0.00    +0.000 A 
ATOM      3  C   UNL     1       3.612   4.451  17.737  0.00  0.00    +0.000 A 
ATOM      4  S   UNL     1       3.949   5.064  19.295  0.00  0.00    +0.000 S 
ATOM      5  C   UNL     1       5.601   5.292  18.909  0.00  0.00    +0.000 A 
ENDROOT
BRANCH   1   7
ATOM      6  O   UNL     1       8.148   4.183  17.300  0.00  0.00    +0.000 OA
ATOM      7  C   UNL     1       7.243   4.954  17.016  0.00  0.00    +0.000 C 
BRANCH   7   8
ATOM      8  O   UNL     1       7.422   5.973  16.137  0.00  0.00    +0.000 OA
ATOM      9  H   UNL     1       6.976   5.821  15.285  0.00  0.00    +0.000 HD
ENDBRANCH   7   8
ENDBRANCH   1   7
TORSDOF 2
ENDMDL
MODEL 9
REMARK VINA RESULT:      -4.0     12.685     13.081
REMARK  Name = 
REMARK  2 active torsions:
REMARK  status: ('A' for Active; 'I' for Inactive)
REMARK    1  A    between atoms: C_2  and  O_3
REMARK    2  A    between atoms: C_2  and  C_4
REMARK                            x       y       z     vdW  Elec       q    Type
REMARK                         _______ _______ _______ _____ _____    ______ ____
ROOT
ATOM      1  C   UNL     1       5.642   4.978  15.729  0.00  0.00    +0.000 A 
ATOM      2  C   UNL     1       5.334   6.319  16.142  0.00  0.00    +0.000 A 
ATOM      3  C   UNL     1       4.363   6.374  17.116  0.00  0.00    +0.000 A 
ATOM      4  S   UNL     1       3.834   4.815  17.574  0.00  0.00    +0.000 S 
ATOM      5  C   UNL     1       4.904   4.067  16.467  0.00  0.00    +0.000 A 
ENDROOT
BRANCH   1   7
ATOM      6  O   UNL     1       7.604   5.332  14.462  0.00  0.00    +0.000 OA
ATOM      7  C   UNL     1       6.630   4.635  14.709  0.00  0.00    +0.000 C 
BRANCH   7   8
ATOM      8  O   UNL     1       6.369   3.500  14.013  0.00  0.00    +0.000 OA
ATOM      9  H   UNL     1       6.721   3.522  13.105  0.00  0.00    +0.000 HD
ENDBRANCH   7   8
ENDBRANCH   1   7
TORSDOF 2
ENDMDL
