MODEL 1
REMARK VINA RESULT:      -6.9      0.000      0.000
REMARK  Name = 
REMARK  0 active torsions:
REMARK  status: ('A' for Active; 'I' for Inactive)
REMARK                            x       y       z     vdW  Elec       q    Type
REMARK                         _______ _______ _______ _____ _____    ______ ____
ROOT
ATOM      1 CL   UNL     1       0.393   2.149  18.591  0.00  0.00    +0.000 Cl
ATOM      2  C   UNL     1       2.024   2.665  18.797  0.00  0.00    +0.000 A 
ATOM      3  C   UNL     1       2.636   2.522  20.041  0.00  0.00    +0.000 A 
ATOM      4  C   UNL     1       3.961   2.926  20.238  0.00  0.00    +0.000 A 
ATOM      5  C   UNL     1       4.642   3.471  19.142  0.00  0.00    +0.000 A 
ATOM      6  N   UNL     1       5.942   3.928  19.041  0.00  0.00    +0.000 N 
ATOM      7  C   UNL     1       6.183   4.346  17.762  0.00  0.00    +0.000 A 
ATOM      8  C   UNL     1       5.028   4.181  17.028  0.00  0.00    +0.000 A 
ATOM      9  C   UNL     1       4.045   3.624  17.886  0.00  0.00    +0.000 A 
ATOM     10  C   UNL     1       2.710   3.214  17.711  0.00  0.00    +0.000 A 
ATOM     11  C   UNL     1       4.991   4.500  15.573  0.00  0.00    +0.000 C 
ATOM     12  C   UNL     1       6.306   5.191  15.124  0.00  0.00    +0.000 C 
ATOM     13  N   UNL     1       7.523   4.673  15.784  0.00  0.00    +0.000 NA
ATOM     14  C   UNL     1       7.470   4.872  17.243  0.00  0.00    +0.000 C 
ATOM     15  H   UNL     1       6.614   3.920  19.797  0.00  0.00    +0.000 HD
ATOM     16  H   UNL     1       8.339   5.156  15.417  0.00  0.00    +0.000 HD
ENDROOT
TORSDOF 0
ENDMDL
MODEL 2
REMARK VINA RESULT:      -6.9      3.045      5.245
REMARK  Name = 
REMARK  0 active torsions:
REMARK  status: ('A' for Active; 'I' for Inactive)
REMARK                            x       y       z     vdW  Elec       q    Type
REMARK                         _______ _______ _______ _____ _____    ______ ____
ROOT
ATOM      1 CL   UNL     1       6.199   4.084  14.552  0.00  0.00    +0.000 Cl
ATOM      2  C   UNL     1       5.276   4.767  15.837  0.00  0.00    +0.000 A 
ATOM      3  C   UNL     1       5.269   6.149  16.015  0.00  0.00    +0.000 A 
ATOM      4  C   UNL     1       4.524   6.734  17.045  0.00  0.00    +0.000 A 
ATOM      5  C   UNL     1       3.791   5.881  17.880  0.00  0.00    +0.000 A 
ATOM      6  N   UNL     1       2.964   6.176  18.946  0.00  0.00    +0.000 N 
ATOM      7  C   UNL     1       2.430   5.021  19.446  0.00  0.00    +0.000 A 
ATOM      8  C   UNL     1       2.927   3.964  18.716  0.00  0.00    +0.000 A 
ATOM      9  C   UNL     1       3.786   4.492  17.718  0.00  0.00    +0.000 A 
ATOM     10  C   UNL     1       4.545   3.924  16.677  0.00  0.00    +0.000 A 
ATOM     11  C   UNL     1       2.486   2.567  18.988  0.00  0.00    +0.000 C 
ATOM     12  C   UNL     1       1.610   2.503  20.268  0.00  0.00    +0.000 C 
ATOM     13  N   UNL     1       0.709   3.662  20.447  0.00  0.00    +0.000 NA
ATOM     14  C   UNL     1       1.467   4.919  20.571  0.00  0.00    +0.000 C 
ATOM     15  H   UNL     1       2.766   7.111  19.278  0.00  0.00    +0.000 HD
ATOM     16  H   UNL     1       0.153   3.531  21.289  0.00  0.00    +0.000 HD
ENDROOT
TORSDOF 0
ENDMDL
MODEL 3
REMARK VINA RESULT:      -6.8      1.498      2.329
REMARK  Name = 
REMARK  0 active torsions:
REMARK  status: ('A' for Active; 'I' for Inactive)
REMARK                            x       y       z     vdW  Elec       q    Type
REMARK                         _______ _______ _______ _____ _____    ______ ____
ROOT
ATOM      1 CL   UNL     1       1.599   2.708  21.508  0.00  0.00    +0.000 Cl
ATOM      2  C   UNL     1       2.540   2.826  20.070  0.00  0.00    +0.000 A 
ATOM      3  C   UNL     1       2.153   2.114  18.937  0.00  0.00    +0.000 A 
ATOM      4  C   UNL     1       2.893   2.195  17.752  0.00  0.00    +0.000 A 
ATOM      5  C   UNL     1       4.029   3.015  17.752  0.00  0.00    +0.000 A 
ATOM      6  N   UNL     1       4.921   3.296  16.737  0.00  0.00    +0.000 N 
ATOM      7  C   UNL     1       5.862   4.181  17.185  0.00  0.00    +0.000 A 
ATOM      8  C   UNL     1       5.595   4.463  18.507  0.00  0.00    +0.000 A 
ATOM      9  C   UNL     1       4.435   3.736  18.880  0.00  0.00    +0.000 A 
ATOM     10  C   UNL     1       3.677   3.639  20.062  0.00  0.00    +0.000 A 
ATOM     11  C   UNL     1       6.421   5.445  19.265  0.00  0.00    +0.000 C 
ATOM     12  C   UNL     1       7.655   5.889  18.435  0.00  0.00    +0.000 C 
ATOM     13  N   UNL     1       7.393   6.033  16.987  0.00  0.00    +0.000 NA
ATOM     14  C   UNL     1       6.974   4.755  16.386  0.00  0.00    +0.000 C 
ATOM     15  H   UNL     1       4.860   2.924  15.799  0.00  0.00    +0.000 HD
ATOM     16  H   UNL     1       8.240   6.351  16.521  0.00  0.00    +0.000 HD
ENDROOT
TORSDOF 0
ENDMDL
MODEL 4
REMARK VINA RESULT:      -6.7      2.641      4.848
REMARK  Name = 
REMARK  0 active torsions:
REMARK  status: ('A' for Active; 'I' for Inactive)
REMARK                            x       y       z     vdW  Elec       q    Type
REMARK                         _______ _______ _______ _____ _____    ______ ____
ROOT
ATOM      1 CL   UNL     1       6.887   4.742  13.833  0.00  0.00    +0.000 Cl
ATOM      2  C   UNL     1       6.465   4.566  15.495  0.00  0.00    +0.000 A 
ATOM      3  C   UNL     1       7.431   4.789  16.474  0.00  0.00    +0.000 A 
ATOM      4  C   UNL     1       7.117   4.661  17.832  0.00  0.00    +0.000 A 
ATOM      5  C   UNL     1       5.804   4.305  18.163  0.00  0.00    +0.000 A 
ATOM      6  N   UNL     1       5.215   4.129  19.400  0.00  0.00    +0.000 N 
ATOM      7  C   UNL     1       3.895   3.814  19.239  0.00  0.00    +0.000 A 
ATOM      8  C   UNL     1       3.624   3.763  17.889  0.00  0.00    +0.000 A 
ATOM      9  C   UNL     1       4.821   4.075  17.195  0.00  0.00    +0.000 A 
ATOM     10  C   UNL     1       5.158   4.208  15.834  0.00  0.00    +0.000 A 
ATOM     11  C   UNL     1       2.245   3.493  17.393  0.00  0.00    +0.000 C 
ATOM     12  C   UNL     1       1.302   3.103  18.561  0.00  0.00    +0.000 C 
ATOM     13  N   UNL     1       1.555   3.838  19.819  0.00  0.00    +0.000 NA
ATOM     14  C   UNL     1       2.913   3.582  20.329  0.00  0.00    +0.000 C 
ATOM     15  H   UNL     1       5.691   4.250  20.284  0.00  0.00    +0.000 HD
ATOM     16  H   UNL     1       0.881   3.546  20.523  0.00  0.00    +0.000 HD
ENDROOT
TORSDOF 0
ENDMDL
MODEL 5
REMARK VINA RESULT:      -6.7      1.244      1.251
REMARK  Name = 
REMARK  0 active torsions:
REMARK  status: ('A' for Active; 'I' for Inactive)
REMARK                            x       y       z     vdW  Elec       q    Type
REMARK                         _______ _______ _______ _____ _____    ______ ____
ROOT
ATOM      1 CL   UNL     1       0.626   2.272  18.649  0.00  0.00    +0.000 Cl
ATOM      2  C   UNL     1       1.965   3.356  18.674  0.00  0.00    +0.000 A 
ATOM      3  C   UNL     1       2.202   4.127  19.810  0.00  0.00    +0.000 A 
ATOM      4  C   UNL     1       3.285   5.011  19.862  0.00  0.00    +0.000 A 
ATOM      5  C   UNL     1       4.115   5.087  18.737  0.00  0.00    +0.000 A 
ATOM      6  N   UNL     1       5.249   5.844  18.518  0.00  0.00    +0.000 N 
ATOM      7  C   UNL     1       5.753   5.569  17.278  0.00  0.00    +0.000 A 
ATOM      8  C   UNL     1       4.932   4.642  16.674  0.00  0.00    +0.000 A 
ATOM      9  C   UNL     1       3.893   4.323  17.586  0.00  0.00    +0.000 A 
ATOM     10  C   UNL     1       2.796   3.441  17.554  0.00  0.00    +0.000 A 
ATOM     11  C   UNL     1       5.251   4.097  15.324  0.00  0.00    +0.000 C 
ATOM     12  C   UNL     1       6.448   4.854  14.690  0.00  0.00    +0.000 C 
ATOM     13  N   UNL     1       7.503   5.239  15.652  0.00  0.00    +0.000 NA
ATOM     14  C   UNL     1       6.983   6.152  16.684  0.00  0.00    +0.000 C 
ATOM     15  H   UNL     1       5.655   6.479  19.193  0.00  0.00    +0.000 HD
ATOM     16  H   UNL     1       8.260   5.704  15.156  0.00  0.00    +0.000 HD
ENDROOT
TORSDOF 0
ENDMDL
MODEL 6
REMARK VINA RESULT:      -6.6      3.146      5.402
REMARK  Name = 
REMARK  0 active torsions:
REMARK  status: ('A' for Active; 'I' for Inactive)
REMARK                            x       y       z     vdW  Elec       q    Type
REMARK                         _______ _______ _______ _____ _____    ______ ____
ROOT
ATOM      1 CL   UNL     1       7.964   6.240  18.764  0.00  0.00    +0.000 Cl
ATOM      2  C   UNL     1       6.571   5.374  18.238  0.00  0.00    +0.000 A 
ATOM      3  C   UNL     1       6.587   4.737  16.999  0.00  0.00    +0.000 A 
ATOM      4  C   UNL     1       5.474   4.021  16.546  0.00  0.00    +0.000 A 
ATOM      5  C   UNL     1       4.353   3.968  17.385  0.00  0.00    +0.000 A 
ATOM      6  N   UNL     1       3.142   3.328  17.210  0.00  0.00    +0.000 N 
ATOM      7  C   UNL     1       2.355   3.526  18.310  0.00  0.00    +0.000 A 
ATOM      8  C   UNL     1       3.048   4.317  19.200  0.00  0.00    +0.000 A 
ATOM      9  C   UNL     1       4.316   4.602  18.631  0.00  0.00    +0.000 A 
ATOM     10  C   UNL     1       5.447   5.320  19.065  0.00  0.00    +0.000 A 
ATOM     11  C   UNL     1       2.470   4.665  20.529  0.00  0.00    +0.000 C 
ATOM     12  C   UNL     1       0.994   4.198  20.631  0.00  0.00    +0.000 C 
ATOM     13  N   UNL     1       0.718   2.906  19.968  0.00  0.00    +0.000 NA
ATOM     14  C   UNL     1       0.994   2.973  18.522  0.00  0.00    +0.000 C 
ATOM     15  H   UNL     1       2.897   2.774  16.400  0.00  0.00    +0.000 HD
ATOM     16  H   UNL     1      -0.260   2.658  20.103  0.00  0.00    +0.000 HD
ENDROOT
TORSDOF 0
ENDMDL
MODEL 7
REMARK VINA RESULT:      -6.4      2.882      5.300
REMARK  Name = 
REMARK  0 active torsions:
REMARK  status: ('A' for Active; 'I' for Inactive)
REMARK                            x       y       z     vdW  Elec       q    Type
REMARK                         _______ _______ _______ _____ _____    ______ ____
ROOT
ATOM      1 CL   UNL     1       4.899   2.638  11.305  0.00  0.00    +0.000 Cl
ATOM      2  C   UNL     1       5.734   3.501  12.540  0.00  0.00    +0.000 A 
ATOM      3  C   UNL     1       6.865   4.246  12.212  0.00  0.00    +0.000 A 
ATOM      4  C   UNL     1       7.560   4.963  13.192  0.00  0.00    +0.000 A 
ATOM      5  C   UNL     1       7.076   4.902  14.505  0.00  0.00    +0.000 A 
ATOM      6  N   UNL     1       7.540   5.514  15.653  0.00  0.00    +0.000 N 
ATOM      7  C   UNL     1       6.729   5.192  16.705  0.00  0.00    +0.000 A 
ATOM      8  C   UNL     1       5.741   4.349  16.246  0.00  0.00    +0.000 A 
ATOM      9  C   UNL     1       5.944   4.159  14.855  0.00  0.00    +0.000 A 
ATOM     10  C   UNL     1       5.261   3.443  13.854  0.00  0.00    +0.000 A 
ATOM     11  C   UNL     1       4.664   3.863  17.154  0.00  0.00    +0.000 C 
ATOM     12  C   UNL     1       4.953   4.270  18.624  0.00  0.00    +0.000 C 
ATOM     13  N   UNL     1       5.566   5.606  18.776  0.00  0.00    +0.000 NA
ATOM     14  C   UNL     1       6.874   5.679  18.100  0.00  0.00    +0.000 C 
ATOM     15  H   UNL     1       8.341   6.131  15.691  0.00  0.00    +0.000 HD
ATOM     16  H   UNL     1       5.697   5.808  19.765  0.00  0.00    +0.000 HD
ENDROOT
TORSDOF 0
ENDMDL
MODEL 8
REMARK VINA RESULT:      -6.4      2.293      2.520
REMARK  Name = 
REMARK  0 active torsions:
REMARK  status: ('A' for Active; 'I' for Inactive)
REMARK                            x       y       z     vdW  Elec       q    Type
REMARK                         _______ _______ _______ _____ _____    ______ ____
ROOT
ATOM      1 CL   UNL     1       1.554   2.523  21.383  0.00  0.00    +0.000 Cl
ATOM      2  C   UNL     1       2.106   3.839  20.418  0.00  0.00    +0.000 A 
ATOM      3  C   UNL     1       1.750   5.141  20.766  0.00  0.00    +0.000 A 
ATOM      4  C   UNL     1       2.188   6.231  20.006  0.00  0.00    +0.000 A 
ATOM      5  C   UNL     1       2.994   5.962  18.892  0.00  0.00    +0.000 A 
ATOM      6  N   UNL     1       3.578   6.828  17.988  0.00  0.00    +0.000 N 
ATOM      7  C   UNL     1       4.309   6.116  17.078  0.00  0.00    +0.000 A 
ATOM      8  C   UNL     1       4.186   4.777  17.377  0.00  0.00    +0.000 A 
ATOM      9  C   UNL     1       3.360   4.663  18.525  0.00  0.00    +0.000 A 
ATOM     10  C   UNL     1       2.906   3.581  19.303  0.00  0.00    +0.000 A 
ATOM     11  C   UNL     1       4.918   3.744  16.591  0.00  0.00    +0.000 C 
ATOM     12  C   UNL     1       5.610   4.376  15.354  0.00  0.00    +0.000 C 
ATOM     13  N   UNL     1       6.167   5.725  15.591  0.00  0.00    +0.000 NA
ATOM     14  C   UNL     1       5.114   6.685  15.967  0.00  0.00    +0.000 C 
ATOM     15  H   UNL     1       3.496   7.835  18.022  0.00  0.00    +0.000 HD
ATOM     16  H   UNL     1       6.624   6.056  14.745  0.00  0.00    +0.000 HD
ENDROOT
TORSDOF 0
ENDMDL
MODEL 9
REMARK VINA RESULT:      -6.4      3.269      5.289
REMARK  Name = 
REMARK  0 active torsions:
REMARK  status: ('A' for Active; 'I' for Inactive)
REMARK                            x       y       z     vdW  Elec       q    Type
REMARK                         _______ _______ _______ _____ _____    ______ ____
ROOT
ATOM      1 CL   UNL     1       2.125   9.310  17.698  0.00  0.00    +0.000 Cl
ATOM      2  C   UNL     1       2.867   7.779  17.975  0.00  0.00    +0.000 A 
ATOM      3  C   UNL     1       4.041   7.454  17.299  0.00  0.00    +0.000 A 
ATOM      4  C   UNL     1       4.670   6.221  17.508  0.00  0.00    +0.000 A 
ATOM      5  C   UNL     1       4.077   5.338  18.419  0.00  0.00    +0.000 A 
ATOM      6  N   UNL     1       4.481   4.083  18.831  0.00  0.00    +0.000 N 
ATOM      7  C   UNL     1       3.605   3.602  19.764  0.00  0.00    +0.000 A 
ATOM      8  C   UNL     1       2.611   4.539  19.947  0.00  0.00    +0.000 A 
ATOM      9  C   UNL     1       2.898   5.645  19.106  0.00  0.00    +0.000 A 
ATOM     10  C   UNL     1       2.280   6.890  18.879  0.00  0.00    +0.000 A 
ATOM     11  C   UNL     1       1.530   4.326  20.950  0.00  0.00    +0.000 C 
ATOM     12  C   UNL     1       1.598   2.893  21.542  0.00  0.00    +0.000 C 
ATOM     13  N   UNL     1       2.971   2.383  21.745  0.00  0.00    +0.000 NA
ATOM     14  C   UNL     1       3.710   2.302  20.473  0.00  0.00    +0.000 C 
ATOM     15  H   UNL     1       5.317   3.615  18.509  0.00  0.00    +0.000 HD
ATOM     16  H   UNL     1       2.929   1.455  22.160  0.00  0.00    +0.000 HD
ENDROOT
TORSDOF 0
ENDMDL
