MODEL 1
REMARK VINA RESULT:      -8.2      0.000      0.000
REMARK  Name = 
REMARK  7 active torsions:
REMARK  status: ('A' for Active; 'I' for Inactive)
REMARK    1  A    between atoms: C_1  and  C_2
REMARK    2  A    between atoms: C_5  and  C_6
REMARK    3  A    between atoms: C_6  and  N_7
REMARK    4  A    between atoms: C_11  and  C_13
REMARK    5  A    between atoms: C_13  and  N_14
REMARK    6  A    between atoms: N_14  and  S_15
REMARK    7  A    between atoms: S_15  and  C_18
REMARK                            x       y       z     vdW  Elec       q    Type
REMARK                         _______ _______ _______ _____ _____    ______ ____
ROOT
ATOM      1  N   UNL     1       0.291  10.569  19.021  0.00  0.00    +0.000 NA
ATOM      2  C   UNL     1       0.633   9.646  17.941  0.00  0.00    +0.000 C 
ATOM      3  C   UNL     1       1.958   9.052  18.382  0.00  0.00    +0.000 C 
ATOM      4  N   UNL     1       1.746   8.222  19.576  0.00  0.00    +0.000 N 
ATOM      5  C   UNL     1       2.142   6.901  19.651  0.00  0.00    +0.000 C 
ATOM      6  O   UNL     1       1.968   6.225  20.669  0.00  0.00    +0.000 OA
ATOM      7  C   UNL     1       1.083   8.944  20.694  0.00  0.00    +0.000 C 
ATOM      8  C   UNL     1      -0.130   9.803  20.204  0.00  0.00    +0.000 C 
ENDROOT
BRANCH   1   9
ATOM      9  C   UNL     1      -0.463  11.718  18.586  0.00  0.00    +0.000 C 
BRANCH   9  14
ATOM     10  C   UNL     1       2.916  16.515  18.592  0.00  0.00    +0.000 C 
ATOM     11  C   UNL     1       2.054  15.286  18.628  0.00  0.00    +0.000 A 
ATOM     12  C   UNL     1       2.581  14.029  18.326  0.00  0.00    +0.000 A 
ATOM     13  C   UNL     1       1.758  12.897  18.313  0.00  0.00    +0.000 A 
ATOM     14  C   UNL     1       0.389  12.990  18.609  0.00  0.00    +0.000 A 
ATOM     15  C   UNL     1      -0.130  14.248  18.946  0.00  0.00    +0.000 A 
ATOM     16  C   UNL     1       0.695  15.388  18.954  0.00  0.00    +0.000 A 
ENDBRANCH   9  14
ENDBRANCH   1   9
BRANCH   5  17
ATOM     17  C   UNL     1       2.794   6.307  18.396  0.00  0.00    +0.000 C 
BRANCH  17  18
ATOM     18  N   UNL     1       2.320   4.946  18.148  0.00  0.00    +0.000 NA
ATOM     19  H   UNL     1       1.903   4.807  17.227  0.00  0.00    +0.000 HD
BRANCH  18  20
ATOM     20  S   UNL     1       3.400   3.717  18.528  0.00  0.00    +0.000 S 
ATOM     21  O   UNL     1       3.291   3.516  19.960  0.00  0.00    +0.000 OA
ATOM     22  O   UNL     1       3.153   2.640  17.595  0.00  0.00    +0.000 OA
BRANCH  20  23
ATOM     23  C   UNL     1       5.005   4.421  18.207  0.00  0.00    +0.000 A 
ATOM     24  C   UNL     1       5.668   4.930  19.336  0.00  0.00    +0.000 A 
ATOM     25  C   UNL     1       6.894   5.566  19.211  0.00  0.00    +0.000 A 
ATOM     26  C   UNL     1       7.457   5.729  17.954  0.00  0.00    +0.000 A 
ATOM     27  C   UNL     1       6.806   5.246  16.806  0.00  0.00    +0.000 A 
ATOM     28  C   UNL     1       7.386   5.435  15.546  0.00  0.00    +0.000 A 
ATOM     29  N   UNL     1       6.859   5.009  14.386  0.00  0.00    +0.000 NA
ATOM     30  C   UNL     1       5.691   4.341  14.478  0.00  0.00    +0.000 A 
ATOM     31  C   UNL     1       5.027   4.094  15.678  0.00  0.00    +0.000 A 
ATOM     32  C   UNL     1       5.565   4.565  16.904  0.00  0.00    +0.000 A 
ENDBRANCH  20  23
ENDBRANCH  18  20
ENDBRANCH  17  18
ENDBRANCH   5  17
TORSDOF 6
ENDMDL
MODEL 2
REMARK VINA RESULT:      -8.1      1.659      2.518
REMARK  Name = 
REMARK  7 active torsions:
REMARK  status: ('A' for Active; 'I' for Inactive)
REMARK    1  A    between atoms: C_1  and  C_2
REMARK    2  A    between atoms: C_5  and  C_6
REMARK    3  A    between atoms: C_6  and  N_7
REMARK    4  A    between atoms: C_11  and  C_13
REMARK    5  A    between atoms: C_13  and  N_14
REMARK    6  A    between atoms: N_14  and  S_15
REMARK    7  A    between atoms: S_15  and  C_18
REMARK                            x       y       z     vdW  Elec       q    Type
REMARK                         _______ _______ _______ _____ _____    ______ ____
ROOT
ATOM      1  N   UNL     1       1.395  10.191  19.009  0.00  0.00    +0.000 NA
ATOM      2  C   UNL     1       1.490   9.273  17.876  0.00  0.00    +0.000 C 
ATOM      3  C   UNL     1       2.583   8.305  18.288  0.00  0.00    +0.000 C 
ATOM      4  N   UNL     1       2.116   7.501  19.426  0.00  0.00    +0.000 N 
ATOM      5  C   UNL     1       2.123   6.120  19.422  0.00  0.00    +0.000 C 
ATOM      6  O   UNL     1       1.740   5.462  20.394  0.00  0.00    +0.000 OA
ATOM      7  C   UNL     1       1.656   8.315  20.583  0.00  0.00    +0.000 C 
ATOM      8  C   UNL     1       0.746   9.508  20.139  0.00  0.00    +0.000 C 
ENDROOT
BRANCH   1   9
ATOM      9  C   UNL     1       1.006  11.530  18.641  0.00  0.00    +0.000 C 
BRANCH   9  14
ATOM     10  C   UNL     1      -4.580  12.560  20.115  0.00  0.00    +0.000 C 
ATOM     11  C   UNL     1      -3.148  12.332  19.726  0.00  0.00    +0.000 A 
ATOM     12  C   UNL     1      -2.821  11.674  18.539  0.00  0.00    +0.000 A 
ATOM     13  C   UNL     1      -1.485  11.421  18.210  0.00  0.00    +0.000 A 
ATOM     14  C   UNL     1      -0.439  11.827  19.054  0.00  0.00    +0.000 A 
ATOM     15  C   UNL     1      -0.768  12.518  20.229  0.00  0.00    +0.000 A 
ATOM     16  C   UNL     1      -2.112  12.768  20.563  0.00  0.00    +0.000 A 
ENDBRANCH   9  14
ENDBRANCH   1   9
BRANCH   5  17
ATOM     17  C   UNL     1       2.612   5.440  18.137  0.00  0.00    +0.000 C 
BRANCH  17  18
ATOM     18  N   UNL     1       2.387   3.996  18.185  0.00  0.00    +0.000 NA
ATOM     19  H   UNL     1       1.928   3.613  17.358  0.00  0.00    +0.000 HD
BRANCH  18  20
ATOM     20  S   UNL     1       3.710   3.066  18.642  0.00  0.00    +0.000 S 
ATOM     21  O   UNL     1       3.618   2.920  20.081  0.00  0.00    +0.000 OA
ATOM     22  O   UNL     1       3.733   1.914  17.768  0.00  0.00    +0.000 OA
BRANCH  20  23
ATOM     23  C   UNL     1       5.119   4.100  18.296  0.00  0.00    +0.000 A 
ATOM     24  C   UNL     1       5.701   4.707  19.421  0.00  0.00    +0.000 A 
ATOM     25  C   UNL     1       6.761   5.590  19.282  0.00  0.00    +0.000 A 
ATOM     26  C   UNL     1       7.233   5.900  18.014  0.00  0.00    +0.000 A 
ATOM     27  C   UNL     1       6.656   5.320  16.871  0.00  0.00    +0.000 A 
ATOM     28  C   UNL     1       7.139   5.659  15.601  0.00  0.00    +0.000 A 
ATOM     29  N   UNL     1       6.672   5.161  14.444  0.00  0.00    +0.000 NA
ATOM     30  C   UNL     1       5.673   4.261  14.548  0.00  0.00    +0.000 A 
ATOM     31  C   UNL     1       5.119   3.849  15.759  0.00  0.00    +0.000 A 
ATOM     32  C   UNL     1       5.590   4.391  16.983  0.00  0.00    +0.000 A 
ENDBRANCH  20  23
ENDBRANCH  18  20
ENDBRANCH  17  18
ENDBRANCH   5  17
TORSDOF 6
ENDMDL
MODEL 3
REMARK VINA RESULT:      -8.0      1.911      3.095
REMARK  Name = 
REMARK  7 active torsions:
REMARK  status: ('A' for Active; 'I' for Inactive)
REMARK    1  A    between atoms: C_1  and  C_2
REMARK    2  A    between atoms: C_5  and  C_6
REMARK    3  A    between atoms: C_6  and  N_7
REMARK    4  A    between atoms: C_11  and  C_13
REMARK    5  A    between atoms: C_13  and  N_14
REMARK    6  A    between atoms: N_14  and  S_15
REMARK    7  A    between atoms: S_15  and  C_18
REMARK                            x       y       z     vdW  Elec       q    Type
REMARK                         _______ _______ _______ _____ _____    ______ ____
ROOT
ATOM      1  N   UNL     1       0.751  10.138  19.398  0.00  0.00    +0.000 NA
ATOM      2  C   UNL     1       0.877   9.123  18.355  0.00  0.00    +0.000 C 
ATOM      3  C   UNL     1       2.065   8.292  18.803  0.00  0.00    +0.000 C 
ATOM      4  N   UNL     1       1.717   7.570  20.035  0.00  0.00    +0.000 N 
ATOM      5  C   UNL     1       1.842   6.201  20.162  0.00  0.00    +0.000 C 
ATOM      6  O   UNL     1       1.558   5.615  21.211  0.00  0.00    +0.000 OA
ATOM      7  C   UNL     1       1.237   8.455  21.130  0.00  0.00    +0.000 C 
ATOM      8  C   UNL     1       0.211   9.521  20.619  0.00  0.00    +0.000 C 
ENDROOT
BRANCH   1   9
ATOM      9  C   UNL     1       0.234  11.398  18.923  0.00  0.00    +0.000 C 
BRANCH   9  14
ATOM     10  C   UNL     1      -5.515  11.167  17.772  0.00  0.00    +0.000 C 
ATOM     11  C   UNL     1      -4.047  11.192  18.084  0.00  0.00    +0.000 A 
ATOM     12  C   UNL     1      -3.550  11.960  19.139  0.00  0.00    +0.000 A 
ATOM     13  C   UNL     1      -2.174  12.017  19.391  0.00  0.00    +0.000 A 
ATOM     14  C   UNL     1      -1.260  11.303  18.600  0.00  0.00    +0.000 A 
ATOM     15  C   UNL     1      -1.765  10.506  17.563  0.00  0.00    +0.000 A 
ATOM     16  C   UNL     1      -3.148  10.451  17.306  0.00  0.00    +0.000 A 
ENDBRANCH   9  14
ENDBRANCH   1   9
BRANCH   5  17
ATOM     17  C   UNL     1       2.334   5.438  18.925  0.00  0.00    +0.000 C 
BRANCH  17  18
ATOM     18  N   UNL     1       2.727   4.072  19.269  0.00  0.00    +0.000 NA
ATOM     19  H   UNL     1       1.971   3.497  19.640  0.00  0.00    +0.000 HD
BRANCH  18  20
ATOM     20  S   UNL     1       3.608   3.251  18.098  0.00  0.00    +0.000 S 
ATOM     21  O   UNL     1       3.910   1.950  18.663  0.00  0.00    +0.000 OA
ATOM     22  O   UNL     1       2.878   3.382  16.857  0.00  0.00    +0.000 OA
BRANCH  20  23
ATOM     23  C   UNL     1       5.140   4.153  17.981  0.00  0.00    +0.000 A 
ATOM     24  C   UNL     1       5.619   4.671  19.196  0.00  0.00    +0.000 A 
ATOM     25  C   UNL     1       6.765   5.452  19.231  0.00  0.00    +0.000 A 
ATOM     26  C   UNL     1       7.429   5.748  18.050  0.00  0.00    +0.000 A 
ATOM     27  C   UNL     1       6.961   5.257  16.819  0.00  0.00    +0.000 A 
ATOM     28  C   UNL     1       7.639   5.582  15.638  0.00  0.00    +0.000 A 
ATOM     29  N   UNL     1       7.288   5.163  14.411  0.00  0.00    +0.000 NA
ATOM     30  C   UNL     1       6.206   4.361  14.347  0.00  0.00    +0.000 A 
ATOM     31  C   UNL     1       5.458   3.972  15.458  0.00  0.00    +0.000 A 
ATOM     32  C   UNL     1       5.808   4.433  16.754  0.00  0.00    +0.000 A 
ENDBRANCH  20  23
ENDBRANCH  18  20
ENDBRANCH  17  18
ENDBRANCH   5  17
TORSDOF 6
ENDMDL
MODEL 4
REMARK VINA RESULT:      -8.0      3.043      9.602
REMARK  Name = 
REMARK  7 active torsions:
REMARK  status: ('A' for Active; 'I' for Inactive)
REMARK    1  A    between atoms: C_1  and  C_2
REMARK    2  A    between atoms: C_5  and  C_6
REMARK    3  A    between atoms: C_6  and  N_7
REMARK    4  A    between atoms: C_11  and  C_13
REMARK    5  A    between atoms: C_13  and  N_14
REMARK    6  A    between atoms: N_14  and  S_15
REMARK    7  A    between atoms: S_15  and  C_18
REMARK                            x       y       z     vdW  Elec       q    Type
REMARK                         _______ _______ _______ _____ _____    ______ ____
ROOT
ATOM      1  N   UNL     1       5.480   5.774  17.873  0.00  0.00    +0.000 NA
ATOM      2  C   UNL     1       5.061   7.163  17.698  0.00  0.00    +0.000 C 
ATOM      3  C   UNL     1       3.545   7.083  17.691  0.00  0.00    +0.000 C 
ATOM      4  N   UNL     1       3.073   6.679  19.023  0.00  0.00    +0.000 N 
ATOM      5  C   UNL     1       2.146   7.406  19.743  0.00  0.00    +0.000 C 
ATOM      6  O   UNL     1       1.751   7.042  20.854  0.00  0.00    +0.000 OA
ATOM      7  C   UNL     1       3.676   5.409  19.510  0.00  0.00    +0.000 C 
ATOM      8  C   UNL     1       5.220   5.355  19.258  0.00  0.00    +0.000 C 
ENDROOT
BRANCH   1   9
ATOM      9  C   UNL     1       6.735   5.463  17.237  0.00  0.00    +0.000 C 
BRANCH   9  14
ATOM     10  C   UNL     1       5.780   3.219  11.900  0.00  0.00    +0.000 C 
ATOM     11  C   UNL     1       6.050   3.766  13.271  0.00  0.00    +0.000 A 
ATOM     12  C   UNL     1       5.187   3.498  14.335  0.00  0.00    +0.000 A 
ATOM     13  C   UNL     1       5.420   4.054  15.599  0.00  0.00    +0.000 A 
ATOM     14  C   UNL     1       6.525   4.886  15.833  0.00  0.00    +0.000 A 
ATOM     15  C   UNL     1       7.410   5.126  14.772  0.00  0.00    +0.000 A 
ATOM     16  C   UNL     1       7.174   4.571  13.500  0.00  0.00    +0.000 A 
ENDBRANCH   9  14
ENDBRANCH   1   9
BRANCH   5  17
ATOM     17  C   UNL     1       1.642   8.705  19.100  0.00  0.00    +0.000 C 
BRANCH  17  18
ATOM     18  N   UNL     1       0.624   9.346  19.931  0.00  0.00    +0.000 NA
ATOM     19  H   UNL     1       0.486   8.907  20.841  0.00  0.00    +0.000 HD
BRANCH  18  20
ATOM     20  S   UNL     1       0.736  11.017  20.062  0.00  0.00    +0.000 S 
ATOM     21  O   UNL     1       1.105  11.286  21.439  0.00  0.00    +0.000 OA
ATOM     22  O   UNL     1       1.556  11.469  18.961  0.00  0.00    +0.000 OA
BRANCH  20  23
ATOM     23  C   UNL     1      -0.934  11.593  19.832  0.00  0.00    +0.000 A 
ATOM     24  C   UNL     1      -1.419  12.433  20.849  0.00  0.00    +0.000 A 
ATOM     25  C   UNL     1      -2.726  12.894  20.824  0.00  0.00    +0.000 A 
ATOM     26  C   UNL     1      -3.574  12.497  19.800  0.00  0.00    +0.000 A 
ATOM     27  C   UNL     1      -3.119  11.643  18.780  0.00  0.00    +0.000 A 
ATOM     28  C   UNL     1      -3.997  11.245  17.765  0.00  0.00    +0.000 A 
ATOM     29  N   UNL     1      -3.670  10.441  16.739  0.00  0.00    +0.000 NA
ATOM     30  C   UNL     1      -2.391  10.015  16.706  0.00  0.00    +0.000 A 
ATOM     31  C   UNL     1      -1.433  10.352  17.662  0.00  0.00    +0.000 A 
ATOM     32  C   UNL     1      -1.779  11.178  18.762  0.00  0.00    +0.000 A 
ENDBRANCH  20  23
ENDBRANCH  18  20
ENDBRANCH  17  18
ENDBRANCH   5  17
TORSDOF 6
ENDMDL
MODEL 5
REMARK VINA RESULT:      -7.8      1.890      3.131
REMARK  Name = 
REMARK  7 active torsions:
REMARK  status: ('A' for Active; 'I' for Inactive)
REMARK    1  A    between atoms: C_1  and  C_2
REMARK    2  A    between atoms: C_5  and  C_6
REMARK    3  A    between atoms: C_6  and  N_7
REMARK    4  A    between atoms: C_11  and  C_13
REMARK    5  A    between atoms: C_13  and  N_14
REMARK    6  A    between atoms: N_14  and  S_15
REMARK    7  A    between atoms: S_15  and  C_18
REMARK                            x       y       z     vdW  Elec       q    Type
REMARK                         _______ _______ _______ _____ _____    ______ ____
ROOT
ATOM      1  N   UNL     1       0.577  10.977  19.368  0.00  0.00    +0.000 NA
ATOM      2  C   UNL     1       0.769   9.833  20.257  0.00  0.00    +0.000 C 
ATOM      3  C   UNL     1       0.738   8.640  19.320  0.00  0.00    +0.000 C 
ATOM      4  N   UNL     1       1.917   8.678  18.444  0.00  0.00    +0.000 N 
ATOM      5  C   UNL     1       2.799   7.622  18.327  0.00  0.00    +0.000 C 
ATOM      6  O   UNL     1       3.777   7.668  17.574  0.00  0.00    +0.000 OA
ATOM      7  C   UNL     1       2.058   9.952  17.689  0.00  0.00    +0.000 C 
ATOM      8  C   UNL     1       1.806  11.205  18.592  0.00  0.00    +0.000 C 
ENDROOT
BRANCH   1   9
ATOM      9  C   UNL     1      -0.115  12.081  19.985  0.00  0.00    +0.000 C 
BRANCH   9  14
ATOM     10  C   UNL     1      -5.795  11.953  18.518  0.00  0.00    +0.000 C 
ATOM     11  C   UNL     1      -4.340  12.022  18.881  0.00  0.00    +0.000 A 
ATOM     12  C   UNL     1      -3.365  11.462  18.054  0.00  0.00    +0.000 A 
ATOM     13  C   UNL     1      -2.016  11.486  18.425  0.00  0.00    +0.000 A 
ATOM     14  C   UNL     1      -1.605  12.077  19.630  0.00  0.00    +0.000 A 
ATOM     15  C   UNL     1      -2.582  12.670  20.443  0.00  0.00    +0.000 A 
ATOM     16  C   UNL     1      -3.939  12.641  20.073  0.00  0.00    +0.000 A 
ENDBRANCH   9  14
ENDBRANCH   1   9
BRANCH   5  17
ATOM     17  C   UNL     1       2.514   6.390  19.195  0.00  0.00    +0.000 C 
BRANCH  17  18
ATOM     18  N   UNL     1       2.377   5.186  18.376  0.00  0.00    +0.000 NA
ATOM     19  H   UNL     1       2.351   5.361  17.372  0.00  0.00    +0.000 HD
BRANCH  18  20
ATOM     20  S   UNL     1       3.420   3.924  18.755  0.00  0.00    +0.000 S 
ATOM     21  O   UNL     1       3.362   3.777  20.196  0.00  0.00    +0.000 OA
ATOM     22  O   UNL     1       3.089   2.829  17.871  0.00  0.00    +0.000 OA
BRANCH  20  23
ATOM     23  C   UNL     1       5.038   4.548  18.345  0.00  0.00    +0.000 A 
ATOM     24  C   UNL     1       5.786   5.023  19.434  0.00  0.00    +0.000 A 
ATOM     25  C   UNL     1       7.033   5.597  19.242  0.00  0.00    +0.000 A 
ATOM     26  C   UNL     1       7.535   5.730  17.955  0.00  0.00    +0.000 A 
ATOM     27  C   UNL     1       6.799   5.280  16.846  0.00  0.00    +0.000 A 
ATOM     28  C   UNL     1       7.319   5.439  15.556  0.00  0.00    +0.000 A 
ATOM     29  N   UNL     1       6.709   5.039  14.427  0.00  0.00    +0.000 NA
ATOM     30  C   UNL     1       5.516   4.431  14.584  0.00  0.00    +0.000 A 
ATOM     31  C   UNL     1       4.907   4.218  15.820  0.00  0.00    +0.000 A 
ATOM     32  C   UNL     1       5.533   4.662  17.013  0.00  0.00    +0.000 A 
ENDBRANCH  20  23
ENDBRANCH  18  20
ENDBRANCH  17  18
ENDBRANCH   5  17
TORSDOF 6
ENDMDL
MODEL 6
REMARK VINA RESULT:      -7.8      4.455     10.132
REMARK  Name = 
REMARK  7 active torsions:
REMARK  status: ('A' for Active; 'I' for Inactive)
REMARK    1  A    between atoms: C_1  and  C_2
REMARK    2  A    between atoms: C_5  and  C_6
REMARK    3  A    between atoms: C_6  and  N_7
REMARK    4  A    between atoms: C_11  and  C_13
REMARK    5  A    between atoms: C_13  and  N_14
REMARK    6  A    between atoms: N_14  and  S_15
REMARK    7  A    between atoms: S_15  and  C_18
REMARK                            x       y       z     vdW  Elec       q    Type
REMARK                         _______ _______ _______ _____ _____    ______ ____
ROOT
ATOM      1  N   UNL     1       1.806   8.109  19.026  0.00  0.00    +0.000 NA
ATOM      2  C   UNL     1       1.608   9.556  19.053  0.00  0.00    +0.000 C 
ATOM      3  C   UNL     1       0.295   9.725  19.795  0.00  0.00    +0.000 C 
ATOM      4  N   UNL     1       0.470   9.311  21.194  0.00  0.00    +0.000 N 
ATOM      5  C   UNL     1       0.157  10.127  22.262  0.00  0.00    +0.000 C 
ATOM      6  O   UNL     1       0.297   9.755  23.431  0.00  0.00    +0.000 OA
ATOM      7  C   UNL     1       0.999   7.929  21.346  0.00  0.00    +0.000 C 
ATOM      8  C   UNL     1       2.187   7.642  20.368  0.00  0.00    +0.000 C 
ENDROOT
BRANCH   1   9
ATOM      9  C   UNL     1       2.515   7.642  17.860  0.00  0.00    +0.000 C 
BRANCH   9  14
ATOM     10  C   UNL     1       3.473   1.856  18.066  0.00  0.00    +0.000 C 
ATOM     11  C   UNL     1       3.221   3.334  17.976  0.00  0.00    +0.000 A 
ATOM     12  C   UNL     1       4.280   4.243  17.952  0.00  0.00    +0.000 A 
ATOM     13  C   UNL     1       4.035   5.621  17.919  0.00  0.00    +0.000 A 
ATOM     14  C   UNL     1       2.726   6.125  17.902  0.00  0.00    +0.000 A 
ATOM     15  C   UNL     1       1.664   5.209  17.891  0.00  0.00    +0.000 A 
ATOM     16  C   UNL     1       1.910   3.824  17.930  0.00  0.00    +0.000 A 
ENDBRANCH   9  14
ENDBRANCH   1   9
BRANCH   5  17
ATOM     17  C   UNL     1      -0.359  11.532  21.925  0.00  0.00    +0.000 C 
BRANCH  17  18
ATOM     18  N   UNL     1      -1.691  11.755  22.487  0.00  0.00    +0.000 NA
ATOM     19  H   UNL     1      -1.768  11.549  23.483  0.00  0.00    +0.000 HD
BRANCH  18  20
ATOM     20  S   UNL     1      -2.406  13.227  22.105  0.00  0.00    +0.000 S 
ATOM     21  O   UNL     1      -3.010  13.708  23.332  0.00  0.00    +0.000 OA
ATOM     22  O   UNL     1      -1.412  14.004  21.399  0.00  0.00    +0.000 OA
BRANCH  20  23
ATOM     23  C   UNL     1      -3.727  12.802  20.988  0.00  0.00    +0.000 A 
ATOM     24  C   UNL     1      -5.018  12.882  21.535  0.00  0.00    +0.000 A 
ATOM     25  C   UNL     1      -6.128  12.511  20.791  0.00  0.00    +0.000 A 
ATOM     26  C   UNL     1      -5.959  12.028  19.502  0.00  0.00    +0.000 A 
ATOM     27  C   UNL     1      -4.677  11.919  18.937  0.00  0.00    +0.000 A 
ATOM     28  C   UNL     1      -4.529  11.414  17.640  0.00  0.00    +0.000 A 
ATOM     29  N   UNL     1      -3.357  11.276  16.998  0.00  0.00    +0.000 NA
ATOM     30  C   UNL     1      -2.261  11.675  17.677  0.00  0.00    +0.000 A 
ATOM     31  C   UNL     1      -2.292  12.195  18.969  0.00  0.00    +0.000 A 
ATOM     32  C   UNL     1      -3.524  12.318  19.662  0.00  0.00    +0.000 A 
ENDBRANCH  20  23
ENDBRANCH  18  20
ENDBRANCH  17  18
ENDBRANCH   5  17
TORSDOF 6
ENDMDL
MODEL 7
REMARK VINA RESULT:      -7.7      4.040      9.986
REMARK  Name = 
REMARK  7 active torsions:
REMARK  status: ('A' for Active; 'I' for Inactive)
REMARK    1  A    between atoms: C_1  and  C_2
REMARK    2  A    between atoms: C_5  and  C_6
REMARK    3  A    between atoms: C_6  and  N_7
REMARK    4  A    between atoms: C_11  and  C_13
REMARK    5  A    between atoms: C_13  and  N_14
REMARK    6  A    between atoms: N_14  and  S_15
REMARK    7  A    between atoms: S_15  and  C_18
REMARK                            x       y       z     vdW  Elec       q    Type
REMARK                         _______ _______ _______ _____ _____    ______ ____
ROOT
ATOM      1  N   UNL     1       1.780   8.225  18.887  0.00  0.00    +0.000 NA
ATOM      2  C   UNL     1       1.607   9.666  18.719  0.00  0.00    +0.000 C 
ATOM      3  C   UNL     1       0.257   9.942  19.354  0.00  0.00    +0.000 C 
ATOM      4  N   UNL     1       0.343   9.708  20.802  0.00  0.00    +0.000 N 
ATOM      5  C   UNL     1      -0.018  10.657  21.738  0.00  0.00    +0.000 C 
ATOM      6  O   UNL     1       0.048  10.435  22.951  0.00  0.00    +0.000 OA
ATOM      7  C   UNL     1       0.835   8.351  21.159  0.00  0.00    +0.000 C 
ATOM      8  C   UNL     1       2.073   7.928  20.298  0.00  0.00    +0.000 C 
ENDROOT
BRANCH   1   9
ATOM      9  C   UNL     1       2.546   7.605  17.835  0.00  0.00    +0.000 C 
BRANCH   9  14
ATOM     10  C   UNL     1       3.057   1.817  18.649  0.00  0.00    +0.000 C 
ATOM     11  C   UNL     1       2.927   3.292  18.403  0.00  0.00    +0.000 A 
ATOM     12  C   UNL     1       4.033   4.138  18.502  0.00  0.00    +0.000 A 
ATOM     13  C   UNL     1       3.891   5.519  18.321  0.00  0.00    +0.000 A 
ATOM     14  C   UNL     1       2.643   6.089  18.029  0.00  0.00    +0.000 A 
ATOM     15  C   UNL     1       1.540   5.234  17.896  0.00  0.00    +0.000 A 
ATOM     16  C   UNL     1       1.680   3.846  18.083  0.00  0.00    +0.000 A 
ENDBRANCH   9  14
ENDBRANCH   1   9
BRANCH   5  17
ATOM     17  C   UNL     1      -0.486  12.013  21.196  0.00  0.00    +0.000 C 
BRANCH  17  18
ATOM     18  N   UNL     1       0.166  13.118  21.898  0.00  0.00    +0.000 NA
ATOM     19  H   UNL     1       0.405  12.916  22.869  0.00  0.00    +0.000 HD
BRANCH  18  20
ATOM     20  S   UNL     1       1.446  13.843  21.086  0.00  0.00    +0.000 S 
ATOM     21  O   UNL     1       2.309  14.394  22.113  0.00  0.00    +0.000 OA
ATOM     22  O   UNL     1       1.935  12.877  20.129  0.00  0.00    +0.000 OA
BRANCH  20  23
ATOM     23  C   UNL     1       0.702  15.211  20.220  0.00  0.00    +0.000 A 
ATOM     24  C   UNL     1      -0.645  15.453  20.535  0.00  0.00    +0.000 A 
ATOM     25  C   UNL     1      -1.359  16.445  19.879  0.00  0.00    +0.000 A 
ATOM     26  C   UNL     1      -0.744  17.186  18.881  0.00  0.00    +0.000 A 
ATOM     27  C   UNL     1       0.597  16.952  18.534  0.00  0.00    +0.000 A 
ATOM     28  C   UNL     1       1.192  17.703  17.513  0.00  0.00    +0.000 A 
ATOM     29  N   UNL     1       2.466  17.572  17.105  0.00  0.00    +0.000 NA
ATOM     30  C   UNL     1       3.203  16.649  17.757  0.00  0.00    +0.000 A 
ATOM     31  C   UNL     1       2.714  15.850  18.789  0.00  0.00    +0.000 A 
ATOM     32  C   UNL     1       1.363  15.965  19.206  0.00  0.00    +0.000 A 
ENDBRANCH  20  23
ENDBRANCH  18  20
ENDBRANCH  17  18
ENDBRANCH   5  17
TORSDOF 6
ENDMDL
MODEL 8
REMARK VINA RESULT:      -7.7      1.517      2.378
REMARK  Name = 
REMARK  7 active torsions:
REMARK  status: ('A' for Active; 'I' for Inactive)
REMARK    1  A    between atoms: C_1  and  C_2
REMARK    2  A    between atoms: C_5  and  C_6
REMARK    3  A    between atoms: C_6  and  N_7
REMARK    4  A    between atoms: C_11  and  C_13
REMARK    5  A    between atoms: C_13  and  N_14
REMARK    6  A    between atoms: N_14  and  S_15
REMARK    7  A    between atoms: S_15  and  C_18
REMARK                            x       y       z     vdW  Elec       q    Type
REMARK                         _______ _______ _______ _____ _____    ______ ____
ROOT
ATOM      1  N   UNL     1       1.023  10.186  19.429  0.00  0.00    +0.000 NA
ATOM      2  C   UNL     1       1.096   9.214  18.341  0.00  0.00    +0.000 C 
ATOM      3  C   UNL     1       2.236   8.301  18.750  0.00  0.00    +0.000 C 
ATOM      4  N   UNL     1       1.847   7.543  19.947  0.00  0.00    +0.000 N 
ATOM      5  C   UNL     1       1.897   6.165  20.012  0.00  0.00    +0.000 C 
ATOM      6  O   UNL     1       1.579   5.547  21.033  0.00  0.00    +0.000 OA
ATOM      7  C   UNL     1       1.413   8.402  21.082  0.00  0.00    +0.000 C 
ATOM      8  C   UNL     1       0.447   9.544  20.621  0.00  0.00    +0.000 C 
ENDROOT
BRANCH   1   9
ATOM      9  C   UNL     1       0.575  11.492  19.013  0.00  0.00    +0.000 C 
BRANCH   9  14
ATOM     10  C   UNL     1       4.786  15.492  19.846  0.00  0.00    +0.000 C 
ATOM     11  C   UNL     1       3.685  14.496  19.621  0.00  0.00    +0.000 A 
ATOM     12  C   UNL     1       2.931  14.005  20.688  0.00  0.00    +0.000 A 
ATOM     13  C   UNL     1       1.941  13.039  20.475  0.00  0.00    +0.000 A 
ATOM     14  C   UNL     1       1.674  12.544  19.190  0.00  0.00    +0.000 A 
ATOM     15  C   UNL     1       2.409  13.064  18.115  0.00  0.00    +0.000 A 
ATOM     16  C   UNL     1       3.408  14.032  18.329  0.00  0.00    +0.000 A 
ENDBRANCH   9  14
ENDBRANCH   1   9
BRANCH   5  17
ATOM     17  C   UNL     1       2.349   5.434  18.742  0.00  0.00    +0.000 C 
BRANCH  17  18
ATOM     18  N   UNL     1       2.902   4.117  19.058  0.00  0.00    +0.000 NA
ATOM     19  H   UNL     1       2.350   3.578  19.725  0.00  0.00    +0.000 HD
BRANCH  18  20
ATOM     20  S   UNL     1       3.361   3.183  17.739  0.00  0.00    +0.000 S 
ATOM     21  O   UNL     1       3.963   1.984  18.288  0.00  0.00    +0.000 OA
ATOM     22  O   UNL     1       2.217   3.116  16.857  0.00  0.00    +0.000 OA
BRANCH  20  23
ATOM     23  C   UNL     1       4.656   4.124  16.958  0.00  0.00    +0.000 A 
ATOM     24  C   UNL     1       4.649   4.094  15.553  0.00  0.00    +0.000 A 
ATOM     25  C   UNL     1       5.644   4.728  14.825  0.00  0.00    +0.000 A 
ATOM     26  C   UNL     1       6.674   5.376  15.492  0.00  0.00    +0.000 A 
ATOM     27  C   UNL     1       6.715   5.406  16.897  0.00  0.00    +0.000 A 
ATOM     28  C   UNL     1       7.772   6.052  17.548  0.00  0.00    +0.000 A 
ATOM     29  N   UNL     1       7.907   6.151  18.881  0.00  0.00    +0.000 NA
ATOM     30  C   UNL     1       6.929   5.587  19.618  0.00  0.00    +0.000 A 
ATOM     31  C   UNL     1       5.830   4.922  19.076  0.00  0.00    +0.000 A 
ATOM     32  C   UNL     1       5.696   4.791  17.669  0.00  0.00    +0.000 A 
ENDBRANCH  20  23
ENDBRANCH  18  20
ENDBRANCH  17  18
ENDBRANCH   5  17
TORSDOF 6
ENDMDL
MODEL 9
REMARK VINA RESULT:      -7.7      1.725      2.342
REMARK  Name = 
REMARK  7 active torsions:
REMARK  status: ('A' for Active; 'I' for Inactive)
REMARK    1  A    between atoms: C_1  and  C_2
REMARK    2  A    between atoms: C_5  and  C_6
REMARK    3  A    between atoms: C_6  and  N_7
REMARK    4  A    between atoms: C_11  and  C_13
REMARK    5  A    between atoms: C_13  and  N_14
REMARK    6  A    between atoms: N_14  and  S_15
REMARK    7  A    between atoms: S_15  and  C_18
REMARK                            x       y       z     vdW  Elec       q    Type
REMARK                         _______ _______ _______ _____ _____    ______ ____
ROOT
ATOM      1  N   UNL     1       1.308  10.095  19.083  0.00  0.00    +0.000 NA
ATOM      2  C   UNL     1       1.414   9.202  17.931  0.00  0.00    +0.000 C 
ATOM      3  C   UNL     1       2.541   8.258  18.310  0.00  0.00    +0.000 C 
ATOM      4  N   UNL     1       2.114   7.420  19.439  0.00  0.00    +0.000 N 
ATOM      5  C   UNL     1       2.161   6.040  19.409  0.00  0.00    +0.000 C 
ATOM      6  O   UNL     1       1.812   5.354  20.374  0.00  0.00    +0.000 OA
ATOM      7  C   UNL     1       1.646   8.198  20.617  0.00  0.00    +0.000 C 
ATOM      8  C   UNL     1       0.696   9.373  20.208  0.00  0.00    +0.000 C 
ENDROOT
BRANCH   1   9
ATOM      9  C   UNL     1       0.875  11.428  18.745  0.00  0.00    +0.000 C 
BRANCH   9  14
ATOM     10  C   UNL     1      -2.951  13.520  22.672  0.00  0.00    +0.000 C 
ATOM     11  C   UNL     1      -1.980  12.949  21.679  0.00  0.00    +0.000 A 
ATOM     12  C   UNL     1      -0.607  12.957  21.930  0.00  0.00    +0.000 A 
ATOM     13  C   UNL     1       0.294  12.469  20.976  0.00  0.00    +0.000 A 
ATOM     14  C   UNL     1      -0.154  11.954  19.750  0.00  0.00    +0.000 A 
ATOM     15  C   UNL     1      -1.536  11.916  19.515  0.00  0.00    +0.000 A 
ATOM     16  C   UNL     1      -2.443  12.411  20.471  0.00  0.00    +0.000 A 
ENDBRANCH   9  14
ENDBRANCH   1   9
BRANCH   5  17
ATOM     17  C   UNL     1       2.652   5.399  18.105  0.00  0.00    +0.000 C 
BRANCH  17  18
ATOM     18  N   UNL     1       2.448   3.950  18.119  0.00  0.00    +0.000 NA
ATOM     19  H   UNL     1       2.010   3.579  17.277  0.00  0.00    +0.000 HD
BRANCH  18  20
ATOM     20  S   UNL     1       3.777   3.032  18.580  0.00  0.00    +0.000 S 
ATOM     21  O   UNL     1       3.684   2.886  20.019  0.00  0.00    +0.000 OA
ATOM     22  O   UNL     1       3.812   1.880  17.707  0.00  0.00    +0.000 OA
BRANCH  20  23
ATOM     23  C   UNL     1       5.179   4.077  18.236  0.00  0.00    +0.000 A 
ATOM     24  C   UNL     1       5.735   4.714  19.358  0.00  0.00    +0.000 A 
ATOM     25  C   UNL     1       6.786   5.607  19.218  0.00  0.00    +0.000 A 
ATOM     26  C   UNL     1       7.274   5.897  17.952  0.00  0.00    +0.000 A 
ATOM     27  C   UNL     1       6.724   5.288  16.811  0.00  0.00    +0.000 A 
ATOM     28  C   UNL     1       7.224   5.607  15.543  0.00  0.00    +0.000 A 
ATOM     29  N   UNL     1       6.782   5.081  14.388  0.00  0.00    +0.000 NA
ATOM     30  C   UNL     1       5.792   4.170  14.495  0.00  0.00    +0.000 A 
ATOM     31  C   UNL     1       5.224   3.775  15.705  0.00  0.00    +0.000 A 
ATOM     32  C   UNL     1       5.668   4.348  16.925  0.00  0.00    +0.000 A 
ENDBRANCH  20  23
ENDBRANCH  18  20
ENDBRANCH  17  18
ENDBRANCH   5  17
TORSDOF 6
ENDMDL
