MODEL 1
REMARK VINA RESULT:      -7.3      0.000      0.000
REMARK  Name = 
REMARK  4 active torsions:
REMARK  status: ('A' for Active; 'I' for Inactive)
REMARK    1  A    between atoms: C_1  and  C_2
REMARK    2  A    between atoms: C_2  and  C_3
REMARK    3  A    between atoms: C_2  and  N_4
REMARK    4  A    between atoms: C_11  and  C_12
REMARK                            x       y       z     vdW  Elec       q    Type
REMARK                         _______ _______ _______ _____ _____    ______ ____
ROOT
ATOM      1  N   UNL     1       3.499   3.955  18.706  0.00  0.00    +0.000 N 
ATOM      2  C   UNL     1       2.855   4.941  19.448  0.00  0.00    +0.000 A 
ATOM      3  C   UNL     1       2.847   6.246  19.143  0.00  0.00    +0.000 A 
ATOM      4  C   UNL     1       3.564   6.708  17.930  0.00  0.00    +0.000 A 
ATOM      5  O   UNL     1       3.611   7.881  17.582  0.00  0.00    +0.000 OA
ATOM      6  N   UNL     1       4.175   5.673  17.202  0.00  0.00    +0.000 N 
ATOM      7  N   UNL     1       4.863   5.895  16.051  0.00  0.00    +0.000 NA
ATOM      8  C   UNL     1       5.222   4.672  15.630  0.00  0.00    +0.000 A 
ATOM      9  C   UNL     1       4.808   3.671  16.550  0.00  0.00    +0.000 A 
ATOM     10  C   UNL     1       4.141   4.331  17.552  0.00  0.00    +0.000 A 
ENDROOT
BRANCH   8  11
ATOM     11  C   UNL     1       5.947   4.468  14.375  0.00  0.00    +0.000 A 
ATOM     12  C   UNL     1       5.473   3.568  13.412  0.00  0.00    +0.000 A 
ATOM     13  C   UNL     1       6.162   3.390  12.209  0.00  0.00    +0.000 A 
ATOM     14  C   UNL     1       7.333   4.103  11.963  0.00  0.00    +0.000 A 
ATOM     15  C   UNL     1       7.822   4.991  12.918  0.00  0.00    +0.000 A 
ATOM     16  C   UNL     1       7.132   5.174  14.119  0.00  0.00    +0.000 A 
ENDBRANCH   8  11
BRANCH   1  18
ATOM     17  C   UNL     1       4.280   2.218  20.311  0.00  0.00    +0.000 C 
ATOM     18  C   UNL     1       3.448   2.514  19.062  0.00  0.00    +0.000 C 
ATOM     19  C   UNL     1       1.998   2.056  19.220  0.00  0.00    +0.000 C 
ENDBRANCH   1  18
TORSDOF 2
ENDMDL
MODEL 2
REMARK VINA RESULT:      -7.3      0.114      1.113
REMARK  Name = 
REMARK  4 active torsions:
REMARK  status: ('A' for Active; 'I' for Inactive)
REMARK    1  A    between atoms: C_1  and  C_2
REMARK    2  A    between atoms: C_2  and  C_3
REMARK    3  A    between atoms: C_2  and  N_4
REMARK    4  A    between atoms: C_11  and  C_12
REMARK                            x       y       z     vdW  Elec       q    Type
REMARK                         _______ _______ _______ _____ _____    ______ ____
ROOT
ATOM      1  N   UNL     1       3.629   3.935  18.772  0.00  0.00    +0.000 N 
ATOM      2  C   UNL     1       2.973   4.903  19.529  0.00  0.00    +0.000 A 
ATOM      3  C   UNL     1       2.920   6.206  19.223  0.00  0.00    +0.000 A 
ATOM      4  C   UNL     1       3.594   6.687  17.994  0.00  0.00    +0.000 A 
ATOM      5  O   UNL     1       3.598   7.862  17.644  0.00  0.00    +0.000 OA
ATOM      6  N   UNL     1       4.218   5.671  17.252  0.00  0.00    +0.000 N 
ATOM      7  N   UNL     1       4.873   5.911  16.085  0.00  0.00    +0.000 NA
ATOM      8  C   UNL     1       5.258   4.699  15.657  0.00  0.00    +0.000 A 
ATOM      9  C   UNL     1       4.896   3.688  16.586  0.00  0.00    +0.000 A 
ATOM     10  C   UNL     1       4.232   4.329  17.603  0.00  0.00    +0.000 A 
ENDROOT
BRANCH   8  11
ATOM     11  C   UNL     1       5.958   4.515  14.385  0.00  0.00    +0.000 A 
ATOM     12  C   UNL     1       7.141   5.214  14.110  0.00  0.00    +0.000 A 
ATOM     13  C   UNL     1       7.813   5.020  12.900  0.00  0.00    +0.000 A 
ATOM     14  C   UNL     1       7.304   4.135  11.952  0.00  0.00    +0.000 A 
ATOM     15  C   UNL     1       6.121   3.444  12.208  0.00  0.00    +0.000 A 
ATOM     16  C   UNL     1       5.452   3.632  13.419  0.00  0.00    +0.000 A 
ENDBRANCH   8  11
BRANCH   1  18
ATOM     17  C   UNL     1       4.319   2.252  20.473  0.00  0.00    +0.000 C 
ATOM     18  C   UNL     1       3.629   2.494  19.130  0.00  0.00    +0.000 C 
ATOM     19  C   UNL     1       2.204   1.942  19.113  0.00  0.00    +0.000 C 
ENDBRANCH   1  18
TORSDOF 2
ENDMDL
MODEL 3
REMARK VINA RESULT:      -7.1      2.482      6.193
REMARK  Name = 
REMARK  4 active torsions:
REMARK  status: ('A' for Active; 'I' for Inactive)
REMARK    1  A    between atoms: C_1  and  C_2
REMARK    2  A    between atoms: C_2  and  C_3
REMARK    3  A    between atoms: C_2  and  N_4
REMARK    4  A    between atoms: C_11  and  C_12
REMARK                            x       y       z     vdW  Elec       q    Type
REMARK                         _______ _______ _______ _____ _____    ______ ____
ROOT
ATOM      1  N   UNL     1       3.860   4.002  17.990  0.00  0.00    +0.000 N 
ATOM      2  C   UNL     1       4.895   3.708  17.106  0.00  0.00    +0.000 A 
ATOM      3  C   UNL     1       5.492   4.600  16.304  0.00  0.00    +0.000 A 
ATOM      4  C   UNL     1       5.045   6.013  16.336  0.00  0.00    +0.000 A 
ATOM      5  O   UNL     1       5.532   6.890  15.632  0.00  0.00    +0.000 OA
ATOM      6  N   UNL     1       4.017   6.264  17.259  0.00  0.00    +0.000 N 
ATOM      7  N   UNL     1       3.486   7.501  17.448  0.00  0.00    +0.000 NA
ATOM      8  C   UNL     1       2.601   7.342  18.444  0.00  0.00    +0.000 A 
ATOM      9  C   UNL     1       2.528   5.983  18.854  0.00  0.00    +0.000 A 
ATOM     10  C   UNL     1       3.441   5.307  18.082  0.00  0.00    +0.000 A 
ENDROOT
BRANCH   8  11
ATOM     11  C   UNL     1       1.842   8.467  18.991  0.00  0.00    +0.000 A 
ATOM     12  C   UNL     1       1.518   9.570  18.191  0.00  0.00    +0.000 A 
ATOM     13  C   UNL     1       0.779  10.634  18.717  0.00  0.00    +0.000 A 
ATOM     14  C   UNL     1       0.366  10.608  20.047  0.00  0.00    +0.000 A 
ATOM     15  C   UNL     1       0.694   9.523  20.857  0.00  0.00    +0.000 A 
ATOM     16  C   UNL     1       1.428   8.457  20.332  0.00  0.00    +0.000 A 
ENDBRANCH   8  11
BRANCH   1  18
ATOM     17  C   UNL     1       2.515   1.909  18.096  0.00  0.00    +0.000 C 
ATOM     18  C   UNL     1       3.253   2.988  18.889  0.00  0.00    +0.000 C 
ATOM     19  C   UNL     1       4.317   2.392  19.811  0.00  0.00    +0.000 C 
ENDBRANCH   1  18
TORSDOF 2
ENDMDL
MODEL 4
REMARK VINA RESULT:      -7.0      2.516      6.208
REMARK  Name = 
REMARK  4 active torsions:
REMARK  status: ('A' for Active; 'I' for Inactive)
REMARK    1  A    between atoms: C_1  and  C_2
REMARK    2  A    between atoms: C_2  and  C_3
REMARK    3  A    between atoms: C_2  and  N_4
REMARK    4  A    between atoms: C_11  and  C_12
REMARK                            x       y       z     vdW  Elec       q    Type
REMARK                         _______ _______ _______ _____ _____    ______ ____
ROOT
ATOM      1  N   UNL     1       3.768   4.021  18.123  0.00  0.00    +0.000 N 
ATOM      2  C   UNL     1       4.783   3.688  17.228  0.00  0.00    +0.000 A 
ATOM      3  C   UNL     1       5.374   4.549  16.389  0.00  0.00    +0.000 A 
ATOM      4  C   UNL     1       4.945   5.968  16.388  0.00  0.00    +0.000 A 
ATOM      5  O   UNL     1       5.429   6.818  15.651  0.00  0.00    +0.000 OA
ATOM      6  N   UNL     1       3.939   6.258  17.324  0.00  0.00    +0.000 N 
ATOM      7  N   UNL     1       3.427   7.507  17.487  0.00  0.00    +0.000 NA
ATOM      8  C   UNL     1       2.561   7.388  18.505  0.00  0.00    +0.000 A 
ATOM      9  C   UNL     1       2.479   6.043  18.955  0.00  0.00    +0.000 A 
ATOM     10  C   UNL     1       3.367   5.333  18.186  0.00  0.00    +0.000 A 
ENDROOT
BRANCH   8  11
ATOM     11  C   UNL     1       1.827   8.539  19.034  0.00  0.00    +0.000 A 
ATOM     12  C   UNL     1       1.337   8.534  20.347  0.00  0.00    +0.000 A 
ATOM     13  C   UNL     1       0.651   9.644  20.850  0.00  0.00    +0.000 A 
ATOM     14  C   UNL     1       0.441  10.760  20.043  0.00  0.00    +0.000 A 
ATOM     15  C   UNL     1       0.911  10.771  18.732  0.00  0.00    +0.000 A 
ATOM     16  C   UNL     1       1.602   9.666  18.230  0.00  0.00    +0.000 A 
ENDBRANCH   8  11
BRANCH   1  18
ATOM     17  C   UNL     1       2.218   2.084  18.340  0.00  0.00    +0.000 C 
ATOM     18  C   UNL     1       3.168   3.041  19.063  0.00  0.00    +0.000 C 
ATOM     19  C   UNL     1       4.263   2.292  19.821  0.00  0.00    +0.000 C 
ENDBRANCH   1  18
TORSDOF 2
ENDMDL
MODEL 5
REMARK VINA RESULT:      -6.9      2.722      6.679
REMARK  Name = 
REMARK  4 active torsions:
REMARK  status: ('A' for Active; 'I' for Inactive)
REMARK    1  A    between atoms: C_1  and  C_2
REMARK    2  A    between atoms: C_2  and  C_3
REMARK    3  A    between atoms: C_2  and  N_4
REMARK    4  A    between atoms: C_11  and  C_12
REMARK                            x       y       z     vdW  Elec       q    Type
REMARK                         _______ _______ _______ _____ _____    ______ ____
ROOT
ATOM      1  N   UNL     1       4.747   4.907  16.881  0.00  0.00    +0.000 N 
ATOM      2  C   UNL     1       4.661   3.519  16.965  0.00  0.00    +0.000 A 
ATOM      3  C   UNL     1       3.799   2.853  17.745  0.00  0.00    +0.000 A 
ATOM      4  C   UNL     1       2.851   3.616  18.590  0.00  0.00    +0.000 A 
ATOM      5  O   UNL     1       2.035   3.086  19.335  0.00  0.00    +0.000 OA
ATOM      6  N   UNL     1       2.960   5.010  18.452  0.00  0.00    +0.000 N 
ATOM      7  N   UNL     1       2.165   5.879  19.130  0.00  0.00    +0.000 NA
ATOM      8  C   UNL     1       2.522   7.090  18.677  0.00  0.00    +0.000 A 
ATOM      9  C   UNL     1       3.592   6.995  17.747  0.00  0.00    +0.000 A 
ATOM     10  C   UNL     1       3.860   5.654  17.616  0.00  0.00    +0.000 A 
ENDROOT
BRANCH   8  11
ATOM     11  C   UNL     1       1.855   8.312  19.127  0.00  0.00    +0.000 A 
ATOM     12  C   UNL     1       1.643   9.380  18.246  0.00  0.00    +0.000 A 
ATOM     13  C   UNL     1       0.990  10.537  18.679  0.00  0.00    +0.000 A 
ATOM     14  C   UNL     1       0.552  10.640  19.998  0.00  0.00    +0.000 A 
ATOM     15  C   UNL     1       0.769   9.591  20.888  0.00  0.00    +0.000 A 
ATOM     16  C   UNL     1       1.416   8.431  20.455  0.00  0.00    +0.000 A 
ENDBRANCH   8  11
BRANCH   1  18
ATOM     17  C   UNL     1       7.028   5.883  16.665  0.00  0.00    +0.000 C 
ATOM     18  C   UNL     1       5.693   5.603  15.973  0.00  0.00    +0.000 C 
ATOM     19  C   UNL     1       5.876   4.805  14.682  0.00  0.00    +0.000 C 
ENDBRANCH   1  18
TORSDOF 2
ENDMDL
MODEL 6
REMARK VINA RESULT:      -6.9      2.682      6.688
REMARK  Name = 
REMARK  4 active torsions:
REMARK  status: ('A' for Active; 'I' for Inactive)
REMARK    1  A    between atoms: C_1  and  C_2
REMARK    2  A    between atoms: C_2  and  C_3
REMARK    3  A    between atoms: C_2  and  N_4
REMARK    4  A    between atoms: C_11  and  C_12
REMARK                            x       y       z     vdW  Elec       q    Type
REMARK                         _______ _______ _______ _____ _____    ______ ____
ROOT
ATOM      1  N   UNL     1       4.751   4.844  16.905  0.00  0.00    +0.000 N 
ATOM      2  C   UNL     1       4.691   3.455  16.985  0.00  0.00    +0.000 A 
ATOM      3  C   UNL     1       3.865   2.771  17.789  0.00  0.00    +0.000 A 
ATOM      4  C   UNL     1       2.931   3.515  18.667  0.00  0.00    +0.000 A 
ATOM      5  O   UNL     1       2.148   2.968  19.434  0.00  0.00    +0.000 OA
ATOM      6  N   UNL     1       3.012   4.911  18.530  0.00  0.00    +0.000 N 
ATOM      7  N   UNL     1       2.223   5.763  19.237  0.00  0.00    +0.000 NA
ATOM      8  C   UNL     1       2.546   6.982  18.779  0.00  0.00    +0.000 A 
ATOM      9  C   UNL     1       3.588   6.909  17.815  0.00  0.00    +0.000 A 
ATOM     10  C   UNL     1       3.875   5.574  17.670  0.00  0.00    +0.000 A 
ENDROOT
BRANCH   8  11
ATOM     11  C   UNL     1       1.872   8.191  19.254  0.00  0.00    +0.000 A 
ATOM     12  C   UNL     1       1.479   8.313  20.593  0.00  0.00    +0.000 A 
ATOM     13  C   UNL     1       0.850   9.478  21.044  0.00  0.00    +0.000 A 
ATOM     14  C   UNL     1       0.601  10.524  20.158  0.00  0.00    +0.000 A 
ATOM     15  C   UNL     1       0.973  10.409  18.820  0.00  0.00    +0.000 A 
ATOM     16  C   UNL     1       1.607   9.249  18.370  0.00  0.00    +0.000 A 
ENDBRANCH   8  11
BRANCH   1  18
ATOM     17  C   UNL     1       7.008   5.858  16.622  0.00  0.00    +0.000 C 
ATOM     18  C   UNL     1       5.656   5.561  15.971  0.00  0.00    +0.000 C 
ATOM     19  C   UNL     1       5.811   4.772  14.671  0.00  0.00    +0.000 C 
ENDBRANCH   1  18
TORSDOF 2
ENDMDL
MODEL 7
REMARK VINA RESULT:      -6.8      2.857      6.554
REMARK  Name = 
REMARK  4 active torsions:
REMARK  status: ('A' for Active; 'I' for Inactive)
REMARK    1  A    between atoms: C_1  and  C_2
REMARK    2  A    between atoms: C_2  and  C_3
REMARK    3  A    between atoms: C_2  and  N_4
REMARK    4  A    between atoms: C_11  and  C_12
REMARK                            x       y       z     vdW  Elec       q    Type
REMARK                         _______ _______ _______ _____ _____    ______ ____
ROOT
ATOM      1  N   UNL     1       4.835   4.330  18.316  0.00  0.00    +0.000 N 
ATOM      2  C   UNL     1       4.812   3.044  18.849  0.00  0.00    +0.000 A 
ATOM      3  C   UNL     1       3.985   2.633  19.820  0.00  0.00    +0.000 A 
ATOM      4  C   UNL     1       3.007   3.591  20.389  0.00  0.00    +0.000 A 
ATOM      5  O   UNL     1       2.219   3.300  21.281  0.00  0.00    +0.000 OA
ATOM      6  N   UNL     1       3.053   4.866  19.801  0.00  0.00    +0.000 N 
ATOM      7  N   UNL     1       2.222   5.876  20.174  0.00  0.00    +0.000 NA
ATOM      8  C   UNL     1       2.522   6.887  19.345  0.00  0.00    +0.000 A 
ATOM      9  C   UNL     1       3.591   6.537  18.476  0.00  0.00    +0.000 A 
ATOM     10  C   UNL     1       3.919   5.239  18.784  0.00  0.00    +0.000 A 
ENDROOT
BRANCH   8  11
ATOM     11  C   UNL     1       1.802   8.160  19.385  0.00  0.00    +0.000 A 
ATOM     12  C   UNL     1       1.713   8.969  18.245  0.00  0.00    +0.000 A 
ATOM     13  C   UNL     1       1.010  10.177  18.287  0.00  0.00    +0.000 A 
ATOM     14  C   UNL     1       0.399  10.588  19.469  0.00  0.00    +0.000 A 
ATOM     15  C   UNL     1       0.492   9.799  20.613  0.00  0.00    +0.000 A 
ATOM     16  C   UNL     1       1.189   8.590  20.572  0.00  0.00    +0.000 A 
ENDBRANCH   8  11
BRANCH   1  18
ATOM     17  C   UNL     1       7.211   4.627  17.632  0.00  0.00    +0.000 C 
ATOM     18  C   UNL     1       5.744   4.730  17.212  0.00  0.00    +0.000 C 
ATOM     19  C   UNL     1       5.451   3.908  15.957  0.00  0.00    +0.000 C 
ENDBRANCH   1  18
TORSDOF 2
ENDMDL
MODEL 8
REMARK VINA RESULT:      -6.8      1.747      1.994
REMARK  Name = 
REMARK  4 active torsions:
REMARK  status: ('A' for Active; 'I' for Inactive)
REMARK    1  A    between atoms: C_1  and  C_2
REMARK    2  A    between atoms: C_2  and  C_3
REMARK    3  A    between atoms: C_2  and  N_4
REMARK    4  A    between atoms: C_11  and  C_12
REMARK                            x       y       z     vdW  Elec       q    Type
REMARK                         _______ _______ _______ _____ _____    ______ ____
ROOT
ATOM      1  N   UNL     1       3.527   3.702  18.250  0.00  0.00    +0.000 N 
ATOM      2  C   UNL     1       3.810   4.059  19.566  0.00  0.00    +0.000 A 
ATOM      3  C   UNL     1       4.971   4.580  19.985  0.00  0.00    +0.000 A 
ATOM      4  C   UNL     1       6.056   4.811  19.001  0.00  0.00    +0.000 A 
ATOM      5  O   UNL     1       7.148   5.278  19.300  0.00  0.00    +0.000 OA
ATOM      6  N   UNL     1       5.714   4.459  17.685  0.00  0.00    +0.000 N 
ATOM      7  N   UNL     1       6.568   4.614  16.639  0.00  0.00    +0.000 NA
ATOM      8  C   UNL     1       5.858   4.241  15.563  0.00  0.00    +0.000 A 
ATOM      9  C   UNL     1       4.563   3.791  15.934  0.00  0.00    +0.000 A 
ATOM     10  C   UNL     1       4.489   3.936  17.297  0.00  0.00    +0.000 A 
ENDROOT
BRANCH   8  11
ATOM     11  C   UNL     1       6.410   4.312  14.209  0.00  0.00    +0.000 A 
ATOM     12  C   UNL     1       5.926   3.479  13.193  0.00  0.00    +0.000 A 
ATOM     13  C   UNL     1       6.447   3.564  11.899  0.00  0.00    +0.000 A 
ATOM     14  C   UNL     1       7.461   4.476  11.613  0.00  0.00    +0.000 A 
ATOM     15  C   UNL     1       7.961   5.302  12.618  0.00  0.00    +0.000 A 
ATOM     16  C   UNL     1       7.437   5.221  13.911  0.00  0.00    +0.000 A 
ENDBRANCH   8  11
BRANCH   1  18
ATOM     17  C   UNL     1       1.691   2.116  18.812  0.00  0.00    +0.000 C 
ATOM     18  C   UNL     1       2.211   3.162  17.825  0.00  0.00    +0.000 C 
ATOM     19  C   UNL     1       1.212   4.300  17.620  0.00  0.00    +0.000 C 
ENDBRANCH   1  18
TORSDOF 2
ENDMDL
MODEL 9
REMARK VINA RESULT:      -6.8      2.920      6.664
REMARK  Name = 
REMARK  4 active torsions:
REMARK  status: ('A' for Active; 'I' for Inactive)
REMARK    1  A    between atoms: C_1  and  C_2
REMARK    2  A    between atoms: C_2  and  C_3
REMARK    3  A    between atoms: C_2  and  N_4
REMARK    4  A    between atoms: C_11  and  C_12
REMARK                            x       y       z     vdW  Elec       q    Type
REMARK                         _______ _______ _______ _____ _____    ______ ____
ROOT
ATOM      1  N   UNL     1       4.697   4.360  18.435  0.00  0.00    +0.000 N 
ATOM      2  C   UNL     1       4.671   3.068  18.954  0.00  0.00    +0.000 A 
ATOM      3  C   UNL     1       3.851   2.652  19.929  0.00  0.00    +0.000 A 
ATOM      4  C   UNL     1       2.886   3.611  20.519  0.00  0.00    +0.000 A 
ATOM      5  O   UNL     1       2.106   3.315  21.416  0.00  0.00    +0.000 OA
ATOM      6  N   UNL     1       2.933   4.892  19.945  0.00  0.00    +0.000 N 
ATOM      7  N   UNL     1       2.113   5.902  20.338  0.00  0.00    +0.000 NA
ATOM      8  C   UNL     1       2.411   6.920  19.517  0.00  0.00    +0.000 A 
ATOM      9  C   UNL     1       3.468   6.573  18.632  0.00  0.00    +0.000 A 
ATOM     10  C   UNL     1       3.791   5.271  18.923  0.00  0.00    +0.000 A 
ENDROOT
BRANCH   8  11
ATOM     11  C   UNL     1       1.700   8.198  19.578  0.00  0.00    +0.000 A 
ATOM     12  C   UNL     1       1.077   8.615  20.761  0.00  0.00    +0.000 A 
ATOM     13  C   UNL     1       0.413   9.844  20.816  0.00  0.00    +0.000 A 
ATOM     14  C   UNL     1       0.359  10.660  19.688  0.00  0.00    +0.000 A 
ATOM     15  C   UNL     1       0.964  10.251  18.502  0.00  0.00    +0.000 A 
ATOM     16  C   UNL     1       1.632   9.025  18.447  0.00  0.00    +0.000 A 
ENDBRANCH   8  11
BRANCH   1  18
ATOM     17  C   UNL     1       7.067   4.597  17.710  0.00  0.00    +0.000 C 
ATOM     18  C   UNL     1       5.596   4.767  17.326  0.00  0.00    +0.000 C 
ATOM     19  C   UNL     1       5.248   4.000  16.050  0.00  0.00    +0.000 C 
ENDBRANCH   1  18
TORSDOF 2
ENDMDL
