MODEL 1
REMARK VINA RESULT:      -7.8      0.000      0.000
REMARK  Name = 
REMARK  8 active torsions:
REMARK  status: ('A' for Active; 'I' for Inactive)
REMARK    1  A    between atoms: C_1  and  C_2
REMARK    2  A    between atoms: C_2  and  O_3
REMARK    3  A    between atoms: O_3  and  C_4
REMARK    4  A    between atoms: N_11  and  C_12
REMARK    5  A    between atoms: C_12  and  C_13
REMARK    6  A    between atoms: C_22  and  O_23
REMARK    7  A    between atoms: O_23  and  C_24
REMARK    8  A    between atoms: C_24  and  C_25
REMARK                            x       y       z     vdW  Elec       q    Type
REMARK                         _______ _______ _______ _____ _____    ______ ____
ROOT
ATOM      1  C   UNL     1       5.938   4.652  15.894  0.00  0.00    +0.000 A 
ATOM      2  C   UNL     1       4.818   3.834  16.133  0.00  0.00    +0.000 A 
ATOM      3  C   UNL     1       3.884   4.103  17.123  0.00  0.00    +0.000 A 
ATOM      4  N   UNL     1       2.816   3.303  17.197  0.00  0.00    +0.000 NA
ATOM      5  C   UNL     1       1.891   3.633  18.100  0.00  0.00    +0.000 A 
ATOM      6  N   UNL     1       1.946   4.674  18.939  0.00  0.00    +0.000 NA
ATOM      7  C   UNL     1       3.043   5.455  18.870  0.00  0.00    +0.000 A 
ATOM      8  N   UNL     1       3.092   6.607  19.659  0.00  0.00    +0.000 N 
ATOM      9  C   UNL     1       4.078   5.211  17.948  0.00  0.00    +0.000 A 
ATOM     10  C   UNL     1       5.238   6.001  17.766  0.00  0.00    +0.000 A 
ATOM     11  C   UNL     1       6.172   5.727  16.757  0.00  0.00    +0.000 A 
ATOM     12  H   UNL     1       3.949   6.680  20.192  0.00  0.00    +0.000 HD
ENDROOT
BRANCH   1  13
ATOM     13  O   UNL     1       6.777   4.421  14.829  0.00  0.00    +0.000 OA
BRANCH  13  15
ATOM     14  C   UNL     1       6.963   4.112  12.429  0.00  0.00    +0.000 C 
ATOM     15  C   UNL     1       6.151   3.831  13.680  0.00  0.00    +0.000 C 
ENDBRANCH  13  15
ENDBRANCH   1  13
BRANCH   8  16
ATOM     16  C   UNL     1       1.894   7.024  20.365  0.00  0.00    +0.000 C 
BRANCH  16  17
ATOM     17  C   UNL     1       1.484   8.402  19.884  0.00  0.00    +0.000 A 
ATOM     18  C   UNL     1       0.787   9.277  20.738  0.00  0.00    +0.000 A 
ATOM     19  C   UNL     1       0.417  10.550  20.309  0.00  0.00    +0.000 A 
ATOM     20  C   UNL     1       0.751  10.958  19.025  0.00  0.00    +0.000 A 
ATOM     21  F   UNL     1       0.402  12.183  18.612  0.00  0.00    +0.000 F 
ATOM     22  C   UNL     1       1.447  10.117  18.165  0.00  0.00    +0.000 A 
ATOM     23  C   UNL     1       1.815   8.838  18.593  0.00  0.00    +0.000 A 
ENDBRANCH  16  17
ENDBRANCH   8  16
BRANCH  11  24
ATOM     24  O   UNL     1       7.167   6.663  16.710  0.00  0.00    +0.000 OA
BRANCH  24  25
ATOM     25  C   UNL     1       7.702   7.148  17.937  0.00  0.00    +0.000 C 
ATOM     26  C   UNL     1       8.034   8.624  17.743  0.00  0.00    +0.000 C 
ENDBRANCH  24  25
ENDBRANCH  11  24
TORSDOF 6
ENDMDL
MODEL 2
REMARK VINA RESULT:      -7.7      0.291      1.008
REMARK  Name = 
REMARK  8 active torsions:
REMARK  status: ('A' for Active; 'I' for Inactive)
REMARK    1  A    between atoms: C_1  and  C_2
REMARK    2  A    between atoms: C_2  and  O_3
REMARK    3  A    between atoms: O_3  and  C_4
REMARK    4  A    between atoms: N_11  and  C_12
REMARK    5  A    between atoms: C_12  and  C_13
REMARK    6  A    between atoms: C_22  and  O_23
REMARK    7  A    between atoms: O_23  and  C_24
REMARK    8  A    between atoms: C_24  and  C_25
REMARK                            x       y       z     vdW  Elec       q    Type
REMARK                         _______ _______ _______ _____ _____    ______ ____
ROOT
ATOM      1  C   UNL     1       5.696   4.772  15.872  0.00  0.00    +0.000 A 
ATOM      2  C   UNL     1       4.618   3.925  16.187  0.00  0.00    +0.000 A 
ATOM      3  C   UNL     1       3.735   4.180  17.226  0.00  0.00    +0.000 A 
ATOM      4  N   UNL     1       2.698   3.349  17.373  0.00  0.00    +0.000 NA
ATOM      5  C   UNL     1       1.817   3.664  18.324  0.00  0.00    +0.000 A 
ATOM      6  N   UNL     1       1.889   4.718  19.145  0.00  0.00    +0.000 NA
ATOM      7  C   UNL     1       2.956   5.530  19.003  0.00  0.00    +0.000 A 
ATOM      8  N   UNL     1       3.016   6.695  19.773  0.00  0.00    +0.000 N 
ATOM      9  C   UNL     1       3.943   5.305  18.025  0.00  0.00    +0.000 A 
ATOM     10  C   UNL     1       5.066   6.126  17.766  0.00  0.00    +0.000 A 
ATOM     11  C   UNL     1       5.947   5.866  16.707  0.00  0.00    +0.000 A 
ATOM     12  H   UNL     1       3.900   6.800  20.255  0.00  0.00    +0.000 HD
ENDROOT
BRANCH   1  13
ATOM     13  O   UNL     1       6.479   4.552  14.763  0.00  0.00    +0.000 OA
BRANCH  13  15
ATOM     14  C   UNL     1       6.744   3.794  12.473  0.00  0.00    +0.000 C 
ATOM     15  C   UNL     1       5.796   3.966  13.645  0.00  0.00    +0.000 C 
ENDBRANCH  13  15
ENDBRANCH   1  13
BRANCH   8  16
ATOM     16  C   UNL     1       1.848   7.085  20.543  0.00  0.00    +0.000 C 
BRANCH  16  17
ATOM     17  C   UNL     1       1.327   8.409  20.023  0.00  0.00    +0.000 A 
ATOM     18  C   UNL     1       1.681   8.860  18.737  0.00  0.00    +0.000 A 
ATOM     19  C   UNL     1       1.197  10.070  18.246  0.00  0.00    +0.000 A 
ATOM     20  C   UNL     1       0.347  10.833  19.034  0.00  0.00    +0.000 A 
ATOM     21  F   UNL     1      -0.125  11.994  18.562  0.00  0.00    +0.000 F 
ATOM     22  C   UNL     1      -0.025  10.407  20.303  0.00  0.00    +0.000 A 
ATOM     23  C   UNL     1       0.463   9.195  20.800  0.00  0.00    +0.000 A 
ENDBRANCH  16  17
ENDBRANCH   8  16
BRANCH  11  24
ATOM     24  O   UNL     1       6.909   6.831  16.591  0.00  0.00    +0.000 OA
BRANCH  24  25
ATOM     25  C   UNL     1       7.653   7.191  17.750  0.00  0.00    +0.000 C 
ATOM     26  C   UNL     1       7.927   8.689  17.672  0.00  0.00    +0.000 C 
ENDBRANCH  24  25
ENDBRANCH  11  24
TORSDOF 6
ENDMDL
MODEL 3
REMARK VINA RESULT:      -7.6      0.994      1.439
REMARK  Name = 
REMARK  8 active torsions:
REMARK  status: ('A' for Active; 'I' for Inactive)
REMARK    1  A    between atoms: C_1  and  C_2
REMARK    2  A    between atoms: C_2  and  O_3
REMARK    3  A    between atoms: O_3  and  C_4
REMARK    4  A    between atoms: N_11  and  C_12
REMARK    5  A    between atoms: C_12  and  C_13
REMARK    6  A    between atoms: C_22  and  O_23
REMARK    7  A    between atoms: O_23  and  C_24
REMARK    8  A    between atoms: C_24  and  C_25
REMARK                            x       y       z     vdW  Elec       q    Type
REMARK                         _______ _______ _______ _____ _____    ______ ____
ROOT
ATOM      1  C   UNL     1       6.549   5.355  16.117  0.00  0.00    +0.000 A 
ATOM      2  C   UNL     1       5.700   4.257  16.344  0.00  0.00    +0.000 A 
ATOM      3  C   UNL     1       4.697   4.262  17.302  0.00  0.00    +0.000 A 
ATOM      4  N   UNL     1       3.896   3.194  17.365  0.00  0.00    +0.000 NA
ATOM      5  C   UNL     1       2.888   3.259  18.235  0.00  0.00    +0.000 A 
ATOM      6  N   UNL     1       2.620   4.284  19.054  0.00  0.00    +0.000 NA
ATOM      7  C   UNL     1       3.454   5.342  18.998  0.00  0.00    +0.000 A 
ATOM      8  N   UNL     1       3.150   6.471  19.764  0.00  0.00    +0.000 N 
ATOM      9  C   UNL     1       4.544   5.390  18.110  0.00  0.00    +0.000 A 
ATOM     10  C   UNL     1       5.439   6.473  17.943  0.00  0.00    +0.000 A 
ATOM     11  C   UNL     1       6.443   6.463  16.964  0.00  0.00    +0.000 A 
ATOM     12  H   UNL     1       3.935   6.789  20.319  0.00  0.00    +0.000 HD
ENDROOT
BRANCH   1  13
ATOM     13  O   UNL     1       7.453   5.358  15.080  0.00  0.00    +0.000 OA
BRANCH  13  15
ATOM     14  C   UNL     1       7.802   5.165  12.687  0.00  0.00    +0.000 C 
ATOM     15  C   UNL     1       7.014   4.685  13.892  0.00  0.00    +0.000 C 
ENDBRANCH  13  15
ENDBRANCH   1  13
BRANCH   8  16
ATOM     16  C   UNL     1       1.861   6.540  20.430  0.00  0.00    +0.000 C 
BRANCH  16  17
ATOM     17  C   UNL     1       1.432   7.989  20.537  0.00  0.00    +0.000 A 
ATOM     18  C   UNL     1       1.406   8.812  19.395  0.00  0.00    +0.000 A 
ATOM     19  C   UNL     1       1.001  10.142  19.482  0.00  0.00    +0.000 A 
ATOM     20  C   UNL     1       0.610  10.655  20.711  0.00  0.00    +0.000 A 
ATOM     21  F   UNL     1       0.215  11.932  20.797  0.00  0.00    +0.000 F 
ATOM     22  C   UNL     1       0.620   9.862  21.853  0.00  0.00    +0.000 A 
ATOM     23  C   UNL     1       1.029   8.528  21.768  0.00  0.00    +0.000 A 
ENDBRANCH  16  17
ENDBRANCH   8  16
BRANCH  11  24
ATOM     24  O   UNL     1       7.134   7.642  16.926  0.00  0.00    +0.000 OA
BRANCH  24  25
ATOM     25  C   UNL     1       8.053   7.926  17.975  0.00  0.00    +0.000 C 
ATOM     26  C   UNL     1       8.269   9.435  17.999  0.00  0.00    +0.000 C 
ENDBRANCH  24  25
ENDBRANCH  11  24
TORSDOF 6
ENDMDL
MODEL 4
REMARK VINA RESULT:      -7.6      1.054      1.550
REMARK  Name = 
REMARK  8 active torsions:
REMARK  status: ('A' for Active; 'I' for Inactive)
REMARK    1  A    between atoms: C_1  and  C_2
REMARK    2  A    between atoms: C_2  and  O_3
REMARK    3  A    between atoms: O_3  and  C_4
REMARK    4  A    between atoms: N_11  and  C_12
REMARK    5  A    between atoms: C_12  and  C_13
REMARK    6  A    between atoms: C_22  and  O_23
REMARK    7  A    between atoms: O_23  and  C_24
REMARK    8  A    between atoms: C_24  and  C_25
REMARK                            x       y       z     vdW  Elec       q    Type
REMARK                         _______ _______ _______ _____ _____    ______ ____
ROOT
ATOM      1  C   UNL     1       5.012   4.342  16.858  0.00  0.00    +0.000 A 
ATOM      2  C   UNL     1       4.036   3.556  17.496  0.00  0.00    +0.000 A 
ATOM      3  C   UNL     1       3.205   4.044  18.494  0.00  0.00    +0.000 A 
ATOM      4  N   UNL     1       2.257   3.227  18.963  0.00  0.00    +0.000 NA
ATOM      5  C   UNL     1       1.418   3.748  19.860  0.00  0.00    +0.000 A 
ATOM      6  N   UNL     1       1.451   4.998  20.336  0.00  0.00    +0.000 NA
ATOM      7  C   UNL     1       2.431   5.800  19.874  0.00  0.00    +0.000 A 
ATOM      8  N   UNL     1       2.439   7.140  20.271  0.00  0.00    +0.000 N 
ATOM      9  C   UNL     1       3.366   5.364  18.917  0.00  0.00    +0.000 A 
ATOM     10  C   UNL     1       4.393   6.145  18.335  0.00  0.00    +0.000 A 
ATOM     11  C   UNL     1       5.221   5.645  17.320  0.00  0.00    +0.000 A 
ATOM     12  H   UNL     1       3.341   7.439  20.621  0.00  0.00    +0.000 HD
ENDROOT
BRANCH   1  13
ATOM     13  O   UNL     1       5.736   3.859  15.792  0.00  0.00    +0.000 OA
BRANCH  13  15
ATOM     14  C   UNL     1       6.260   3.840  13.423  0.00  0.00    +0.000 C 
ATOM     15  C   UNL     1       5.443   4.478  14.531  0.00  0.00    +0.000 C 
ENDBRANCH  13  15
ENDBRANCH   1  13
BRANCH   8  16
ATOM     16  C   UNL     1       1.296   7.662  20.999  0.00  0.00    +0.000 C 
BRANCH  16  17
ATOM     17  C   UNL     1       0.843   8.956  20.354  0.00  0.00    +0.000 A 
ATOM     18  C   UNL     1       1.269   9.295  19.056  0.00  0.00    +0.000 A 
ATOM     19  C   UNL     1       0.848  10.477  18.452  0.00  0.00    +0.000 A 
ATOM     20  C   UNL     1      -0.011  11.323  19.138  0.00  0.00    +0.000 A 
ATOM     21  F   UNL     1      -0.423  12.458  18.557  0.00  0.00    +0.000 F 
ATOM     22  C   UNL     1      -0.454  11.009  20.417  0.00  0.00    +0.000 A 
ATOM     23  C   UNL     1      -0.029   9.825  21.027  0.00  0.00    +0.000 A 
ENDBRANCH  16  17
ENDBRANCH   8  16
BRANCH  11  24
ATOM     24  O   UNL     1       6.084   6.595  16.848  0.00  0.00    +0.000 OA
BRANCH  24  25
ATOM     25  C   UNL     1       7.410   6.624  17.364  0.00  0.00    +0.000 C 
ATOM     26  C   UNL     1       7.767   8.083  17.631  0.00  0.00    +0.000 C 
ENDBRANCH  24  25
ENDBRANCH  11  24
TORSDOF 6
ENDMDL
MODEL 5
REMARK VINA RESULT:      -7.1      1.223      1.553
REMARK  Name = 
REMARK  8 active torsions:
REMARK  status: ('A' for Active; 'I' for Inactive)
REMARK    1  A    between atoms: C_1  and  C_2
REMARK    2  A    between atoms: C_2  and  O_3
REMARK    3  A    between atoms: O_3  and  C_4
REMARK    4  A    between atoms: N_11  and  C_12
REMARK    5  A    between atoms: C_12  and  C_13
REMARK    6  A    between atoms: C_22  and  O_23
REMARK    7  A    between atoms: O_23  and  C_24
REMARK    8  A    between atoms: C_24  and  C_25
REMARK                            x       y       z     vdW  Elec       q    Type
REMARK                         _______ _______ _______ _____ _____    ______ ____
ROOT
ATOM      1  C   UNL     1       4.816   4.152  17.033  0.00  0.00    +0.000 A 
ATOM      2  C   UNL     1       3.800   3.419  17.672  0.00  0.00    +0.000 A 
ATOM      3  C   UNL     1       2.979   3.959  18.651  0.00  0.00    +0.000 A 
ATOM      4  N   UNL     1       1.992   3.191  19.122  0.00  0.00    +0.000 NA
ATOM      5  C   UNL     1       1.165   3.762  19.999  0.00  0.00    +0.000 A 
ATOM      6  N   UNL     1       1.246   5.018  20.456  0.00  0.00    +0.000 NA
ATOM      7  C   UNL     1       2.264   5.770  19.992  0.00  0.00    +0.000 A 
ATOM      8  N   UNL     1       2.325   7.115  20.367  0.00  0.00    +0.000 N 
ATOM      9  C   UNL     1       3.191   5.278  19.054  0.00  0.00    +0.000 A 
ATOM     10  C   UNL     1       4.257   6.005  18.472  0.00  0.00    +0.000 A 
ATOM     11  C   UNL     1       5.075   5.454  17.475  0.00  0.00    +0.000 A 
ATOM     12  H   UNL     1       3.234   7.381  20.723  0.00  0.00    +0.000 HD
ENDROOT
BRANCH   1  13
ATOM     13  O   UNL     1       5.531   3.621  15.984  0.00  0.00    +0.000 OA
BRANCH  13  15
ATOM     14  C   UNL     1       6.705   4.488  14.046  0.00  0.00    +0.000 C 
ATOM     15  C   UNL     1       5.364   4.301  14.731  0.00  0.00    +0.000 C 
ENDBRANCH  13  15
ENDBRANCH   1  13
BRANCH   8  16
ATOM     16  C   UNL     1       1.196   7.697  21.071  0.00  0.00    +0.000 C 
BRANCH  16  17
ATOM     17  C   UNL     1       0.944   9.094  20.542  0.00  0.00    +0.000 A 
ATOM     18  C   UNL     1       0.529  10.122  21.410  0.00  0.00    +0.000 A 
ATOM     19  C   UNL     1       0.306  11.412  20.934  0.00  0.00    +0.000 A 
ATOM     20  C   UNL     1       0.506  11.685  19.588  0.00  0.00    +0.000 A 
ATOM     21  F   UNL     1       0.298  12.925  19.129  0.00  0.00    +0.000 F 
ATOM     22  C   UNL     1       0.923  10.690  18.711  0.00  0.00    +0.000 A 
ATOM     23  C   UNL     1       1.143   9.394  19.186  0.00  0.00    +0.000 A 
ENDBRANCH  16  17
ENDBRANCH   8  16
BRANCH  11  24
ATOM     24  O   UNL     1       5.983   6.357  16.998  0.00  0.00    +0.000 OA
BRANCH  24  25
ATOM     25  C   UNL     1       7.142   6.631  17.777  0.00  0.00    +0.000 C 
ATOM     26  C   UNL     1       7.708   5.294  18.244  0.00  0.00    +0.000 C 
ENDBRANCH  24  25
ENDBRANCH  11  24
TORSDOF 6
ENDMDL
MODEL 6
REMARK VINA RESULT:      -7.0      5.092      9.211
REMARK  Name = 
REMARK  8 active torsions:
REMARK  status: ('A' for Active; 'I' for Inactive)
REMARK    1  A    between atoms: C_1  and  C_2
REMARK    2  A    between atoms: C_2  and  O_3
REMARK    3  A    between atoms: O_3  and  C_4
REMARK    4  A    between atoms: N_11  and  C_12
REMARK    5  A    between atoms: C_12  and  C_13
REMARK    6  A    between atoms: C_22  and  O_23
REMARK    7  A    between atoms: O_23  and  C_24
REMARK    8  A    between atoms: C_24  and  C_25
REMARK                            x       y       z     vdW  Elec       q    Type
REMARK                         _______ _______ _______ _____ _____    ______ ____
ROOT
ATOM      1  C   UNL     1      -1.726  12.259  20.319  0.00  0.00    +0.000 A 
ATOM      2  C   UNL     1      -1.226  11.772  21.540  0.00  0.00    +0.000 A 
ATOM      3  C   UNL     1      -0.400  10.661  21.630  0.00  0.00    +0.000 A 
ATOM      4  N   UNL     1       0.083  10.345  22.835  0.00  0.00    +0.000 NA
ATOM      5  C   UNL     1       0.942   9.326  22.881  0.00  0.00    +0.000 A 
ATOM      6  N   UNL     1       1.346   8.589  21.839  0.00  0.00    +0.000 NA
ATOM      7  C   UNL     1       0.827   8.902  20.634  0.00  0.00    +0.000 A 
ATOM      8  N   UNL     1       1.298   8.223  19.508  0.00  0.00    +0.000 N 
ATOM      9  C   UNL     1      -0.078   9.966  20.462  0.00  0.00    +0.000 A 
ATOM     10  C   UNL     1      -0.634  10.402  19.236  0.00  0.00    +0.000 A 
ATOM     11  C   UNL     1      -1.459  11.532  19.155  0.00  0.00    +0.000 A 
ATOM     12  H   UNL     1       0.552   7.850  18.935  0.00  0.00    +0.000 HD
ENDROOT
BRANCH   1  13
ATOM     13  O   UNL     1      -2.444  13.431  20.257  0.00  0.00    +0.000 OA
BRANCH  13  15
ATOM     14  C   UNL     1      -4.829  13.072  19.998  0.00  0.00    +0.000 C 
ATOM     15  C   UNL     1      -3.699  13.410  20.952  0.00  0.00    +0.000 C 
ENDBRANCH  13  15
ENDBRANCH   1  13
BRANCH   8  16
ATOM     16  C   UNL     1       2.456   7.356  19.646  0.00  0.00    +0.000 C 
BRANCH  16  17
ATOM     17  C   UNL     1       2.033   5.919  19.416  0.00  0.00    +0.000 A 
ATOM     18  C   UNL     1       2.152   5.336  18.141  0.00  0.00    +0.000 A 
ATOM     19  C   UNL     1       1.778   4.012  17.923  0.00  0.00    +0.000 A 
ATOM     20  C   UNL     1       1.291   3.259  18.983  0.00  0.00    +0.000 A 
ATOM     21  F   UNL     1       0.936   1.984  18.778  0.00  0.00    +0.000 F 
ATOM     22  C   UNL     1       1.172   3.809  20.254  0.00  0.00    +0.000 A 
ATOM     23  C   UNL     1       1.543   5.138  20.473  0.00  0.00    +0.000 A 
ENDBRANCH  16  17
ENDBRANCH   8  16
BRANCH  11  24
ATOM     24  O   UNL     1      -1.813  11.817  17.865  0.00  0.00    +0.000 OA
BRANCH  24  25
ATOM     25  C   UNL     1      -2.988  11.214  17.333  0.00  0.00    +0.000 C 
ATOM     26  C   UNL     1      -2.579  10.429  16.092  0.00  0.00    +0.000 C 
ENDBRANCH  24  25
ENDBRANCH  11  24
TORSDOF 6
ENDMDL
MODEL 7
REMARK VINA RESULT:      -6.9      5.425      9.391
REMARK  Name = 
REMARK  8 active torsions:
REMARK  status: ('A' for Active; 'I' for Inactive)
REMARK    1  A    between atoms: C_1  and  C_2
REMARK    2  A    between atoms: C_2  and  O_3
REMARK    3  A    between atoms: O_3  and  C_4
REMARK    4  A    between atoms: N_11  and  C_12
REMARK    5  A    between atoms: C_12  and  C_13
REMARK    6  A    between atoms: C_22  and  O_23
REMARK    7  A    between atoms: O_23  and  C_24
REMARK    8  A    between atoms: C_24  and  C_25
REMARK                            x       y       z     vdW  Elec       q    Type
REMARK                         _______ _______ _______ _____ _____    ______ ____
ROOT
ATOM      1  C   UNL     1      -3.562  11.388  17.636  0.00  0.00    +0.000 A 
ATOM      2  C   UNL     1      -2.830  11.824  18.755  0.00  0.00    +0.000 A 
ATOM      3  C   UNL     1      -1.555  11.365  19.051  0.00  0.00    +0.000 A 
ATOM      4  N   UNL     1      -0.925  11.917  20.092  0.00  0.00    +0.000 NA
ATOM      5  C   UNL     1       0.331  11.521  20.302  0.00  0.00    +0.000 A 
ATOM      6  N   UNL     1       1.002  10.615  19.581  0.00  0.00    +0.000 NA
ATOM      7  C   UNL     1       0.342  10.046  18.552  0.00  0.00    +0.000 A 
ATOM      8  N   UNL     1       1.040   9.172  17.714  0.00  0.00    +0.000 N 
ATOM      9  C   UNL     1      -0.981  10.396  18.226  0.00  0.00    +0.000 A 
ATOM     10  C   UNL     1      -1.735   9.895  17.139  0.00  0.00    +0.000 A 
ATOM     11  C   UNL     1      -3.019  10.372  16.842  0.00  0.00    +0.000 A 
ATOM     12  H   UNL     1       0.557   8.293  17.576  0.00  0.00    +0.000 HD
ENDROOT
BRANCH   1  13
ATOM     13  O   UNL     1      -4.773  11.952  17.309  0.00  0.00    +0.000 OA
BRANCH  13  15
ATOM     14  C   UNL     1      -7.064  11.885  18.105  0.00  0.00    +0.000 C 
ATOM     15  C   UNL     1      -5.626  12.247  18.425  0.00  0.00    +0.000 C 
ENDBRANCH  13  15
ENDBRANCH   1  13
BRANCH   8  16
ATOM     16  C   UNL     1       2.481   9.062  17.860  0.00  0.00    +0.000 C 
BRANCH  16  17
ATOM     17  C   UNL     1       2.836   7.641  18.247  0.00  0.00    +0.000 A 
ATOM     18  C   UNL     1       3.777   6.911  17.496  0.00  0.00    +0.000 A 
ATOM     19  C   UNL     1       4.119   5.608  17.851  0.00  0.00    +0.000 A 
ATOM     20  C   UNL     1       3.530   5.030  18.967  0.00  0.00    +0.000 A 
ATOM     21  F   UNL     1       3.861   3.780  19.315  0.00  0.00    +0.000 F 
ATOM     22  C   UNL     1       2.604   5.732  19.731  0.00  0.00    +0.000 A 
ATOM     23  C   UNL     1       2.257   7.037  19.373  0.00  0.00    +0.000 A 
ENDBRANCH  16  17
ENDBRANCH   8  16
BRANCH  11  24
ATOM     24  O   UNL     1      -3.526   9.810  15.704  0.00  0.00    +0.000 OA
BRANCH  24  25
ATOM     25  C   UNL     1      -2.965  10.186  14.451  0.00  0.00    +0.000 C 
ATOM     26  C   UNL     1      -4.017   9.925  13.379  0.00  0.00    +0.000 C 
ENDBRANCH  24  25
ENDBRANCH  11  24
TORSDOF 6
ENDMDL
MODEL 8
REMARK VINA RESULT:      -6.9      3.456      7.479
REMARK  Name = 
REMARK  8 active torsions:
REMARK  status: ('A' for Active; 'I' for Inactive)
REMARK    1  A    between atoms: C_1  and  C_2
REMARK    2  A    between atoms: C_2  and  O_3
REMARK    3  A    between atoms: O_3  and  C_4
REMARK    4  A    between atoms: N_11  and  C_12
REMARK    5  A    between atoms: C_12  and  C_13
REMARK    6  A    between atoms: C_22  and  O_23
REMARK    7  A    between atoms: O_23  and  C_24
REMARK    8  A    between atoms: C_24  and  C_25
REMARK                            x       y       z     vdW  Elec       q    Type
REMARK                         _______ _______ _______ _____ _____    ______ ____
ROOT
ATOM      1  C   UNL     1       1.616   7.656  20.539  0.00  0.00    +0.000 A 
ATOM      2  C   UNL     1       1.627   6.343  21.041  0.00  0.00    +0.000 A 
ATOM      3  C   UNL     1       2.130   5.265  20.327  0.00  0.00    +0.000 A 
ATOM      4  N   UNL     1       2.166   4.079  20.942  0.00  0.00    +0.000 NA
ATOM      5  C   UNL     1       2.733   3.078  20.266  0.00  0.00    +0.000 A 
ATOM      6  N   UNL     1       3.247   3.153  19.033  0.00  0.00    +0.000 NA
ATOM      7  C   UNL     1       3.176   4.349  18.415  0.00  0.00    +0.000 A 
ATOM      8  N   UNL     1       3.790   4.493  17.168  0.00  0.00    +0.000 N 
ATOM      9  C   UNL     1       2.612   5.480  19.035  0.00  0.00    +0.000 A 
ATOM     10  C   UNL     1       2.540   6.783  18.490  0.00  0.00    +0.000 A 
ATOM     11  C   UNL     1       2.040   7.869  19.223  0.00  0.00    +0.000 A 
ATOM     12  H   UNL     1       3.176   4.901  16.474  0.00  0.00    +0.000 HD
ENDROOT
BRANCH   1  13
ATOM     13  O   UNL     1       1.220   8.718  21.320  0.00  0.00    +0.000 OA
BRANCH  13  15
ATOM     14  C   UNL     1      -0.442   9.502  22.904  0.00  0.00    +0.000 C 
ATOM     15  C   UNL     1      -0.187   8.773  21.598  0.00  0.00    +0.000 C 
ENDBRANCH  13  15
ENDBRANCH   1  13
BRANCH   8  16
ATOM     16  C   UNL     1       4.641   3.423  16.678  0.00  0.00    +0.000 C 
BRANCH  16  17
ATOM     17  C   UNL     1       5.592   3.977  15.638  0.00  0.00    +0.000 A 
ATOM     18  C   UNL     1       6.634   4.845  16.014  0.00  0.00    +0.000 A 
ATOM     19  C   UNL     1       7.521   5.350  15.066  0.00  0.00    +0.000 A 
ATOM     20  C   UNL     1       7.377   4.982  13.736  0.00  0.00    +0.000 A 
ATOM     21  F   UNL     1       8.231   5.462  12.823  0.00  0.00    +0.000 F 
ATOM     22  C   UNL     1       6.361   4.121  13.339  0.00  0.00    +0.000 A 
ATOM     23  C   UNL     1       5.468   3.616  14.288  0.00  0.00    +0.000 A 
ENDBRANCH  16  17
ENDBRANCH   8  16
BRANCH  11  24
ATOM     24  O   UNL     1       2.141   9.045  18.533  0.00  0.00    +0.000 OA
BRANCH  24  25
ATOM     25  C   UNL     1       0.950   9.648  18.040  0.00  0.00    +0.000 C 
ATOM     26  C   UNL     1       0.818  11.014  18.706  0.00  0.00    +0.000 C 
ENDBRANCH  24  25
ENDBRANCH  11  24
TORSDOF 6
ENDMDL
MODEL 9
REMARK VINA RESULT:      -6.8      5.100      9.265
REMARK  Name = 
REMARK  8 active torsions:
REMARK  status: ('A' for Active; 'I' for Inactive)
REMARK    1  A    between atoms: C_1  and  C_2
REMARK    2  A    between atoms: C_2  and  O_3
REMARK    3  A    between atoms: O_3  and  C_4
REMARK    4  A    between atoms: N_11  and  C_12
REMARK    5  A    between atoms: C_12  and  C_13
REMARK    6  A    between atoms: C_22  and  O_23
REMARK    7  A    between atoms: O_23  and  C_24
REMARK    8  A    between atoms: C_24  and  C_25
REMARK                            x       y       z     vdW  Elec       q    Type
REMARK                         _______ _______ _______ _____ _____    ______ ____
ROOT
ATOM      1  C   UNL     1      -1.745  12.242  20.409  0.00  0.00    +0.000 A 
ATOM      2  C   UNL     1      -1.217  11.750  21.616  0.00  0.00    +0.000 A 
ATOM      3  C   UNL     1      -0.377  10.648  21.681  0.00  0.00    +0.000 A 
ATOM      4  N   UNL     1       0.132  10.328  22.874  0.00  0.00    +0.000 NA
ATOM      5  C   UNL     1       1.004   9.318  22.895  0.00  0.00    +0.000 A 
ATOM      6  N   UNL     1       1.396   8.595  21.839  0.00  0.00    +0.000 NA
ATOM      7  C   UNL     1       0.851   8.912  20.647  0.00  0.00    +0.000 A 
ATOM      8  N   UNL     1       1.309   8.248  19.506  0.00  0.00    +0.000 N 
ATOM      9  C   UNL     1      -0.069   9.967  20.501  0.00  0.00    +0.000 A 
ATOM     10  C   UNL     1      -0.652  10.406  19.290  0.00  0.00    +0.000 A 
ATOM     11  C   UNL     1      -1.492  11.528  19.233  0.00  0.00    +0.000 A 
ATOM     12  H   UNL     1       0.557   7.871  18.944  0.00  0.00    +0.000 HD
ENDROOT
BRANCH   1  13
ATOM     13  O   UNL     1      -2.478  13.406  20.370  0.00  0.00    +0.000 OA
BRANCH  13  15
ATOM     14  C   UNL     1      -4.433  13.893  21.721  0.00  0.00    +0.000 C 
ATOM     15  C   UNL     1      -3.899  13.231  20.465  0.00  0.00    +0.000 C 
ENDBRANCH  13  15
ENDBRANCH   1  13
BRANCH   8  16
ATOM     16  C   UNL     1       2.479   7.394  19.615  0.00  0.00    +0.000 C 
BRANCH  16  17
ATOM     17  C   UNL     1       2.067   5.952  19.394  0.00  0.00    +0.000 A 
ATOM     18  C   UNL     1       1.564   5.182  20.460  0.00  0.00    +0.000 A 
ATOM     19  C   UNL     1       1.171   3.861  20.263  0.00  0.00    +0.000 A 
ATOM     20  C   UNL     1       1.269   3.303  18.996  0.00  0.00    +0.000 A 
ATOM     21  F   UNL     1       0.887   2.034  18.802  0.00  0.00    +0.000 F 
ATOM     22  C   UNL     1       1.755   4.044  17.924  0.00  0.00    +0.000 A 
ATOM     23  C   UNL     1       2.153   5.369  18.121  0.00  0.00    +0.000 A 
ENDBRANCH  16  17
ENDBRANCH   8  16
BRANCH  11  24
ATOM     24  O   UNL     1      -1.873  11.820  17.953  0.00  0.00    +0.000 OA
BRANCH  24  25
ATOM     25  C   UNL     1      -2.444  10.784  17.161  0.00  0.00    +0.000 C 
ATOM     26  C   UNL     1      -3.871  11.201  16.820  0.00  0.00    +0.000 C 
ENDBRANCH  24  25
ENDBRANCH  11  24
TORSDOF 6
ENDMDL
