MODEL 1
REMARK VINA RESULT:      -7.2      0.000      0.000
REMARK  Name = 
REMARK  3 active torsions:
REMARK  status: ('A' for Active; 'I' for Inactive)
REMARK    1  A    between atoms: S_2  and  N_4
REMARK    2  A    between atoms: S_2  and  C_15
REMARK    3  A    between atoms: N_4  and  C_5
REMARK                            x       y       z     vdW  Elec       q    Type
REMARK                         _______ _______ _______ _____ _____    ______ ____
ROOT
ATOM      1  C   UNL     1       4.771   5.479  18.173  0.00  0.00    +0.000 A 
ATOM      2  C   UNL     1       4.321   6.797  18.066  0.00  0.00    +0.000 A 
ATOM      3  C   UNL     1       2.961   7.052  17.923  0.00  0.00    +0.000 A 
ATOM      4  C   UNL     1       2.057   5.991  17.910  0.00  0.00    +0.000 A 
ATOM      5  C   UNL     1       2.510   4.665  18.030  0.00  0.00    +0.000 A 
ATOM      6  C   UNL     1       1.623   3.582  18.025  0.00  0.00    +0.000 A 
ATOM      7  C   UNL     1       2.110   2.285  18.141  0.00  0.00    +0.000 A 
ATOM      8  C   UNL     1       3.476   2.112  18.250  0.00  0.00    +0.000 A 
ATOM      9  N   UNL     1       4.365   3.129  18.257  0.00  0.00    +0.000 NA
ATOM     10  C   UNL     1       3.889   4.394  18.157  0.00  0.00    +0.000 A 
ENDROOT
BRANCH   1  11
ATOM     11  N   UNL     1       6.182   5.235  18.349  0.00  0.00    +0.000 N 
ATOM     12  H   UNL     1       6.575   5.893  19.027  0.00  0.00    +0.000 HD
BRANCH  11  14
ATOM     13  O   UNL     1       7.585   6.687  16.848  0.00  0.00    +0.000 OA
ATOM     14  S   UNL     1       7.123   5.316  16.933  0.00  0.00    +0.000 S 
ATOM     15  O   UNL     1       8.061   4.214  16.933  0.00  0.00    +0.000 OA
BRANCH  14  16
ATOM     16  C   UNL     1       6.002   5.114  15.510  0.00  0.00    +0.000 C 
ATOM     17  C   UNL     1       6.708   4.763  14.224  0.00  0.00    +0.000 C 
ATOM     18  C   UNL     1       5.896   3.724  14.944  0.00  0.00    +0.000 C 
ENDBRANCH  14  16
ENDBRANCH  11  14
ENDBRANCH   1  11
TORSDOF 3
ENDMDL
MODEL 2
REMARK VINA RESULT:      -7.2      2.955      5.219
REMARK  Name = 
REMARK  3 active torsions:
REMARK  status: ('A' for Active; 'I' for Inactive)
REMARK    1  A    between atoms: S_2  and  N_4
REMARK    2  A    between atoms: S_2  and  C_15
REMARK    3  A    between atoms: N_4  and  C_5
REMARK                            x       y       z     vdW  Elec       q    Type
REMARK                         _______ _______ _______ _____ _____    ______ ____
ROOT
ATOM      1  C   UNL     1       5.241   3.937  17.901  0.00  0.00    +0.000 A 
ATOM      2  C   UNL     1       4.559   3.860  16.684  0.00  0.00    +0.000 A 
ATOM      3  C   UNL     1       4.821   4.795  15.686  0.00  0.00    +0.000 A 
ATOM      4  C   UNL     1       5.776   5.786  15.903  0.00  0.00    +0.000 A 
ATOM      5  C   UNL     1       6.470   5.855  17.124  0.00  0.00    +0.000 A 
ATOM      6  C   UNL     1       7.438   6.837  17.366  0.00  0.00    +0.000 A 
ATOM      7  C   UNL     1       8.099   6.876  18.588  0.00  0.00    +0.000 A 
ATOM      8  C   UNL     1       7.763   5.931  19.538  0.00  0.00    +0.000 A 
ATOM      9  N   UNL     1       6.834   4.969  19.345  0.00  0.00    +0.000 NA
ATOM     10  C   UNL     1       6.200   4.924  18.149  0.00  0.00    +0.000 A 
ENDROOT
BRANCH   1  11
ATOM     11  N   UNL     1       4.977   2.943  18.912  0.00  0.00    +0.000 N 
ATOM     12  H   UNL     1       4.912   2.014  18.490  0.00  0.00    +0.000 HD
BRANCH  11  14
ATOM     13  O   UNL     1       3.711   2.339  21.001  0.00  0.00    +0.000 OA
ATOM     14  S   UNL     1       3.572   3.195  19.841  0.00  0.00    +0.000 S 
ATOM     15  O   UNL     1       3.359   4.619  19.988  0.00  0.00    +0.000 OA
BRANCH  14  16
ATOM     16  C   UNL     1       2.165   2.498  18.915  0.00  0.00    +0.000 C 
ATOM     17  C   UNL     1       0.820   2.820  19.519  0.00  0.00    +0.000 C 
ATOM     18  C   UNL     1       1.254   3.494  18.248  0.00  0.00    +0.000 C 
ENDBRANCH  14  16
ENDBRANCH  11  14
ENDBRANCH   1  11
TORSDOF 3
ENDMDL
MODEL 3
REMARK VINA RESULT:      -7.0      2.386      2.935
REMARK  Name = 
REMARK  3 active torsions:
REMARK  status: ('A' for Active; 'I' for Inactive)
REMARK    1  A    between atoms: S_2  and  N_4
REMARK    2  A    between atoms: S_2  and  C_15
REMARK    3  A    between atoms: N_4  and  C_5
REMARK                            x       y       z     vdW  Elec       q    Type
REMARK                         _______ _______ _______ _____ _____    ______ ____
ROOT
ATOM      1  C   UNL     1       4.227   3.536  18.535  0.00  0.00    +0.000 A 
ATOM      2  C   UNL     1       3.903   3.790  17.200  0.00  0.00    +0.000 A 
ATOM      3  C   UNL     1       2.573   3.755  16.794  0.00  0.00    +0.000 A 
ATOM      4  C   UNL     1       1.573   3.487  17.726  0.00  0.00    +0.000 A 
ATOM      5  C   UNL     1       1.899   3.242  19.072  0.00  0.00    +0.000 A 
ATOM      6  C   UNL     1       0.914   2.976  20.031  0.00  0.00    +0.000 A 
ATOM      7  C   UNL     1       1.276   2.733  21.351  0.00  0.00    +0.000 A 
ATOM      8  C   UNL     1       2.620   2.758  21.670  0.00  0.00    +0.000 A 
ATOM      9  N   UNL     1       3.601   3.009  20.776  0.00  0.00    +0.000 NA
ATOM     10  C   UNL     1       3.246   3.258  19.493  0.00  0.00    +0.000 A 
ENDROOT
BRANCH   1  11
ATOM     11  N   UNL     1       5.608   3.605  18.944  0.00  0.00    +0.000 N 
ATOM     12  H   UNL     1       5.746   3.093  19.819  0.00  0.00    +0.000 HD
BRANCH  11  14
ATOM     13  O   UNL     1       5.086   6.029  19.369  0.00  0.00    +0.000 OA
ATOM     14  S   UNL     1       6.235   5.174  19.151  0.00  0.00    +0.000 S 
ATOM     15  O   UNL     1       7.316   5.122  20.112  0.00  0.00    +0.000 OA
BRANCH  14  16
ATOM     16  C   UNL     1       6.919   5.713  17.550  0.00  0.00    +0.000 C 
ATOM     17  C   UNL     1       6.082   6.755  16.850  0.00  0.00    +0.000 C 
ATOM     18  C   UNL     1       7.392   7.140  17.479  0.00  0.00    +0.000 C 
ENDBRANCH  14  16
ENDBRANCH  11  14
ENDBRANCH   1  11
TORSDOF 3
ENDMDL
MODEL 4
REMARK VINA RESULT:      -6.9      3.260      5.377
REMARK  Name = 
REMARK  3 active torsions:
REMARK  status: ('A' for Active; 'I' for Inactive)
REMARK    1  A    between atoms: S_2  and  N_4
REMARK    2  A    between atoms: S_2  and  C_15
REMARK    3  A    between atoms: N_4  and  C_5
REMARK                            x       y       z     vdW  Elec       q    Type
REMARK                         _______ _______ _______ _____ _____    ______ ____
ROOT
ATOM      1  C   UNL     1       5.138   3.788  18.331  0.00  0.00    +0.000 A 
ATOM      2  C   UNL     1       4.357   3.588  17.191  0.00  0.00    +0.000 A 
ATOM      3  C   UNL     1       4.511   4.428  16.092  0.00  0.00    +0.000 A 
ATOM      4  C   UNL     1       5.459   5.449  16.132  0.00  0.00    +0.000 A 
ATOM      5  C   UNL     1       6.253   5.641  17.277  0.00  0.00    +0.000 A 
ATOM      6  C   UNL     1       7.217   6.656  17.341  0.00  0.00    +0.000 A 
ATOM      7  C   UNL     1       7.979   6.818  18.492  0.00  0.00    +0.000 A 
ATOM      8  C   UNL     1       7.746   5.962  19.551  0.00  0.00    +0.000 A 
ATOM      9  N   UNL     1       6.826   4.973  19.530  0.00  0.00    +0.000 NA
ATOM     10  C   UNL     1       6.093   4.807  18.403  0.00  0.00    +0.000 A 
ENDROOT
BRANCH   1  11
ATOM     11  N   UNL     1       4.984   2.889  19.449  0.00  0.00    +0.000 N 
ATOM     12  H   UNL     1       5.376   1.971  19.224  0.00  0.00    +0.000 HD
BRANCH  11  14
ATOM     13  O   UNL     1       2.797   1.704  19.073  0.00  0.00    +0.000 OA
ATOM     14  S   UNL     1       3.386   2.657  19.990  0.00  0.00    +0.000 S 
ATOM     15  O   UNL     1       3.408   2.403  21.415  0.00  0.00    +0.000 OA
BRANCH  14  16
ATOM     16  C   UNL     1       2.472   4.208  19.700  0.00  0.00    +0.000 C 
ATOM     17  C   UNL     1       1.052   4.182  20.208  0.00  0.00    +0.000 C 
ATOM     18  C   UNL     1       2.094   4.992  20.927  0.00  0.00    +0.000 C 
ENDBRANCH  14  16
ENDBRANCH  11  14
ENDBRANCH   1  11
TORSDOF 3
ENDMDL
MODEL 5
REMARK VINA RESULT:      -6.9      3.010      5.341
REMARK  Name = 
REMARK  3 active torsions:
REMARK  status: ('A' for Active; 'I' for Inactive)
REMARK    1  A    between atoms: S_2  and  N_4
REMARK    2  A    between atoms: S_2  and  C_15
REMARK    3  A    between atoms: N_4  and  C_5
REMARK                            x       y       z     vdW  Elec       q    Type
REMARK                         _______ _______ _______ _____ _____    ______ ____
ROOT
ATOM      1  C   UNL     1       5.029   3.881  17.076  0.00  0.00    +0.000 A 
ATOM      2  C   UNL     1       4.831   3.859  15.694  0.00  0.00    +0.000 A 
ATOM      3  C   UNL     1       5.571   4.709  14.877  0.00  0.00    +0.000 A 
ATOM      4  C   UNL     1       6.517   5.560  15.445  0.00  0.00    +0.000 A 
ATOM      5  C   UNL     1       6.723   5.573  16.836  0.00  0.00    +0.000 A 
ATOM      6  C   UNL     1       7.672   6.414  17.431  0.00  0.00    +0.000 A 
ATOM      7  C   UNL     1       7.843   6.402  18.811  0.00  0.00    +0.000 A 
ATOM      8  C   UNL     1       7.050   5.550  19.555  0.00  0.00    +0.000 A 
ATOM      9  N   UNL     1       6.124   4.725  19.020  0.00  0.00    +0.000 NA
ATOM     10  C   UNL     1       5.967   4.728  17.675  0.00  0.00    +0.000 A 
ENDROOT
BRANCH   1  11
ATOM     11  N   UNL     1       4.273   2.972  17.904  0.00  0.00    +0.000 N 
ATOM     12  H   UNL     1       4.235   2.046  17.472  0.00  0.00    +0.000 HD
BRANCH  11  14
ATOM     13  O   UNL     1       2.570   4.821  17.791  0.00  0.00    +0.000 OA
ATOM     14  S   UNL     1       2.678   3.452  18.255  0.00  0.00    +0.000 S 
ATOM     15  O   UNL     1       1.769   2.432  17.779  0.00  0.00    +0.000 OA
BRANCH  14  16
ATOM     16  C   UNL     1       2.518   3.561  20.067  0.00  0.00    +0.000 C 
ATOM     17  C   UNL     1       1.190   4.106  20.529  0.00  0.00    +0.000 C 
ATOM     18  C   UNL     1       1.503   2.646  20.698  0.00  0.00    +0.000 C 
ENDBRANCH  14  16
ENDBRANCH  11  14
ENDBRANCH   1  11
TORSDOF 3
ENDMDL
MODEL 6
REMARK VINA RESULT:      -6.8      2.746      5.011
REMARK  Name = 
REMARK  3 active torsions:
REMARK  status: ('A' for Active; 'I' for Inactive)
REMARK    1  A    between atoms: S_2  and  N_4
REMARK    2  A    between atoms: S_2  and  C_15
REMARK    3  A    between atoms: N_4  and  C_5
REMARK                            x       y       z     vdW  Elec       q    Type
REMARK                         _______ _______ _______ _____ _____    ______ ____
ROOT
ATOM      1  C   UNL     1       3.294   4.706  17.668  0.00  0.00    +0.000 A 
ATOM      2  C   UNL     1       2.275   5.603  17.996  0.00  0.00    +0.000 A 
ATOM      3  C   UNL     1       2.539   6.969  18.018  0.00  0.00    +0.000 A 
ATOM      4  C   UNL     1       3.813   7.431  17.692  0.00  0.00    +0.000 A 
ATOM      5  C   UNL     1       4.835   6.527  17.351  0.00  0.00    +0.000 A 
ATOM      6  C   UNL     1       6.121   6.965  17.014  0.00  0.00    +0.000 A 
ATOM      7  C   UNL     1       7.107   6.040  16.687  0.00  0.00    +0.000 A 
ATOM      8  C   UNL     1       6.774   4.700  16.716  0.00  0.00    +0.000 A 
ATOM      9  N   UNL     1       5.546   4.236  17.037  0.00  0.00    +0.000 NA
ATOM     10  C   UNL     1       4.583   5.139  17.343  0.00  0.00    +0.000 A 
ENDROOT
BRANCH   1  11
ATOM     11  N   UNL     1       2.994   3.295  17.623  0.00  0.00    +0.000 N 
ATOM     12  H   UNL     1       2.034   3.146  17.303  0.00  0.00    +0.000 HD
BRANCH  11  14
ATOM     13  O   UNL     1       3.490   1.086  18.720  0.00  0.00    +0.000 OA
ATOM     14  S   UNL     1       3.194   2.454  19.090  0.00  0.00    +0.000 S 
ATOM     15  O   UNL     1       4.092   3.206  19.940  0.00  0.00    +0.000 OA
BRANCH  14  16
ATOM     16  C   UNL     1       1.567   2.373  19.908  0.00  0.00    +0.000 C 
ATOM     17  C   UNL     1       1.631   2.515  21.408  0.00  0.00    +0.000 C 
ATOM     18  C   UNL     1       1.095   3.640  20.569  0.00  0.00    +0.000 C 
ENDBRANCH  14  16
ENDBRANCH  11  14
ENDBRANCH   1  11
TORSDOF 3
ENDMDL
MODEL 7
REMARK VINA RESULT:      -6.8      2.939      5.205
REMARK  Name = 
REMARK  3 active torsions:
REMARK  status: ('A' for Active; 'I' for Inactive)
REMARK    1  A    between atoms: S_2  and  N_4
REMARK    2  A    between atoms: S_2  and  C_15
REMARK    3  A    between atoms: N_4  and  C_5
REMARK                            x       y       z     vdW  Elec       q    Type
REMARK                         _______ _______ _______ _____ _____    ______ ____
ROOT
ATOM      1  C   UNL     1       4.707   4.748  18.229  0.00  0.00    +0.000 A 
ATOM      2  C   UNL     1       5.362   5.148  19.396  0.00  0.00    +0.000 A 
ATOM      3  C   UNL     1       6.720   5.447  19.356  0.00  0.00    +0.000 A 
ATOM      4  C   UNL     1       7.411   5.366  18.148  0.00  0.00    +0.000 A 
ATOM      5  C   UNL     1       6.746   4.974  16.972  0.00  0.00    +0.000 A 
ATOM      6  C   UNL     1       7.415   4.890  15.744  0.00  0.00    +0.000 A 
ATOM      7  C   UNL     1       6.725   4.494  14.604  0.00  0.00    +0.000 A 
ATOM      8  C   UNL     1       5.385   4.186  14.730  0.00  0.00    +0.000 A 
ATOM      9  N   UNL     1       4.704   4.253  15.895  0.00  0.00    +0.000 NA
ATOM     10  C   UNL     1       5.373   4.651  17.003  0.00  0.00    +0.000 A 
ENDROOT
BRANCH   1  11
ATOM     11  N   UNL     1       3.292   4.469  18.283  0.00  0.00    +0.000 N 
ATOM     12  H   UNL     1       2.840   5.060  18.985  0.00  0.00    +0.000 HD
BRANCH  11  14
ATOM     13  O   UNL     1       2.148   2.390  17.448  0.00  0.00    +0.000 OA
ATOM     14  S   UNL     1       2.875   2.852  18.613  0.00  0.00    +0.000 S 
ATOM     15  O   UNL     1       4.052   2.152  19.080  0.00  0.00    +0.000 OA
BRANCH  14  16
ATOM     16  C   UNL     1       1.643   2.860  19.956  0.00  0.00    +0.000 C 
ATOM     17  C   UNL     1       2.157   3.442  21.250  0.00  0.00    +0.000 C 
ATOM     18  C   UNL     1       1.175   4.215  20.415  0.00  0.00    +0.000 C 
ENDBRANCH  14  16
ENDBRANCH  11  14
ENDBRANCH   1  11
TORSDOF 3
ENDMDL
MODEL 8
REMARK VINA RESULT:      -6.7      2.869      4.854
REMARK  Name = 
REMARK  3 active torsions:
REMARK  status: ('A' for Active; 'I' for Inactive)
REMARK    1  A    between atoms: S_2  and  N_4
REMARK    2  A    between atoms: S_2  and  C_15
REMARK    3  A    between atoms: N_4  and  C_5
REMARK                            x       y       z     vdW  Elec       q    Type
REMARK                         _______ _______ _______ _____ _____    ______ ____
ROOT
ATOM      1  C   UNL     1       3.953   4.821  18.497  0.00  0.00    +0.000 A 
ATOM      2  C   UNL     1       3.203   5.886  19.001  0.00  0.00    +0.000 A 
ATOM      3  C   UNL     1       3.186   7.101  18.322  0.00  0.00    +0.000 A 
ATOM      4  C   UNL     1       3.900   7.237  17.134  0.00  0.00    +0.000 A 
ATOM      5  C   UNL     1       4.646   6.160  16.621  0.00  0.00    +0.000 A 
ATOM      6  C   UNL     1       5.368   6.269  15.426  0.00  0.00    +0.000 A 
ATOM      7  C   UNL     1       6.097   5.184  14.954  0.00  0.00    +0.000 A 
ATOM      8  C   UNL     1       6.087   4.021  15.700  0.00  0.00    +0.000 A 
ATOM      9  N   UNL     1       5.405   3.876  16.857  0.00  0.00    +0.000 NA
ATOM     10  C   UNL     1       4.685   4.930  17.310  0.00  0.00    +0.000 A 
ENDROOT
BRANCH   1  11
ATOM     11  N   UNL     1       3.936   3.561  19.199  0.00  0.00    +0.000 N 
ATOM     12  H   UNL     1       4.850   3.106  19.136  0.00  0.00    +0.000 HD
BRANCH  11  14
ATOM     13  O   UNL     1       2.062   3.095  17.586  0.00  0.00    +0.000 OA
ATOM     14  S   UNL     1       2.760   2.446  18.677  0.00  0.00    +0.000 S 
ATOM     15  O   UNL     1       3.389   1.155  18.494  0.00  0.00    +0.000 OA
BRANCH  14  16
ATOM     16  C   UNL     1       1.515   2.293  19.999  0.00  0.00    +0.000 C 
ATOM     17  C   UNL     1       1.990   2.790  21.342  0.00  0.00    +0.000 C 
ATOM     18  C   UNL     1       0.983   3.585  20.559  0.00  0.00    +0.000 C 
ENDBRANCH  14  16
ENDBRANCH  11  14
ENDBRANCH   1  11
TORSDOF 3
ENDMDL
MODEL 9
REMARK VINA RESULT:      -6.7      1.689      2.245
REMARK  Name = 
REMARK  3 active torsions:
REMARK  status: ('A' for Active; 'I' for Inactive)
REMARK    1  A    between atoms: S_2  and  N_4
REMARK    2  A    between atoms: S_2  and  C_15
REMARK    3  A    between atoms: N_4  and  C_5
REMARK                            x       y       z     vdW  Elec       q    Type
REMARK                         _______ _______ _______ _____ _____    ______ ____
ROOT
ATOM      1  C   UNL     1       4.174   5.414  17.051  0.00  0.00    +0.000 A 
ATOM      2  C   UNL     1       3.918   6.752  17.359  0.00  0.00    +0.000 A 
ATOM      3  C   UNL     1       2.952   7.069  18.308  0.00  0.00    +0.000 A 
ATOM      4  C   UNL     1       2.262   6.047  18.959  0.00  0.00    +0.000 A 
ATOM      5  C   UNL     1       2.529   4.700  18.655  0.00  0.00    +0.000 A 
ATOM      6  C   UNL     1       1.854   3.654  19.298  0.00  0.00    +0.000 A 
ATOM      7  C   UNL     1       2.141   2.335  18.967  0.00  0.00    +0.000 A 
ATOM      8  C   UNL     1       3.093   2.103  17.993  0.00  0.00    +0.000 A 
ATOM      9  N   UNL     1       3.765   3.083  17.349  0.00  0.00    +0.000 NA
ATOM     10  C   UNL     1       3.494   4.367  17.681  0.00  0.00    +0.000 A 
ENDROOT
BRANCH   1  11
ATOM     11  N   UNL     1       5.199   5.104  16.084  0.00  0.00    +0.000 N 
ATOM     12  H   UNL     1       5.201   4.102  15.876  0.00  0.00    +0.000 HD
BRANCH  11  14
ATOM     13  O   UNL     1       7.656   4.858  15.599  0.00  0.00    +0.000 OA
ATOM     14  S   UNL     1       6.783   5.549  16.526  0.00  0.00    +0.000 S 
ATOM     15  O   UNL     1       6.839   6.988  16.670  0.00  0.00    +0.000 OA
BRANCH  14  16
ATOM     16  C   UNL     1       7.137   4.797  18.148  0.00  0.00    +0.000 C 
ATOM     17  C   UNL     1       8.031   5.637  19.026  0.00  0.00    +0.000 C 
ATOM     18  C   UNL     1       6.568   5.508  19.345  0.00  0.00    +0.000 C 
ENDBRANCH  14  16
ENDBRANCH  11  14
ENDBRANCH   1  11
TORSDOF 3
ENDMDL
