MODEL 1
REMARK VINA RESULT:      -7.5      0.000      0.000
REMARK  Name = 
REMARK  5 active torsions:
REMARK  status: ('A' for Active; 'I' for Inactive)
REMARK    1  A    between atoms: C_2  and  C_14
REMARK    2  A    between atoms: N_3  and  C_4
REMARK    3  A    between atoms: C_10  and  C_11
REMARK    4  A    between atoms: C_11  and  O_13
REMARK    5  A    between atoms: C_17  and  N_18
REMARK                            x       y       z     vdW  Elec       q    Type
REMARK                         _______ _______ _______ _____ _____    ______ ____
ROOT
ATOM      1  O   UNL     1       2.272   8.597  17.146  0.00  0.00    +0.000 OA
ATOM      2  C   UNL     1       2.323   8.094  18.265  0.00  0.00    +0.000 C 
ATOM      3  N   UNL     1       3.045   6.962  18.603  0.00  0.00    +0.000 N 
ATOM      4  H   UNL     1       2.901   6.557  19.527  0.00  0.00    +0.000 HD
ENDROOT
BRANCH   3   5
ATOM      5  C   UNL     1       3.844   6.177  17.724  0.00  0.00    +0.000 A 
ATOM      6  C   UNL     1       5.009   6.689  17.134  0.00  0.00    +0.000 A 
ATOM      7  C   UNL     1       5.758   5.936  16.228  0.00  0.00    +0.000 A 
ATOM      8  C   UNL     1       5.345   4.652  15.893  0.00  0.00    +0.000 A 
ATOM      9 CL   UNL     1       6.249   3.738  14.750  0.00  0.00    +0.000 Cl
ATOM     10  C   UNL     1       4.209   4.102  16.478  0.00  0.00    +0.000 A 
ATOM     11  C   UNL     1       3.475   4.847  17.420  0.00  0.00    +0.000 A 
BRANCH  11  12
ATOM     12  C   UNL     1       2.271   4.240  18.047  0.00  0.00    +0.000 C 
ATOM     13  O   UNL     1       1.256   3.989  17.417  0.00  0.00    +0.000 OA
BRANCH  12  14
ATOM     14  O   UNL     1       2.360   4.072  19.383  0.00  0.00    +0.000 OA
ATOM     15  H   UNL     1       2.986   4.655  19.852  0.00  0.00    +0.000 HD
ENDBRANCH  12  14
ENDBRANCH  11  12
ENDBRANCH   3   5
BRANCH   2  16
ATOM     16  C   UNL     1       1.526   8.758  19.339  0.00  0.00    +0.000 A 
ATOM     17  C   UNL     1       0.806   9.947  19.155  0.00  0.00    +0.000 A 
ATOM     18  C   UNL     1       0.115  10.522  20.230  0.00  0.00    +0.000 A 
ATOM     19  C   UNL     1       0.152   9.913  21.494  0.00  0.00    +0.000 A 
ATOM     20  C   UNL     1       0.869   8.730  21.690  0.00  0.00    +0.000 A 
ATOM     21  C   UNL     1       1.552   8.162  20.614  0.00  0.00    +0.000 A 
BRANCH  19  22
ATOM     22  N   UNL     1      -0.556  10.529  22.624  0.00  0.00    +0.000 N 
ATOM     23  O   UNL     1      -1.435  11.363  22.367  0.00  0.00    +0.000 OA
ATOM     24  O   UNL     1      -0.233  10.176  23.767  0.00  0.00    +0.000 OA
ENDBRANCH  19  22
ENDBRANCH   2  16
TORSDOF 5
ENDMDL
MODEL 2
REMARK VINA RESULT:      -7.4      0.294      1.072
REMARK  Name = 
REMARK  5 active torsions:
REMARK  status: ('A' for Active; 'I' for Inactive)
REMARK    1  A    between atoms: C_2  and  C_14
REMARK    2  A    between atoms: N_3  and  C_4
REMARK    3  A    between atoms: C_10  and  C_11
REMARK    4  A    between atoms: C_11  and  O_13
REMARK    5  A    between atoms: C_17  and  N_18
REMARK                            x       y       z     vdW  Elec       q    Type
REMARK                         _______ _______ _______ _____ _____    ______ ____
ROOT
ATOM      1  O   UNL     1       2.249   8.658  17.257  0.00  0.00    +0.000 OA
ATOM      2  C   UNL     1       2.297   8.149  18.374  0.00  0.00    +0.000 C 
ATOM      3  N   UNL     1       3.005   7.005  18.703  0.00  0.00    +0.000 N 
ATOM      4  H   UNL     1       2.859   6.598  19.626  0.00  0.00    +0.000 HD
ENDROOT
BRANCH   3   5
ATOM      5  C   UNL     1       3.788   6.213  17.816  0.00  0.00    +0.000 A 
ATOM      6  C   UNL     1       4.955   6.712  17.220  0.00  0.00    +0.000 A 
ATOM      7  C   UNL     1       5.688   5.953  16.306  0.00  0.00    +0.000 A 
ATOM      8  C   UNL     1       5.258   4.675  15.971  0.00  0.00    +0.000 A 
ATOM      9 CL   UNL     1       6.143   3.754  14.819  0.00  0.00    +0.000 Cl
ATOM     10  C   UNL     1       4.120   4.136  16.563  0.00  0.00    +0.000 A 
ATOM     11  C   UNL     1       3.402   4.887  17.512  0.00  0.00    +0.000 A 
BRANCH  11  12
ATOM     12  C   UNL     1       2.195   4.293  18.146  0.00  0.00    +0.000 C 
ATOM     13  O   UNL     1       1.198   3.989  17.510  0.00  0.00    +0.000 OA
BRANCH  12  14
ATOM     14  O   UNL     1       2.258   4.199  19.491  0.00  0.00    +0.000 OA
ATOM     15  H   UNL     1       2.817   4.857  19.945  0.00  0.00    +0.000 HD
ENDBRANCH  12  14
ENDBRANCH  11  12
ENDBRANCH   3   5
BRANCH   2  16
ATOM     16  C   UNL     1       1.515   8.819  19.455  0.00  0.00    +0.000 A 
ATOM     17  C   UNL     1       1.379   8.305  20.752  0.00  0.00    +0.000 A 
ATOM     18  C   UNL     1       0.594   8.982  21.696  0.00  0.00    +0.000 A 
ATOM     19  C   UNL     1      -0.065  10.169  21.339  0.00  0.00    +0.000 A 
ATOM     20  C   UNL     1       0.062  10.688  20.048  0.00  0.00    +0.000 A 
ATOM     21  C   UNL     1       0.847  10.011  19.115  0.00  0.00    +0.000 A 
BRANCH  19  22
ATOM     22  N   UNL     1      -0.903  10.866  22.323  0.00  0.00    +0.000 N 
ATOM     23  O   UNL     1      -1.666  11.748  21.906  0.00  0.00    +0.000 OA
ATOM     24  O   UNL     1      -0.799  10.528  23.510  0.00  0.00    +0.000 OA
ENDBRANCH  19  22
ENDBRANCH   2  16
TORSDOF 5
ENDMDL
MODEL 3
REMARK VINA RESULT:      -7.3      3.677      7.940
REMARK  Name = 
REMARK  5 active torsions:
REMARK  status: ('A' for Active; 'I' for Inactive)
REMARK    1  A    between atoms: C_2  and  C_14
REMARK    2  A    between atoms: N_3  and  C_4
REMARK    3  A    between atoms: C_10  and  C_11
REMARK    4  A    between atoms: C_11  and  O_13
REMARK    5  A    between atoms: C_17  and  N_18
REMARK                            x       y       z     vdW  Elec       q    Type
REMARK                         _______ _______ _______ _____ _____    ______ ____
ROOT
ATOM      1  O   UNL     1       1.853   5.556  19.418  0.00  0.00    +0.000 OA
ATOM      2  C   UNL     1       2.564   6.382  18.852  0.00  0.00    +0.000 C 
ATOM      3  N   UNL     1       2.543   7.748  19.079  0.00  0.00    +0.000 N 
ATOM      4  H   UNL     1       3.077   8.348  18.452  0.00  0.00    +0.000 HD
ENDROOT
BRANCH   3   5
ATOM      5  C   UNL     1       1.695   8.439  19.991  0.00  0.00    +0.000 A 
ATOM      6  C   UNL     1       1.665   8.116  21.355  0.00  0.00    +0.000 A 
ATOM      7  C   UNL     1       0.791   8.756  22.236  0.00  0.00    +0.000 A 
ATOM      8  C   UNL     1      -0.075   9.732  21.759  0.00  0.00    +0.000 A 
ATOM      9 CL   UNL     1      -1.176  10.495  22.838  0.00  0.00    +0.000 Cl
ATOM     10  C   UNL     1      -0.055  10.097  20.416  0.00  0.00    +0.000 A 
ATOM     11  C   UNL     1       0.852   9.478  19.535  0.00  0.00    +0.000 A 
BRANCH  11  12
ATOM     12  C   UNL     1       0.870   9.888  18.106  0.00  0.00    +0.000 C 
ATOM     13  O   UNL     1       1.903   9.983  17.461  0.00  0.00    +0.000 OA
BRANCH  12  14
ATOM     14  O   UNL     1      -0.335  10.231  17.606  0.00  0.00    +0.000 OA
ATOM     15  H   UNL     1      -0.439  10.159  16.639  0.00  0.00    +0.000 HD
ENDBRANCH  12  14
ENDBRANCH  11  12
ENDBRANCH   3   5
BRANCH   2  16
ATOM     16  C   UNL     1       3.518   5.861  17.828  0.00  0.00    +0.000 A 
ATOM     17  C   UNL     1       3.706   4.498  17.560  0.00  0.00    +0.000 A 
ATOM     18  C   UNL     1       4.651   4.095  16.605  0.00  0.00    +0.000 A 
ATOM     19  C   UNL     1       5.417   5.057  15.927  0.00  0.00    +0.000 A 
ATOM     20  C   UNL     1       5.240   6.417  16.190  0.00  0.00    +0.000 A 
ATOM     21  C   UNL     1       4.295   6.810  17.138  0.00  0.00    +0.000 A 
BRANCH  19  22
ATOM     22  N   UNL     1       6.421   4.632  14.944  0.00  0.00    +0.000 N 
ATOM     23  O   UNL     1       6.141   3.669  14.215  0.00  0.00    +0.000 OA
ATOM     24  O   UNL     1       7.487   5.261  14.900  0.00  0.00    +0.000 OA
ENDBRANCH  19  22
ENDBRANCH   2  16
TORSDOF 5
ENDMDL
MODEL 4
REMARK VINA RESULT:      -7.3      3.704      7.907
REMARK  Name = 
REMARK  5 active torsions:
REMARK  status: ('A' for Active; 'I' for Inactive)
REMARK    1  A    between atoms: C_2  and  C_14
REMARK    2  A    between atoms: N_3  and  C_4
REMARK    3  A    between atoms: C_10  and  C_11
REMARK    4  A    between atoms: C_11  and  O_13
REMARK    5  A    between atoms: C_17  and  N_18
REMARK                            x       y       z     vdW  Elec       q    Type
REMARK                         _______ _______ _______ _____ _____    ______ ____
ROOT
ATOM      1  O   UNL     1       1.971   5.838  20.083  0.00  0.00    +0.000 OA
ATOM      2  C   UNL     1       2.446   6.624  19.268  0.00  0.00    +0.000 C 
ATOM      3  N   UNL     1       2.221   7.991  19.247  0.00  0.00    +0.000 N 
ATOM      4  H   UNL     1       2.554   8.521  18.443  0.00  0.00    +0.000 HD
ENDROOT
BRANCH   3   5
ATOM      5  C   UNL     1       1.398   8.724  20.149  0.00  0.00    +0.000 A 
ATOM      6  C   UNL     1       1.480   8.538  21.536  0.00  0.00    +0.000 A 
ATOM      7  C   UNL     1       0.632   9.216  22.414  0.00  0.00    +0.000 A 
ATOM      8  C   UNL     1      -0.320  10.094  21.910  0.00  0.00    +0.000 A 
ATOM      9 CL   UNL     1      -1.388  10.902  22.989  0.00  0.00    +0.000 Cl
ATOM     10  C   UNL     1      -0.413  10.324  20.541  0.00  0.00    +0.000 A 
ATOM     11  C   UNL     1       0.467   9.669  19.659  0.00  0.00    +0.000 A 
BRANCH  11  12
ATOM     12  C   UNL     1       0.364   9.935  18.200  0.00  0.00    +0.000 C 
ATOM     13  O   UNL     1      -0.695   9.890  17.594  0.00  0.00    +0.000 OA
BRANCH  12  14
ATOM     14  O   UNL     1       1.548  10.142  17.584  0.00  0.00    +0.000 OA
ATOM     15  H   UNL     1       2.291  10.413  18.155  0.00  0.00    +0.000 HD
ENDBRANCH  12  14
ENDBRANCH  11  12
ENDBRANCH   3   5
BRANCH   2  16
ATOM     16  C   UNL     1       3.328   6.048  18.210  0.00  0.00    +0.000 A 
ATOM     17  C   UNL     1       3.465   4.673  17.972  0.00  0.00    +0.000 A 
ATOM     18  C   UNL     1       4.344   4.218  16.980  0.00  0.00    +0.000 A 
ATOM     19  C   UNL     1       5.098   5.138  16.234  0.00  0.00    +0.000 A 
ATOM     20  C   UNL     1       4.972   6.509  16.466  0.00  0.00    +0.000 A 
ATOM     21  C   UNL     1       4.091   6.956  17.451  0.00  0.00    +0.000 A 
BRANCH  19  22
ATOM     22  N   UNL     1       6.035   4.657  15.210  0.00  0.00    +0.000 N 
ATOM     23  O   UNL     1       7.238   4.618  15.504  0.00  0.00    +0.000 OA
ATOM     24  O   UNL     1       5.567   4.317  14.115  0.00  0.00    +0.000 OA
ENDBRANCH  19  22
ENDBRANCH   2  16
TORSDOF 5
ENDMDL
MODEL 5
REMARK VINA RESULT:      -7.0      3.722      7.860
REMARK  Name = 
REMARK  5 active torsions:
REMARK  status: ('A' for Active; 'I' for Inactive)
REMARK    1  A    between atoms: C_2  and  C_14
REMARK    2  A    between atoms: N_3  and  C_4
REMARK    3  A    between atoms: C_10  and  C_11
REMARK    4  A    between atoms: C_11  and  O_13
REMARK    5  A    between atoms: C_17  and  N_18
REMARK                            x       y       z     vdW  Elec       q    Type
REMARK                         _______ _______ _______ _____ _____    ______ ____
ROOT
ATOM      1  O   UNL     1       2.016   6.021  20.174  0.00  0.00    +0.000 OA
ATOM      2  C   UNL     1       2.465   6.837  19.375  0.00  0.00    +0.000 C 
ATOM      3  N   UNL     1       2.193   8.196  19.376  0.00  0.00    +0.000 N 
ATOM      4  H   UNL     1       2.510   8.750  18.582  0.00  0.00    +0.000 HD
ENDROOT
BRANCH   3   5
ATOM      5  C   UNL     1       1.343   8.884  20.287  0.00  0.00    +0.000 A 
ATOM      6  C   UNL     1       1.434   8.684  21.672  0.00  0.00    +0.000 A 
ATOM      7  C   UNL     1       0.561   9.317  22.559  0.00  0.00    +0.000 A 
ATOM      8  C   UNL     1      -0.426  10.162  22.067  0.00  0.00    +0.000 A 
ATOM      9 CL   UNL     1      -1.524  10.915  23.157  0.00  0.00    +0.000 Cl
ATOM     10  C   UNL     1      -0.530  10.405  20.701  0.00  0.00    +0.000 A 
ATOM     11  C   UNL     1       0.374   9.796  19.810  0.00  0.00    +0.000 A 
BRANCH  11  12
ATOM     12  C   UNL     1       0.259  10.076  18.354  0.00  0.00    +0.000 C 
ATOM     13  O   UNL     1      -0.787   9.945  17.739  0.00  0.00    +0.000 OA
BRANCH  12  14
ATOM     14  O   UNL     1       1.423  10.400  17.753  0.00  0.00    +0.000 OA
ATOM     15  H   UNL     1       2.144  10.697  18.338  0.00  0.00    +0.000 HD
ENDBRANCH  12  14
ENDBRANCH  11  12
ENDBRANCH   3   5
BRANCH   2  16
ATOM     16  C   UNL     1       3.370   6.310  18.309  0.00  0.00    +0.000 A 
ATOM     17  C   UNL     1       4.124   7.125  17.453  0.00  0.00    +0.000 A 
ATOM     18  C   UNL     1       4.920   6.545  16.455  0.00  0.00    +0.000 A 
ATOM     19  C   UNL     1       4.952   5.150  16.305  0.00  0.00    +0.000 A 
ATOM     20  C   UNL     1       4.201   4.329  17.151  0.00  0.00    +0.000 A 
ATOM     21  C   UNL     1       3.415   4.913  18.144  0.00  0.00    +0.000 A 
BRANCH  19  22
ATOM     22  N   UNL     1       5.770   4.546  15.245  0.00  0.00    +0.000 N 
ATOM     23  O   UNL     1       5.202   4.227  14.191  0.00  0.00    +0.000 OA
ATOM     24  O   UNL     1       6.979   4.393  15.467  0.00  0.00    +0.000 OA
ENDBRANCH  19  22
ENDBRANCH   2  16
TORSDOF 5
ENDMDL
MODEL 6
REMARK VINA RESULT:      -7.0      3.777      7.908
REMARK  Name = 
REMARK  5 active torsions:
REMARK  status: ('A' for Active; 'I' for Inactive)
REMARK    1  A    between atoms: C_2  and  C_14
REMARK    2  A    between atoms: N_3  and  C_4
REMARK    3  A    between atoms: C_10  and  C_11
REMARK    4  A    between atoms: C_11  and  O_13
REMARK    5  A    between atoms: C_17  and  N_18
REMARK                            x       y       z     vdW  Elec       q    Type
REMARK                         _______ _______ _______ _____ _____    ______ ____
ROOT
ATOM      1  O   UNL     1       1.557   5.895  20.532  0.00  0.00    +0.000 OA
ATOM      2  C   UNL     1       2.318   6.636  19.916  0.00  0.00    +0.000 C 
ATOM      3  N   UNL     1       2.296   8.021  19.953  0.00  0.00    +0.000 N 
ATOM      4  H   UNL     1       2.883   8.529  19.294  0.00  0.00    +0.000 HD
ENDROOT
BRANCH   3   5
ATOM      5  C   UNL     1       1.388   8.829  20.695  0.00  0.00    +0.000 A 
ATOM      6  C   UNL     1       1.228   8.674  22.080  0.00  0.00    +0.000 A 
ATOM      7  C   UNL     1       0.296   9.428  22.795  0.00  0.00    +0.000 A 
ATOM      8  C   UNL     1      -0.497  10.353  22.128  0.00  0.00    +0.000 A 
ATOM      9 CL   UNL     1      -1.669  11.258  23.003  0.00  0.00    +0.000 Cl
ATOM     10  C   UNL     1      -0.348  10.553  20.758  0.00  0.00    +0.000 A 
ATOM     11  C   UNL     1       0.617   9.819  20.045  0.00  0.00    +0.000 A 
BRANCH  11  12
ATOM     12  C   UNL     1       0.775  10.054  18.584  0.00  0.00    +0.000 C 
ATOM     13  O   UNL     1       0.896   9.144  17.780  0.00  0.00    +0.000 OA
BRANCH  12  14
ATOM     14  O   UNL     1       0.861  11.354  18.233  0.00  0.00    +0.000 OA
ATOM     15  H   UNL     1       0.188  11.679  17.606  0.00  0.00    +0.000 HD
ENDBRANCH  12  14
ENDBRANCH  11  12
ENDBRANCH   3   5
BRANCH   2  16
ATOM     16  C   UNL     1       3.342   5.980  19.048  0.00  0.00    +0.000 A 
ATOM     17  C   UNL     1       4.017   4.801  19.393  0.00  0.00    +0.000 A 
ATOM     18  C   UNL     1       4.991   4.274  18.534  0.00  0.00    +0.000 A 
ATOM     19  C   UNL     1       5.299   4.933  17.334  0.00  0.00    +0.000 A 
ATOM     20  C   UNL     1       4.635   6.111  16.982  0.00  0.00    +0.000 A 
ATOM     21  C   UNL     1       3.664   6.628  17.840  0.00  0.00    +0.000 A 
BRANCH  19  22
ATOM     22  N   UNL     1       6.335   4.391  16.445  0.00  0.00    +0.000 N 
ATOM     23  O   UNL     1       5.985   3.566  15.589  0.00  0.00    +0.000 OA
ATOM     24  O   UNL     1       7.497   4.790  16.603  0.00  0.00    +0.000 OA
ENDBRANCH  19  22
ENDBRANCH   2  16
TORSDOF 5
ENDMDL
MODEL 7
REMARK VINA RESULT:      -6.8      1.265      1.554
REMARK  Name = 
REMARK  5 active torsions:
REMARK  status: ('A' for Active; 'I' for Inactive)
REMARK    1  A    between atoms: C_2  and  C_14
REMARK    2  A    between atoms: N_3  and  C_4
REMARK    3  A    between atoms: C_10  and  C_11
REMARK    4  A    between atoms: C_11  and  O_13
REMARK    5  A    between atoms: C_17  and  N_18
REMARK                            x       y       z     vdW  Elec       q    Type
REMARK                         _______ _______ _______ _____ _____    ______ ____
ROOT
ATOM      1  O   UNL     1       1.418   9.056  17.686  0.00  0.00    +0.000 OA
ATOM      2  C   UNL     1       1.545   8.748  18.867  0.00  0.00    +0.000 C 
ATOM      3  N   UNL     1       2.303   7.691  19.344  0.00  0.00    +0.000 N 
ATOM      4  H   UNL     1       2.221   7.446  20.330  0.00  0.00    +0.000 HD
ENDROOT
BRANCH   3   5
ATOM      5  C   UNL     1       3.056   6.772  18.559  0.00  0.00    +0.000 A 
ATOM      6  C   UNL     1       3.938   7.209  17.561  0.00  0.00    +0.000 A 
ATOM      7  C   UNL     1       4.632   6.305  16.755  0.00  0.00    +0.000 A 
ATOM      8  C   UNL     1       4.447   4.939  16.936  0.00  0.00    +0.000 A 
ATOM      9 CL   UNL     1       5.275   3.826  15.919  0.00  0.00    +0.000 Cl
ATOM     10  C   UNL     1       3.600   4.469  17.935  0.00  0.00    +0.000 A 
ATOM     11  C   UNL     1       2.930   5.380  18.771  0.00  0.00    +0.000 A 
BRANCH  11  12
ATOM     12  C   UNL     1       2.038   4.862  19.843  0.00  0.00    +0.000 C 
ATOM     13  O   UNL     1       1.092   4.125  19.614  0.00  0.00    +0.000 OA
BRANCH  12  14
ATOM     14  O   UNL     1       2.306   5.343  21.075  0.00  0.00    +0.000 OA
ATOM     15  H   UNL     1       2.981   4.863  21.590  0.00  0.00    +0.000 HD
ENDBRANCH  12  14
ENDBRANCH  11  12
ENDBRANCH   3   5
BRANCH   2  16
ATOM     16  C   UNL     1       0.807   9.580  19.864  0.00  0.00    +0.000 A 
ATOM     17  C   UNL     1       0.174  10.792  19.553  0.00  0.00    +0.000 A 
ATOM     18  C   UNL     1      -0.466  11.528  20.560  0.00  0.00    +0.000 A 
ATOM     19  C   UNL     1      -0.462  11.057  21.882  0.00  0.00    +0.000 A 
ATOM     20  C   UNL     1       0.168   9.853  22.204  0.00  0.00    +0.000 A 
ATOM     21  C   UNL     1       0.799   9.124  21.196  0.00  0.00    +0.000 A 
BRANCH  19  22
ATOM     22  N   UNL     1      -1.115  11.840  22.940  0.00  0.00    +0.000 N 
ATOM     23  O   UNL     1      -0.549  12.873  23.323  0.00  0.00    +0.000 OA
ATOM     24  O   UNL     1      -2.193  11.422  23.384  0.00  0.00    +0.000 OA
ENDBRANCH  19  22
ENDBRANCH   2  16
TORSDOF 5
ENDMDL
MODEL 8
REMARK VINA RESULT:      -6.8      3.795      7.889
REMARK  Name = 
REMARK  5 active torsions:
REMARK  status: ('A' for Active; 'I' for Inactive)
REMARK    1  A    between atoms: C_2  and  C_14
REMARK    2  A    between atoms: N_3  and  C_4
REMARK    3  A    between atoms: C_10  and  C_11
REMARK    4  A    between atoms: C_11  and  O_13
REMARK    5  A    between atoms: C_17  and  N_18
REMARK                            x       y       z     vdW  Elec       q    Type
REMARK                         _______ _______ _______ _____ _____    ______ ____
ROOT
ATOM      1  O   UNL     1       1.650   6.002  20.400  0.00  0.00    +0.000 OA
ATOM      2  C   UNL     1       2.372   6.789  19.794  0.00  0.00    +0.000 C 
ATOM      3  N   UNL     1       2.284   8.170  19.857  0.00  0.00    +0.000 N 
ATOM      4  H   UNL     1       2.842   8.718  19.205  0.00  0.00    +0.000 HD
ENDROOT
BRANCH   3   5
ATOM      5  C   UNL     1       1.345   8.921  20.620  0.00  0.00    +0.000 A 
ATOM      6  C   UNL     1       1.213   8.743  22.005  0.00  0.00    +0.000 A 
ATOM      7  C   UNL     1       0.252   9.439  22.740  0.00  0.00    +0.000 A 
ATOM      8  C   UNL     1      -0.601  10.326  22.094  0.00  0.00    +0.000 A 
ATOM      9 CL   UNL     1      -1.808  11.157  22.994  0.00  0.00    +0.000 Cl
ATOM     10  C   UNL     1      -0.482  10.547  20.725  0.00  0.00    +0.000 A 
ATOM     11  C   UNL     1       0.511   9.873  19.990  0.00  0.00    +0.000 A 
BRANCH  11  12
ATOM     12  C   UNL     1       0.635  10.130  18.531  0.00  0.00    +0.000 C 
ATOM     13  O   UNL     1       1.712  10.168  17.957  0.00  0.00    +0.000 OA
BRANCH  12  14
ATOM     14  O   UNL     1      -0.531  10.405  17.910  0.00  0.00    +0.000 OA
ATOM     15  H   UNL     1      -0.679  11.335  17.658  0.00  0.00    +0.000 HD
ENDBRANCH  12  14
ENDBRANCH  11  12
ENDBRANCH   3   5
BRANCH   2  16
ATOM     16  C   UNL     1       3.419   6.198  18.908  0.00  0.00    +0.000 A 
ATOM     17  C   UNL     1       3.635   6.598  17.582  0.00  0.00    +0.000 A 
ATOM     18  C   UNL     1       4.617   5.964  16.809  0.00  0.00    +0.000 A 
ATOM     19  C   UNL     1       5.377   4.920  17.360  0.00  0.00    +0.000 A 
ATOM     20  C   UNL     1       5.168   4.511  18.679  0.00  0.00    +0.000 A 
ATOM     21  C   UNL     1       4.191   5.150  19.443  0.00  0.00    +0.000 A 
BRANCH  19  22
ATOM     22  N   UNL     1       6.391   4.242  16.541  0.00  0.00    +0.000 N 
ATOM     23  O   UNL     1       7.582   4.448  16.814  0.00  0.00    +0.000 OA
ATOM     24  O   UNL     1       5.996   3.504  15.629  0.00  0.00    +0.000 OA
ENDBRANCH  19  22
ENDBRANCH   2  16
TORSDOF 5
ENDMDL
MODEL 9
REMARK VINA RESULT:      -6.8      3.691      7.669
REMARK  Name = 
REMARK  5 active torsions:
REMARK  status: ('A' for Active; 'I' for Inactive)
REMARK    1  A    between atoms: C_2  and  C_14
REMARK    2  A    between atoms: N_3  and  C_4
REMARK    3  A    between atoms: C_10  and  C_11
REMARK    4  A    between atoms: C_11  and  O_13
REMARK    5  A    between atoms: C_17  and  N_18
REMARK                            x       y       z     vdW  Elec       q    Type
REMARK                         _______ _______ _______ _____ _____    ______ ____
ROOT
ATOM      1  O   UNL     1       1.662   9.209  17.450  0.00  0.00    +0.000 OA
ATOM      2  C   UNL     1       1.791   8.623  18.521  0.00  0.00    +0.000 C 
ATOM      3  N   UNL     1       1.102   8.920  19.686  0.00  0.00    +0.000 N 
ATOM      4  H   UNL     1       1.393   8.460  20.547  0.00  0.00    +0.000 HD
ENDROOT
BRANCH   3   5
ATOM      5  C   UNL     1       0.138   9.954  19.855  0.00  0.00    +0.000 A 
ATOM      6  C   UNL     1      -0.467  10.582  18.757  0.00  0.00    +0.000 A 
ATOM      7  C   UNL     1      -1.369  11.635  18.925  0.00  0.00    +0.000 A 
ATOM      8  C   UNL     1      -1.677  12.079  20.205  0.00  0.00    +0.000 A 
ATOM      9 CL   UNL     1      -2.760  13.399  20.411  0.00  0.00    +0.000 Cl
ATOM     10  C   UNL     1      -1.115  11.463  21.320  0.00  0.00    +0.000 A 
ATOM     11  C   UNL     1      -0.235  10.378  21.151  0.00  0.00    +0.000 A 
BRANCH  11  12
ATOM     12  C   UNL     1       0.346   9.720  22.352  0.00  0.00    +0.000 C 
ATOM     13  O   UNL     1       1.547   9.565  22.501  0.00  0.00    +0.000 OA
BRANCH  12  14
ATOM     14  O   UNL     1      -0.566   9.232  23.219  0.00  0.00    +0.000 OA
ATOM     15  H   UNL     1      -0.236   8.598  23.883  0.00  0.00    +0.000 HD
ENDBRANCH  12  14
ENDBRANCH  11  12
ENDBRANCH   3   5
BRANCH   2  16
ATOM     16  C   UNL     1       2.783   7.508  18.565  0.00  0.00    +0.000 A 
ATOM     17  C   UNL     1       3.792   7.324  17.609  0.00  0.00    +0.000 A 
ATOM     18  C   UNL     1       4.659   6.227  17.707  0.00  0.00    +0.000 A 
ATOM     19  C   UNL     1       4.510   5.306  18.756  0.00  0.00    +0.000 A 
ATOM     20  C   UNL     1       3.506   5.479  19.712  0.00  0.00    +0.000 A 
ATOM     21  C   UNL     1       2.649   6.575  19.610  0.00  0.00    +0.000 A 
BRANCH  19  22
ATOM     22  N   UNL     1       5.406   4.146  18.845  0.00  0.00    +0.000 N 
ATOM     23  O   UNL     1       4.986   3.138  19.431  0.00  0.00    +0.000 OA
ATOM     24  O   UNL     1       6.528   4.244  18.328  0.00  0.00    +0.000 OA
ENDBRANCH  19  22
ENDBRANCH   2  16
TORSDOF 5
ENDMDL
