MODEL 1
REMARK VINA RESULT:      -6.3      0.000      0.000
REMARK  Name = 
REMARK  8 active torsions:
REMARK  status: ('A' for Active; 'I' for Inactive)
REMARK    1  A    between atoms: C_1  and  C_2
REMARK    2  A    between atoms: C_2  and  C_3
REMARK    3  A    between atoms: C_3  and  C_4
REMARK    4  A    between atoms: C_4  and  N_5
REMARK    5  A    between atoms: C_4  and  C_7
REMARK    6  A    between atoms: N_5  and  N_6
REMARK    7  A    between atoms: C_7  and  O_8
REMARK    8  A    between atoms: C_7  and  C_9
REMARK                            x       y       z     vdW  Elec       q    Type
REMARK                         _______ _______ _______ _____ _____    ______ ____
ROOT
ATOM      1  C   UNL     1       6.625   4.429  16.097  0.00  0.00    +0.000 C 
ENDROOT
BRANCH   1   2
ATOM      2  N   UNL     1       7.879   4.192  16.854  0.00  0.00    +0.000 NA
ATOM      3  H   UNL     1       8.659   4.666  16.386  0.00  0.00    +0.000 HD
BRANCH   2   4
ATOM      4  N   UNL     1       7.798   4.575  18.243  0.00  0.00    +0.000 NA
ATOM      5  H   UNL     1       6.821   4.617  18.546  0.00  0.00    +0.000 HD
ATOM      6  H   UNL     1       8.199   5.491  18.456  0.00  0.00    +0.000 HD
ENDBRANCH   2   4
ENDBRANCH   1   2
BRANCH   1   7
ATOM      7  C   UNL     1       6.859   4.676  14.583  0.00  0.00    +0.000 C 
BRANCH   7   9
ATOM      8  C   UNL     1       6.544   3.625  12.303  0.00  0.00    +0.000 C 
ATOM      9  C   UNL     1       5.948   3.825  13.687  0.00  0.00    +0.000 C 
ENDBRANCH   7   9
ENDBRANCH   1   7
BRANCH   1  10
ATOM     10  C   UNL     1       5.700   5.522  16.739  0.00  0.00    +0.000 C 
BRANCH  10  11
ATOM     11  C   UNL     1       4.312   5.058  17.164  0.00  0.00    +0.000 A 
ATOM     12  C   UNL     1       3.432   5.971  17.768  0.00  0.00    +0.000 A 
ATOM     13  C   UNL     1       2.148   5.579  18.159  0.00  0.00    +0.000 A 
ATOM     14  C   UNL     1       1.721   4.272  17.945  0.00  0.00    +0.000 A 
ATOM     15  C   UNL     1       2.571   3.360  17.327  0.00  0.00    +0.000 A 
ATOM     16  C   UNL     1       3.852   3.751  16.932  0.00  0.00    +0.000 A 
ENDBRANCH  10  11
BRANCH  10  17
ATOM     17  O   UNL     1       5.543   6.611  15.820  0.00  0.00    +0.000 OA
ATOM     18  H   UNL     1       5.270   7.391  16.334  0.00  0.00    +0.000 HD
ENDBRANCH  10  17
ENDBRANCH   1  10
TORSDOF 7
ENDMDL
MODEL 2
REMARK VINA RESULT:      -6.3      2.979      5.440
REMARK  Name = 
REMARK  8 active torsions:
REMARK  status: ('A' for Active; 'I' for Inactive)
REMARK    1  A    between atoms: C_1  and  C_2
REMARK    2  A    between atoms: C_2  and  C_3
REMARK    3  A    between atoms: C_3  and  C_4
REMARK    4  A    between atoms: C_4  and  N_5
REMARK    5  A    between atoms: C_4  and  C_7
REMARK    6  A    between atoms: N_5  and  N_6
REMARK    7  A    between atoms: C_7  and  O_8
REMARK    8  A    between atoms: C_7  and  C_9
REMARK                            x       y       z     vdW  Elec       q    Type
REMARK                         _______ _______ _______ _____ _____    ______ ____
ROOT
ATOM      1  C   UNL     1       2.947   2.837  19.015  0.00  0.00    +0.000 C 
ENDROOT
BRANCH   1   2
ATOM      2  N   UNL     1       3.063   1.769  17.992  0.00  0.00    +0.000 NA
ATOM      3  H   UNL     1       3.303   2.183  17.085  0.00  0.00    +0.000 HD
BRANCH   2   4
ATOM      4  N   UNL     1       3.995   0.725  18.347  0.00  0.00    +0.000 NA
ATOM      5  H   UNL     1       4.224   0.775  19.344  0.00  0.00    +0.000 HD
ATOM      6  H   UNL     1       4.887   0.763  17.850  0.00  0.00    +0.000 HD
ENDBRANCH   2   4
ENDBRANCH   1   2
BRANCH   1   7
ATOM      7  C   UNL     1       1.654   3.684  18.874  0.00  0.00    +0.000 C 
BRANCH   7   9
ATOM      8  C   UNL     1       1.309   2.869  21.244  0.00  0.00    +0.000 C 
ATOM      9  C   UNL     1       0.945   3.925  20.214  0.00  0.00    +0.000 C 
ENDBRANCH   7   9
ENDBRANCH   1   7
BRANCH   1  10
ATOM     10  C   UNL     1       4.231   3.732  19.136  0.00  0.00    +0.000 C 
BRANCH  10  11
ATOM     11  C   UNL     1       4.589   4.558  17.907  0.00  0.00    +0.000 A 
ATOM     12  C   UNL     1       5.089   3.914  16.763  0.00  0.00    +0.000 A 
ATOM     13  C   UNL     1       5.417   4.642  15.616  0.00  0.00    +0.000 A 
ATOM     14  C   UNL     1       5.243   6.022  15.590  0.00  0.00    +0.000 A 
ATOM     15  C   UNL     1       4.728   6.674  16.707  0.00  0.00    +0.000 A 
ATOM     16  C   UNL     1       4.395   5.948  17.852  0.00  0.00    +0.000 A 
ENDBRANCH  10  11
BRANCH  10  17
ATOM     17  O   UNL     1       5.357   2.906  19.461  0.00  0.00    +0.000 OA
ATOM     18  H   UNL     1       5.744   2.596  18.624  0.00  0.00    +0.000 HD
ENDBRANCH  10  17
ENDBRANCH   1  10
TORSDOF 7
ENDMDL
MODEL 3
REMARK VINA RESULT:      -6.1      2.756      5.244
REMARK  Name = 
REMARK  8 active torsions:
REMARK  status: ('A' for Active; 'I' for Inactive)
REMARK    1  A    between atoms: C_1  and  C_2
REMARK    2  A    between atoms: C_2  and  C_3
REMARK    3  A    between atoms: C_3  and  C_4
REMARK    4  A    between atoms: C_4  and  N_5
REMARK    5  A    between atoms: C_4  and  C_7
REMARK    6  A    between atoms: N_5  and  N_6
REMARK    7  A    between atoms: C_7  and  O_8
REMARK    8  A    between atoms: C_7  and  C_9
REMARK                            x       y       z     vdW  Elec       q    Type
REMARK                         _______ _______ _______ _____ _____    ______ ____
ROOT
ATOM      1  C   UNL     1       2.981   2.684  18.963  0.00  0.00    +0.000 C 
ENDROOT
BRANCH   1   2
ATOM      2  N   UNL     1       4.047   1.655  19.019  0.00  0.00    +0.000 NA
ATOM      3  H   UNL     1       4.483   1.557  18.095  0.00  0.00    +0.000 HD
BRANCH   2   4
ATOM      4  N   UNL     1       5.041   1.904  20.036  0.00  0.00    +0.000 NA
ATOM      5  H   UNL     1       5.656   2.673  19.753  0.00  0.00    +0.000 HD
ATOM      6  H   UNL     1       5.654   1.112  20.236  0.00  0.00    +0.000 HD
ENDBRANCH   2   4
ENDBRANCH   1   2
BRANCH   1   7
ATOM      7  C   UNL     1       1.649   2.224  19.612  0.00  0.00    +0.000 C 
BRANCH   7   9
ATOM      8  C   UNL     1       2.106   4.251  21.056  0.00  0.00    +0.000 C 
ATOM      9  C   UNL     1       1.348   2.940  20.937  0.00  0.00    +0.000 C 
ENDBRANCH   7   9
ENDBRANCH   1   7
BRANCH   1  10
ATOM     10  C   UNL     1       2.763   3.286  17.530  0.00  0.00    +0.000 C 
BRANCH  10  11
ATOM     11  C   UNL     1       3.677   4.444  17.145  0.00  0.00    +0.000 A 
ATOM     12  C   UNL     1       3.469   5.709  17.718  0.00  0.00    +0.000 A 
ATOM     13  C   UNL     1       4.296   6.788  17.393  0.00  0.00    +0.000 A 
ATOM     14  C   UNL     1       5.348   6.619  16.498  0.00  0.00    +0.000 A 
ATOM     15  C   UNL     1       5.582   5.366  15.938  0.00  0.00    +0.000 A 
ATOM     16  C   UNL     1       4.760   4.286  16.265  0.00  0.00    +0.000 A 
ENDBRANCH  10  11
BRANCH  10  17
ATOM     17  O   UNL     1       1.406   3.729  17.402  0.00  0.00    +0.000 OA
ATOM     18  H   UNL     1       0.994   3.671  18.282  0.00  0.00    +0.000 HD
ENDBRANCH  10  17
ENDBRANCH   1  10
TORSDOF 7
ENDMDL
MODEL 4
REMARK VINA RESULT:      -6.1      1.146      1.354
REMARK  Name = 
REMARK  8 active torsions:
REMARK  status: ('A' for Active; 'I' for Inactive)
REMARK    1  A    between atoms: C_1  and  C_2
REMARK    2  A    between atoms: C_2  and  C_3
REMARK    3  A    between atoms: C_3  and  C_4
REMARK    4  A    between atoms: C_4  and  N_5
REMARK    5  A    between atoms: C_4  and  C_7
REMARK    6  A    between atoms: N_5  and  N_6
REMARK    7  A    between atoms: C_7  and  O_8
REMARK    8  A    between atoms: C_7  and  C_9
REMARK                            x       y       z     vdW  Elec       q    Type
REMARK                         _______ _______ _______ _____ _____    ______ ____
ROOT
ATOM      1  C   UNL     1       6.015   4.325  16.032  0.00  0.00    +0.000 C 
ENDROOT
BRANCH   1   2
ATOM      2  N   UNL     1       7.415   4.812  16.089  0.00  0.00    +0.000 NA
ATOM      3  H   UNL     1       7.926   4.497  15.257  0.00  0.00    +0.000 HD
BRANCH   2   4
ATOM      4  N   UNL     1       7.525   6.242  16.252  0.00  0.00    +0.000 NA
ATOM      5  H   UNL     1       8.484   6.501  16.502  0.00  0.00    +0.000 HD
ATOM      6  H   UNL     1       6.928   6.635  16.983  0.00  0.00    +0.000 HD
ENDBRANCH   2   4
ENDBRANCH   1   2
BRANCH   1   7
ATOM      7  C   UNL     1       5.413   4.356  14.601  0.00  0.00    +0.000 C 
BRANCH   7   9
ATOM      8  C   UNL     1       5.721   3.326  12.311  0.00  0.00    +0.000 C 
ATOM      9  C   UNL     1       6.416   3.934  13.518  0.00  0.00    +0.000 C 
ENDBRANCH   7   9
ENDBRANCH   1   7
BRANCH   1  10
ATOM     10  C   UNL     1       5.070   5.002  17.086  0.00  0.00    +0.000 C 
BRANCH  10  11
ATOM     11  C   UNL     1       3.857   4.186  17.518  0.00  0.00    +0.000 A 
ATOM     12  C   UNL     1       2.636   4.838  17.756  0.00  0.00    +0.000 A 
ATOM     13  C   UNL     1       1.502   4.117  18.143  0.00  0.00    +0.000 A 
ATOM     14  C   UNL     1       1.569   2.734  18.289  0.00  0.00    +0.000 A 
ATOM     15  C   UNL     1       2.765   2.071  18.035  0.00  0.00    +0.000 A 
ATOM     16  C   UNL     1       3.898   2.789  17.644  0.00  0.00    +0.000 A 
ENDBRANCH  10  11
BRANCH  10  17
ATOM     17  O   UNL     1       4.603   6.255  16.570  0.00  0.00    +0.000 OA
ATOM     18  H   UNL     1       5.376   6.738  16.228  0.00  0.00    +0.000 HD
ENDBRANCH  10  17
ENDBRANCH   1  10
TORSDOF 7
ENDMDL
MODEL 5
REMARK VINA RESULT:      -6.1      1.138      1.811
REMARK  Name = 
REMARK  8 active torsions:
REMARK  status: ('A' for Active; 'I' for Inactive)
REMARK    1  A    between atoms: C_1  and  C_2
REMARK    2  A    between atoms: C_2  and  C_3
REMARK    3  A    between atoms: C_3  and  C_4
REMARK    4  A    between atoms: C_4  and  N_5
REMARK    5  A    between atoms: C_4  and  C_7
REMARK    6  A    between atoms: N_5  and  N_6
REMARK    7  A    between atoms: C_7  and  O_8
REMARK    8  A    between atoms: C_7  and  C_9
REMARK                            x       y       z     vdW  Elec       q    Type
REMARK                         _______ _______ _______ _____ _____    ______ ____
ROOT
ATOM      1  C   UNL     1       6.006   4.243  15.980  0.00  0.00    +0.000 C 
ENDROOT
BRANCH   1   2
ATOM      2  N   UNL     1       7.405   4.735  16.001  0.00  0.00    +0.000 NA
ATOM      3  H   UNL     1       7.873   4.483  15.124  0.00  0.00    +0.000 HD
BRANCH   2   4
ATOM      4  N   UNL     1       7.517   6.151  16.259  0.00  0.00    +0.000 NA
ATOM      5  H   UNL     1       6.799   6.666  15.743  0.00  0.00    +0.000 HD
ATOM      6  H   UNL     1       8.412   6.564  15.987  0.00  0.00    +0.000 HD
ENDBRANCH   2   4
ENDBRANCH   1   2
BRANCH   1   7
ATOM      7  C   UNL     1       5.395   4.189  14.554  0.00  0.00    +0.000 C 
BRANCH   7   9
ATOM      8  C   UNL     1       5.864   3.276  12.241  0.00  0.00    +0.000 C 
ATOM      9  C   UNL     1       6.448   3.975  13.458  0.00  0.00    +0.000 C 
ENDBRANCH   7   9
ENDBRANCH   1   7
BRANCH   1  10
ATOM     10  C   UNL     1       5.065   4.978  16.999  0.00  0.00    +0.000 C 
BRANCH  10  11
ATOM     11  C   UNL     1       3.832   4.205  17.450  0.00  0.00    +0.000 A 
ATOM     12  C   UNL     1       3.914   2.813  17.621  0.00  0.00    +0.000 A 
ATOM     13  C   UNL     1       2.803   2.076  18.043  0.00  0.00    +0.000 A 
ATOM     14  C   UNL     1       1.598   2.719  18.309  0.00  0.00    +0.000 A 
ATOM     15  C   UNL     1       1.506   4.100  18.166  0.00  0.00    +0.000 A 
ATOM     16  C   UNL     1       2.615   4.838  17.749  0.00  0.00    +0.000 A 
ENDBRANCH  10  11
BRANCH  10  17
ATOM     17  O   UNL     1       4.628   6.220  16.430  0.00  0.00    +0.000 OA
ATOM     18  H   UNL     1       5.410   6.663  16.057  0.00  0.00    +0.000 HD
ENDBRANCH  10  17
ENDBRANCH   1  10
TORSDOF 7
ENDMDL
MODEL 6
REMARK VINA RESULT:      -6.0      1.805      2.636
REMARK  Name = 
REMARK  8 active torsions:
REMARK  status: ('A' for Active; 'I' for Inactive)
REMARK    1  A    between atoms: C_1  and  C_2
REMARK    2  A    between atoms: C_2  and  C_3
REMARK    3  A    between atoms: C_3  and  C_4
REMARK    4  A    between atoms: C_4  and  N_5
REMARK    5  A    between atoms: C_4  and  C_7
REMARK    6  A    between atoms: N_5  and  N_6
REMARK    7  A    between atoms: C_7  and  O_8
REMARK    8  A    between atoms: C_7  and  C_9
REMARK                            x       y       z     vdW  Elec       q    Type
REMARK                         _______ _______ _______ _____ _____    ______ ____
ROOT
ATOM      1  C   UNL     1       6.844   4.338  14.477  0.00  0.00    +0.000 C 
ENDROOT
BRANCH   1   2
ATOM      2  N   UNL     1       7.481   5.651  14.210  0.00  0.00    +0.000 NA
ATOM      3  H   UNL     1       7.853   6.039  15.084  0.00  0.00    +0.000 HD
BRANCH   2   4
ATOM      4  N   UNL     1       8.500   5.604  13.189  0.00  0.00    +0.000 NA
ATOM      5  H   UNL     1       8.078   5.679  12.259  0.00  0.00    +0.000 HD
ATOM      6  H   UNL     1       9.054   4.745  13.179  0.00  0.00    +0.000 HD
ENDBRANCH   2   4
ENDBRANCH   1   2
BRANCH   1   7
ATOM      7  C   UNL     1       5.546   4.107  13.658  0.00  0.00    +0.000 C 
BRANCH   7   9
ATOM      8  C   UNL     1       4.516   3.197  11.534  0.00  0.00    +0.000 C 
ATOM      9  C   UNL     1       5.787   3.329  12.357  0.00  0.00    +0.000 C 
ENDBRANCH   7   9
ENDBRANCH   1   7
BRANCH   1  10
ATOM     10  C   UNL     1       6.643   4.036  16.004  0.00  0.00    +0.000 C 
BRANCH  10  11
ATOM     11  C   UNL     1       5.403   4.645  16.648  0.00  0.00    +0.000 A 
ATOM     12  C   UNL     1       4.350   3.806  17.049  0.00  0.00    +0.000 A 
ATOM     13  C   UNL     1       3.204   4.334  17.652  0.00  0.00    +0.000 A 
ATOM     14  C   UNL     1       3.097   5.703  17.872  0.00  0.00    +0.000 A 
ATOM     15  C   UNL     1       4.141   6.545  17.501  0.00  0.00    +0.000 A 
ATOM     16  C   UNL     1       5.288   6.021  16.903  0.00  0.00    +0.000 A 
ENDBRANCH  10  11
BRANCH  10  17
ATOM     17  O   UNL     1       7.792   4.489  16.733  0.00  0.00    +0.000 OA
ATOM     18  H   UNL     1       7.538   4.552  17.670  0.00  0.00    +0.000 HD
ENDBRANCH  10  17
ENDBRANCH   1  10
TORSDOF 7
ENDMDL
MODEL 7
REMARK VINA RESULT:      -6.0      2.858      5.434
REMARK  Name = 
REMARK  8 active torsions:
REMARK  status: ('A' for Active; 'I' for Inactive)
REMARK    1  A    between atoms: C_1  and  C_2
REMARK    2  A    between atoms: C_2  and  C_3
REMARK    3  A    between atoms: C_3  and  C_4
REMARK    4  A    between atoms: C_4  and  N_5
REMARK    5  A    between atoms: C_4  and  C_7
REMARK    6  A    between atoms: N_5  and  N_6
REMARK    7  A    between atoms: C_7  and  O_8
REMARK    8  A    between atoms: C_7  and  C_9
REMARK                            x       y       z     vdW  Elec       q    Type
REMARK                         _______ _______ _______ _____ _____    ______ ____
ROOT
ATOM      1  C   UNL     1       3.074   2.795  19.117  0.00  0.00    +0.000 C 
ENDROOT
BRANCH   1   2
ATOM      2  N   UNL     1       4.173   1.815  19.299  0.00  0.00    +0.000 NA
ATOM      3  H   UNL     1       4.171   1.470  20.265  0.00  0.00    +0.000 HD
BRANCH   2   4
ATOM      4  N   UNL     1       4.136   0.721  18.358  0.00  0.00    +0.000 NA
ATOM      5  H   UNL     1       4.956   0.749  17.746  0.00  0.00    +0.000 HD
ATOM      6  H   UNL     1       3.322   0.719  17.740  0.00  0.00    +0.000 HD
ENDBRANCH   2   4
ENDBRANCH   1   2
BRANCH   1   7
ATOM      7  C   UNL     1       1.733   2.339  19.751  0.00  0.00    +0.000 C 
BRANCH   7   9
ATOM      8  C   UNL     1       2.160   4.480  21.029  0.00  0.00    +0.000 C 
ATOM      9  C   UNL     1       1.230   3.293  20.844  0.00  0.00    +0.000 C 
ENDBRANCH   7   9
ENDBRANCH   1   7
BRANCH   1  10
ATOM     10  C   UNL     1       2.895   3.269  17.631  0.00  0.00    +0.000 C 
BRANCH  10  11
ATOM     11  C   UNL     1       3.746   4.458  17.202  0.00  0.00    +0.000 A 
ATOM     12  C   UNL     1       4.742   4.279  16.227  0.00  0.00    +0.000 A 
ATOM     13  C   UNL     1       5.532   5.352  15.804  0.00  0.00    +0.000 A 
ATOM     14  C   UNL     1       5.335   6.621  16.341  0.00  0.00    +0.000 A 
ATOM     15  C   UNL     1       4.338   6.820  17.291  0.00  0.00    +0.000 A 
ATOM     16  C   UNL     1       3.544   5.751  17.712  0.00  0.00    +0.000 A 
ENDBRANCH  10  11
BRANCH  10  17
ATOM     17  O   UNL     1       1.519   3.601  17.402  0.00  0.00    +0.000 OA
ATOM     18  H   UNL     1       0.983   3.074  18.020  0.00  0.00    +0.000 HD
ENDBRANCH  10  17
ENDBRANCH   1  10
TORSDOF 7
ENDMDL
MODEL 8
REMARK VINA RESULT:      -6.0      2.832      4.103
REMARK  Name = 
REMARK  8 active torsions:
REMARK  status: ('A' for Active; 'I' for Inactive)
REMARK    1  A    between atoms: C_1  and  C_2
REMARK    2  A    between atoms: C_2  and  C_3
REMARK    3  A    between atoms: C_3  and  C_4
REMARK    4  A    between atoms: C_4  and  N_5
REMARK    5  A    between atoms: C_4  and  C_7
REMARK    6  A    between atoms: N_5  and  N_6
REMARK    7  A    between atoms: C_7  and  O_8
REMARK    8  A    between atoms: C_7  and  C_9
REMARK                            x       y       z     vdW  Elec       q    Type
REMARK                         _______ _______ _______ _____ _____    ______ ____
ROOT
ATOM      1  C   UNL     1       5.046   4.645  17.942  0.00  0.00    +0.000 C 
ENDROOT
BRANCH   1   2
ATOM      2  N   UNL     1       6.280   4.123  18.577  0.00  0.00    +0.000 NA
ATOM      3  H   UNL     1       6.087   3.215  19.014  0.00  0.00    +0.000 HD
BRANCH   2   4
ATOM      4  N   UNL     1       7.404   4.035  17.676  0.00  0.00    +0.000 NA
ATOM      5  H   UNL     1       8.129   3.427  18.067  0.00  0.00    +0.000 HD
ATOM      6  H   UNL     1       7.861   4.927  17.476  0.00  0.00    +0.000 HD
ENDBRANCH   2   4
ENDBRANCH   1   2
BRANCH   1   7
ATOM      7  C   UNL     1       4.535   5.963  18.583  0.00  0.00    +0.000 C 
BRANCH   7   9
ATOM      8  C   UNL     1       2.575   7.517  18.202  0.00  0.00    +0.000 C 
ATOM      9  C   UNL     1       3.805   6.873  17.585  0.00  0.00    +0.000 C 
ENDBRANCH   7   9
ENDBRANCH   1   7
BRANCH   1  10
ATOM     10  C   UNL     1       3.907   3.573  17.806  0.00  0.00    +0.000 C 
BRANCH  10  11
ATOM     11  C   UNL     1       2.978   3.429  19.005  0.00  0.00    +0.000 A 
ATOM     12  C   UNL     1       3.450   2.808  20.174  0.00  0.00    +0.000 A 
ATOM     13  C   UNL     1       2.625   2.670  21.295  0.00  0.00    +0.000 A 
ATOM     14  C   UNL     1       1.322   3.156  21.269  0.00  0.00    +0.000 A 
ATOM     15  C   UNL     1       0.846   3.793  20.126  0.00  0.00    +0.000 A 
ATOM     16  C   UNL     1       1.669   3.936  19.007  0.00  0.00    +0.000 A 
ENDBRANCH  10  11
BRANCH  10  17
ATOM     17  O   UNL     1       4.492   2.291  17.539  0.00  0.00    +0.000 OA
ATOM     18  H   UNL     1       5.443   2.429  17.383  0.00  0.00    +0.000 HD
ENDBRANCH  10  17
ENDBRANCH   1  10
TORSDOF 7
ENDMDL
MODEL 9
REMARK VINA RESULT:      -6.0      3.414      4.762
REMARK  Name = 
REMARK  8 active torsions:
REMARK  status: ('A' for Active; 'I' for Inactive)
REMARK    1  A    between atoms: C_1  and  C_2
REMARK    2  A    between atoms: C_2  and  C_3
REMARK    3  A    between atoms: C_3  and  C_4
REMARK    4  A    between atoms: C_4  and  N_5
REMARK    5  A    between atoms: C_4  and  C_7
REMARK    6  A    between atoms: N_5  and  N_6
REMARK    7  A    between atoms: C_7  and  O_8
REMARK    8  A    between atoms: C_7  and  C_9
REMARK                            x       y       z     vdW  Elec       q    Type
REMARK                         _______ _______ _______ _____ _____    ______ ____
ROOT
ATOM      1  C   UNL     1       3.635   2.871  19.215  0.00  0.00    +0.000 C 
ENDROOT
BRANCH   1   2
ATOM      2  N   UNL     1       4.370   1.583  19.228  0.00  0.00    +0.000 NA
ATOM      3  H   UNL     1       4.871   1.462  18.341  0.00  0.00    +0.000 HD
BRANCH   2   4
ATOM      4  N   UNL     1       5.265   1.438  20.351  0.00  0.00    +0.000 NA
ATOM      5  H   UNL     1       5.990   0.746  20.143  0.00  0.00    +0.000 HD
ATOM      6  H   UNL     1       4.817   1.125  21.215  0.00  0.00    +0.000 HD
ENDBRANCH   2   4
ENDBRANCH   1   2
BRANCH   1   7
ATOM      7  C   UNL     1       2.654   3.006  18.020  0.00  0.00    +0.000 C 
BRANCH   7   9
ATOM      8  C   UNL     1       1.026   2.967  19.957  0.00  0.00    +0.000 C 
ATOM      9  C   UNL     1       1.179   2.960  18.445  0.00  0.00    +0.000 C 
ENDBRANCH   7   9
ENDBRANCH   1   7
BRANCH   1  10
ATOM     10  C   UNL     1       4.564   4.127  19.363  0.00  0.00    +0.000 C 
BRANCH  10  11
ATOM     11  C   UNL     1       3.987   5.448  18.866  0.00  0.00    +0.000 A 
ATOM     12  C   UNL     1       4.481   6.015  17.679  0.00  0.00    +0.000 A 
ATOM     13  C   UNL     1       3.966   7.220  17.192  0.00  0.00    +0.000 A 
ATOM     14  C   UNL     1       2.945   7.871  17.876  0.00  0.00    +0.000 A 
ATOM     15  C   UNL     1       2.428   7.312  19.041  0.00  0.00    +0.000 A 
ATOM     16  C   UNL     1       2.938   6.106  19.528  0.00  0.00    +0.000 A 
ENDBRANCH  10  11
BRANCH  10  17
ATOM     17  O   UNL     1       5.796   3.891  18.668  0.00  0.00    +0.000 OA
ATOM     18  H   UNL     1       6.112   4.748  18.332  0.00  0.00    +0.000 HD
ENDBRANCH  10  17
ENDBRANCH   1  10
TORSDOF 7
ENDMDL
