MODEL 1
REMARK VINA RESULT:      -8.2      0.000      0.000
REMARK  Name = 
REMARK  7 active torsions:
REMARK  status: ('A' for Active; 'I' for Inactive)
REMARK    1  A    between atoms: C_1  and  O_2
REMARK    2  A    between atoms: O_2  and  C_3
REMARK    3  A    between atoms: C_7  and  N_8
REMARK    4  A    between atoms: N_13  and  N_14
REMARK    5  A    between atoms: C_15  and  C_16
REMARK    6  A    between atoms: C_19  and  S_20
REMARK    7  A    between atoms: S_20  and  C_21
REMARK                            x       y       z     vdW  Elec       q    Type
REMARK                         _______ _______ _______ _____ _____    ______ ____
ROOT
ATOM      1  N   UNL     1      -1.387  11.599  22.575  0.00  0.00    +0.000 N 
ATOM      2  N   UNL     1      -1.011  10.755  23.588  0.00  0.00    +0.000 NA
ATOM      3  C   UNL     1      -0.303   9.803  22.977  0.00  0.00    +0.000 A 
ATOM      4  C   UNL     1      -0.154  10.018  21.597  0.00  0.00    +0.000 A 
ATOM      5  C   UNL     1       0.485   9.396  20.510  0.00  0.00    +0.000 A 
ATOM      6  N   UNL     1       1.129   8.153  20.633  0.00  0.00    +0.000 N 
ATOM      7  N   UNL     1       0.432  10.029  19.307  0.00  0.00    +0.000 NA
ATOM      8  C   UNL     1      -0.249  11.176  19.201  0.00  0.00    +0.000 A 
ATOM      9  N   UNL     1      -0.918  11.821  20.164  0.00  0.00    +0.000 NA
ATOM     10  C   UNL     1      -0.832  11.202  21.361  0.00  0.00    +0.000 A 
ATOM     11  H   UNL     1       0.953   7.627  21.481  0.00  0.00    +0.000 HD
ENDROOT
BRANCH   1  16
ATOM     12  C   UNL     1      -2.585  14.972  23.644  0.00  0.00    +0.000 A 
ATOM     13  C   UNL     1      -3.942  14.873  23.332  0.00  0.00    +0.000 A 
ATOM     14  C   UNL     1      -4.457  13.697  22.780  0.00  0.00    +0.000 A 
ATOM     15  C   UNL     1      -3.618  12.618  22.528  0.00  0.00    +0.000 A 
ATOM     16  C   UNL     1      -2.253  12.697  22.845  0.00  0.00    +0.000 A 
ATOM     17  C   UNL     1      -1.753  13.882  23.408  0.00  0.00    +0.000 A 
BRANCH  12  19
ATOM     18  C   UNL     1      -3.059  16.771  25.120  0.00  0.00    +0.000 C 
ATOM     19  O   UNL     1      -2.179  16.168  24.171  0.00  0.00    +0.000 OA
ENDBRANCH  12  19
ENDBRANCH   1  16
BRANCH   6  20
ATOM     20  N   UNL     1       2.173   7.867  19.810  0.00  0.00    +0.000 NA
ATOM     21  C   UNL     1       2.397   6.608  19.606  0.00  0.00    +0.000 C 
BRANCH  21  22
ATOM     22  C   UNL     1       3.518   6.138  18.759  0.00  0.00    +0.000 A 
ATOM     23  C   UNL     1       3.755   6.717  17.507  0.00  0.00    +0.000 A 
ATOM     24  C   UNL     1       4.841   6.298  16.734  0.00  0.00    +0.000 A 
ATOM     25  C   UNL     1       5.694   5.303  17.223  0.00  0.00    +0.000 A 
ATOM     26  C   UNL     1       5.441   4.689  18.455  0.00  0.00    +0.000 A 
ATOM     27  C   UNL     1       4.356   5.118  19.229  0.00  0.00    +0.000 A 
BRANCH  25  28
ATOM     28  S   UNL     1       7.105   4.805  16.260  0.00  0.00    +0.000 S 
ATOM     29  C   UNL     1       6.426   3.633  15.110  0.00  0.00    +0.000 C 
ATOM     30  O   UNL     1       7.552   5.963  15.510  0.00  0.00    +0.000 OA
ATOM     31  O   UNL     1       8.010   4.094  17.142  0.00  0.00    +0.000 OA
ENDBRANCH  25  28
ENDBRANCH  21  22
ENDBRANCH   6  20
TORSDOF 5
ENDMDL
MODEL 2
REMARK VINA RESULT:      -8.0      1.115      1.843
REMARK  Name = 
REMARK  7 active torsions:
REMARK  status: ('A' for Active; 'I' for Inactive)
REMARK    1  A    between atoms: C_1  and  O_2
REMARK    2  A    between atoms: O_2  and  C_3
REMARK    3  A    between atoms: C_7  and  N_8
REMARK    4  A    between atoms: N_13  and  N_14
REMARK    5  A    between atoms: C_15  and  C_16
REMARK    6  A    between atoms: C_19  and  S_20
REMARK    7  A    between atoms: S_20  and  C_21
REMARK                            x       y       z     vdW  Elec       q    Type
REMARK                         _______ _______ _______ _____ _____    ______ ____
ROOT
ATOM      1  N   UNL     1      -1.112  11.378  22.711  0.00  0.00    +0.000 N 
ATOM      2  N   UNL     1      -0.711  10.447  23.635  0.00  0.00    +0.000 NA
ATOM      3  C   UNL     1      -0.068   9.525  22.915  0.00  0.00    +0.000 A 
ATOM      4  C   UNL     1       0.015   9.843  21.550  0.00  0.00    +0.000 A 
ATOM      5  C   UNL     1       0.574   9.288  20.385  0.00  0.00    +0.000 A 
ATOM      6  N   UNL     1       1.183   8.022  20.378  0.00  0.00    +0.000 N 
ATOM      7  N   UNL     1       0.479  10.014  19.238  0.00  0.00    +0.000 NA
ATOM      8  C   UNL     1      -0.168  11.185  19.257  0.00  0.00    +0.000 A 
ATOM      9  N   UNL     1      -0.763  11.773  20.301  0.00  0.00    +0.000 NA
ATOM     10  C   UNL     1      -0.635  11.061  21.441  0.00  0.00    +0.000 A 
ATOM     11  H   UNL     1       1.034   7.437  21.191  0.00  0.00    +0.000 HD
ENDROOT
BRANCH   1  16
ATOM     12  C   UNL     1      -4.118  13.394  23.635  0.00  0.00    +0.000 A 
ATOM     13  C   UNL     1      -3.522  14.617  23.944  0.00  0.00    +0.000 A 
ATOM     14  C   UNL     1      -2.138  14.776  23.839  0.00  0.00    +0.000 A 
ATOM     15  C   UNL     1      -1.341  13.711  23.435  0.00  0.00    +0.000 A 
ATOM     16  C   UNL     1      -1.926  12.477  23.111  0.00  0.00    +0.000 A 
ATOM     17  C   UNL     1      -3.319  12.336  23.213  0.00  0.00    +0.000 A 
BRANCH  12  19
ATOM     18  C   UNL     1      -6.238  13.244  22.574  0.00  0.00    +0.000 C 
ATOM     19  O   UNL     1      -5.478  13.339  23.779  0.00  0.00    +0.000 OA
ENDBRANCH  12  19
ENDBRANCH   1  16
BRANCH   6  20
ATOM     20  N   UNL     1       2.172   7.771  19.479  0.00  0.00    +0.000 NA
ATOM     21  C   UNL     1       2.471   6.522  19.310  0.00  0.00    +0.000 C 
BRANCH  21  22
ATOM     22  C   UNL     1       3.549   6.091  18.388  0.00  0.00    +0.000 A 
ATOM     23  C   UNL     1       3.926   4.745  18.316  0.00  0.00    +0.000 A 
ATOM     24  C   UNL     1       4.913   4.341  17.412  0.00  0.00    +0.000 A 
ATOM     25  C   UNL     1       5.511   5.287  16.575  0.00  0.00    +0.000 A 
ATOM     26  C   UNL     1       5.170   6.641  16.669  0.00  0.00    +0.000 A 
ATOM     27  C   UNL     1       4.176   7.040  17.571  0.00  0.00    +0.000 A 
BRANCH  25  28
ATOM     28  S   UNL     1       6.732   4.763  15.389  0.00  0.00    +0.000 S 
ATOM     29  C   UNL     1       6.004   3.315  14.663  0.00  0.00    +0.000 C 
ATOM     30  O   UNL     1       6.811   5.788  14.365  0.00  0.00    +0.000 OA
ATOM     31  O   UNL     1       7.911   4.352  16.124  0.00  0.00    +0.000 OA
ENDBRANCH  25  28
ENDBRANCH  21  22
ENDBRANCH   6  20
TORSDOF 5
ENDMDL
MODEL 3
REMARK VINA RESULT:      -8.0      8.577     10.695
REMARK  Name = 
REMARK  7 active torsions:
REMARK  status: ('A' for Active; 'I' for Inactive)
REMARK    1  A    between atoms: C_1  and  O_2
REMARK    2  A    between atoms: O_2  and  C_3
REMARK    3  A    between atoms: C_7  and  N_8
REMARK    4  A    between atoms: N_13  and  N_14
REMARK    5  A    between atoms: C_15  and  C_16
REMARK    6  A    between atoms: C_19  and  S_20
REMARK    7  A    between atoms: S_20  and  C_21
REMARK                            x       y       z     vdW  Elec       q    Type
REMARK                         _______ _______ _______ _____ _____    ______ ____
ROOT
ATOM      1  N   UNL     1       5.046   4.585  18.847  0.00  0.00    +0.000 N 
ATOM      2  N   UNL     1       5.978   4.480  19.848  0.00  0.00    +0.000 NA
ATOM      3  C   UNL     1       6.864   5.440  19.573  0.00  0.00    +0.000 A 
ATOM      4  C   UNL     1       6.521   6.210  18.451  0.00  0.00    +0.000 A 
ATOM      5  C   UNL     1       7.036   7.317  17.752  0.00  0.00    +0.000 A 
ATOM      6  N   UNL     1       8.281   7.888  18.069  0.00  0.00    +0.000 N 
ATOM      7  N   UNL     1       6.295   7.806  16.722  0.00  0.00    +0.000 NA
ATOM      8  C   UNL     1       5.148   7.199  16.395  0.00  0.00    +0.000 A 
ATOM      9  N   UNL     1       4.599   6.125  16.973  0.00  0.00    +0.000 NA
ATOM     10  C   UNL     1       5.325   5.667  18.015  0.00  0.00    +0.000 A 
ATOM     11  H   UNL     1       8.884   7.359  18.687  0.00  0.00    +0.000 HD
ENDROOT
BRANCH   1  16
ATOM     12  C   UNL     1       2.082   2.508  19.771  0.00  0.00    +0.000 A 
ATOM     13  C   UNL     1       1.865   1.822  18.575  0.00  0.00    +0.000 A 
ATOM     14  C   UNL     1       2.699   2.040  17.474  0.00  0.00    +0.000 A 
ATOM     15  C   UNL     1       3.746   2.951  17.560  0.00  0.00    +0.000 A 
ATOM     16  C   UNL     1       3.983   3.640  18.759  0.00  0.00    +0.000 A 
ATOM     17  C   UNL     1       3.143   3.404  19.858  0.00  0.00    +0.000 A 
BRANCH  12  19
ATOM     18  C   UNL     1       1.499   2.818  22.052  0.00  0.00    +0.000 C 
ATOM     19  O   UNL     1       1.204   2.231  20.785  0.00  0.00    +0.000 OA
ENDBRANCH  12  19
ENDBRANCH   1  16
BRANCH   6  20
ATOM     20  N   UNL     1       8.482   9.209  17.819  0.00  0.00    +0.000 NA
ATOM     21  C   UNL     1       9.202   9.840  18.691  0.00  0.00    +0.000 C 
BRANCH  21  22
ATOM     22  C   UNL     1       9.483  11.291  18.574  0.00  0.00    +0.000 A 
ATOM     23  C   UNL     1      10.620  11.845  19.173  0.00  0.00    +0.000 A 
ATOM     24  C   UNL     1      10.901  13.206  19.020  0.00  0.00    +0.000 A 
ATOM     25  C   UNL     1      10.045  14.006  18.259  0.00  0.00    +0.000 A 
ATOM     26  C   UNL     1       8.883  13.470  17.691  0.00  0.00    +0.000 A 
ATOM     27  C   UNL     1       8.611  12.104  17.841  0.00  0.00    +0.000 A 
BRANCH  25  28
ATOM     28  S   UNL     1      10.429  15.728  18.024  0.00  0.00    +0.000 S 
ATOM     29  C   UNL     1       8.831  16.501  17.956  0.00  0.00    +0.000 C 
ATOM     30  O   UNL     1      11.103  16.191  19.222  0.00  0.00    +0.000 OA
ATOM     31  O   UNL     1      11.049  15.866  16.720  0.00  0.00    +0.000 OA
ENDBRANCH  25  28
ENDBRANCH  21  22
ENDBRANCH   6  20
TORSDOF 5
ENDMDL
MODEL 4
REMARK VINA RESULT:      -7.9      8.577     10.659
REMARK  Name = 
REMARK  7 active torsions:
REMARK  status: ('A' for Active; 'I' for Inactive)
REMARK    1  A    between atoms: C_1  and  O_2
REMARK    2  A    between atoms: O_2  and  C_3
REMARK    3  A    between atoms: C_7  and  N_8
REMARK    4  A    between atoms: N_13  and  N_14
REMARK    5  A    between atoms: C_15  and  C_16
REMARK    6  A    between atoms: C_19  and  S_20
REMARK    7  A    between atoms: S_20  and  C_21
REMARK                            x       y       z     vdW  Elec       q    Type
REMARK                         _______ _______ _______ _____ _____    ______ ____
ROOT
ATOM      1  N   UNL     1       5.016   4.594  18.834  0.00  0.00    +0.000 N 
ATOM      2  N   UNL     1       5.950   4.452  19.827  0.00  0.00    +0.000 NA
ATOM      3  C   UNL     1       6.853   5.400  19.568  0.00  0.00    +0.000 A 
ATOM      4  C   UNL     1       6.520   6.200  18.464  0.00  0.00    +0.000 A 
ATOM      5  C   UNL     1       7.052   7.310  17.784  0.00  0.00    +0.000 A 
ATOM      6  N   UNL     1       8.308   7.852  18.107  0.00  0.00    +0.000 N 
ATOM      7  N   UNL     1       6.315   7.834  16.768  0.00  0.00    +0.000 NA
ATOM      8  C   UNL     1       5.155   7.256  16.435  0.00  0.00    +0.000 A 
ATOM      9  N   UNL     1       4.589   6.180  16.994  0.00  0.00    +0.000 NA
ATOM     10  C   UNL     1       5.311   5.687  18.022  0.00  0.00    +0.000 A 
ATOM     11  H   UNL     1       8.904   7.299  18.711  0.00  0.00    +0.000 HD
ENDROOT
BRANCH   1  16
ATOM     12  C   UNL     1       1.960   2.626  19.694  0.00  0.00    +0.000 A 
ATOM     13  C   UNL     1       1.785   1.896  18.517  0.00  0.00    +0.000 A 
ATOM     14  C   UNL     1       2.675   2.049  17.451  0.00  0.00    +0.000 A 
ATOM     15  C   UNL     1       3.740   2.938  17.552  0.00  0.00    +0.000 A 
ATOM     16  C   UNL     1       3.936   3.671  18.732  0.00  0.00    +0.000 A 
ATOM     17  C   UNL     1       3.037   3.500  19.797  0.00  0.00    +0.000 A 
BRANCH  12  19
ATOM     18  C   UNL     1       1.446   2.677  22.012  0.00  0.00    +0.000 C 
ATOM     19  O   UNL     1       1.028   2.411  20.673  0.00  0.00    +0.000 OA
ENDBRANCH  12  19
ENDBRANCH   1  16
BRANCH   6  20
ATOM     20  N   UNL     1       8.533   9.174  17.883  0.00  0.00    +0.000 NA
ATOM     21  C   UNL     1       9.166   9.801  18.823  0.00  0.00    +0.000 C 
BRANCH  21  22
ATOM     22  C   UNL     1       9.457  11.252  18.740  0.00  0.00    +0.000 A 
ATOM     23  C   UNL     1       8.779  12.062  17.822  0.00  0.00    +0.000 A 
ATOM     24  C   UNL     1       9.028  13.437  17.782  0.00  0.00    +0.000 A 
ATOM     25  C   UNL     1       9.951  13.997  18.669  0.00  0.00    +0.000 A 
ATOM     26  C   UNL     1      10.665  13.190  19.561  0.00  0.00    +0.000 A 
ATOM     27  C   UNL     1      10.406  11.814  19.603  0.00  0.00    +0.000 A 
BRANCH  25  28
ATOM     28  S   UNL     1      10.231  15.756  18.650  0.00  0.00    +0.000 S 
ATOM     29  C   UNL     1      11.961  15.893  18.274  0.00  0.00    +0.000 C 
ATOM     30  O   UNL     1       9.483  16.303  17.535  0.00  0.00    +0.000 OA
ATOM     31  O   UNL     1      10.025  16.247  19.999  0.00  0.00    +0.000 OA
ENDBRANCH  25  28
ENDBRANCH  21  22
ENDBRANCH   6  20
TORSDOF 5
ENDMDL
MODEL 5
REMARK VINA RESULT:      -7.7      2.271      3.171
REMARK  Name = 
REMARK  7 active torsions:
REMARK  status: ('A' for Active; 'I' for Inactive)
REMARK    1  A    between atoms: C_1  and  O_2
REMARK    2  A    between atoms: O_2  and  C_3
REMARK    3  A    between atoms: C_7  and  N_8
REMARK    4  A    between atoms: N_13  and  N_14
REMARK    5  A    between atoms: C_15  and  C_16
REMARK    6  A    between atoms: C_19  and  S_20
REMARK    7  A    between atoms: S_20  and  C_21
REMARK                            x       y       z     vdW  Elec       q    Type
REMARK                         _______ _______ _______ _____ _____    ______ ____
ROOT
ATOM      1  N   UNL     1      -3.554  12.221  19.654  0.00  0.00    +0.000 N 
ATOM      2  N   UNL     1      -3.715  11.889  18.333  0.00  0.00    +0.000 NA
ATOM      3  C   UNL     1      -2.501  11.496  17.942  0.00  0.00    +0.000 A 
ATOM      4  C   UNL     1      -1.552  11.508  18.977  0.00  0.00    +0.000 A 
ATOM      5  C   UNL     1      -0.195  11.181  19.148  0.00  0.00    +0.000 A 
ATOM      6  N   UNL     1       0.624  10.804  18.070  0.00  0.00    +0.000 N 
ATOM      7  N   UNL     1       0.317  11.273  20.404  0.00  0.00    +0.000 NA
ATOM      8  C   UNL     1      -0.465  11.704  21.400  0.00  0.00    +0.000 A 
ATOM      9  N   UNL     1      -1.750  12.072  21.329  0.00  0.00    +0.000 NA
ATOM     10  C   UNL     1      -2.258  11.946  20.084  0.00  0.00    +0.000 A 
ATOM     11  H   UNL     1       0.259  10.962  17.139  0.00  0.00    +0.000 HD
ENDROOT
BRANCH   1  16
ATOM     12  C   UNL     1      -5.568  14.607  21.705  0.00  0.00    +0.000 A 
ATOM     13  C   UNL     1      -6.780  13.920  21.781  0.00  0.00    +0.000 A 
ATOM     14  C   UNL     1      -6.927  12.674  21.166  0.00  0.00    +0.000 A 
ATOM     15  C   UNL     1      -5.867  12.113  20.463  0.00  0.00    +0.000 A 
ATOM     16  C   UNL     1      -4.639  12.786  20.385  0.00  0.00    +0.000 A 
ATOM     17  C   UNL     1      -4.504  14.032  21.016  0.00  0.00    +0.000 A 
BRANCH  12  19
ATOM     18  C   UNL     1      -5.409  15.796  23.754  0.00  0.00    +0.000 C 
ATOM     19  O   UNL     1      -5.530  15.823  22.332  0.00  0.00    +0.000 OA
ENDBRANCH  12  19
ENDBRANCH   1  16
BRANCH   6  20
ATOM     20  N   UNL     1       1.678   9.976  18.301  0.00  0.00    +0.000 NA
ATOM     21  C   UNL     1       1.534   8.757  17.889  0.00  0.00    +0.000 C 
BRANCH  21  22
ATOM     22  C   UNL     1       2.581   7.729  18.097  0.00  0.00    +0.000 A 
ATOM     23  C   UNL     1       3.681   7.651  17.237  0.00  0.00    +0.000 A 
ATOM     24  C   UNL     1       4.687   6.708  17.467  0.00  0.00    +0.000 A 
ATOM     25  C   UNL     1       4.590   5.849  18.566  0.00  0.00    +0.000 A 
ATOM     26  C   UNL     1       3.473   5.892  19.408  0.00  0.00    +0.000 A 
ATOM     27  C   UNL     1       2.472   6.844  19.178  0.00  0.00    +0.000 A 
BRANCH  25  28
ATOM     28  S   UNL     1       5.894   4.681  18.887  0.00  0.00    +0.000 S 
ATOM     29  C   UNL     1       6.696   4.518  17.310  0.00  0.00    +0.000 C 
ATOM     30  O   UNL     1       6.826   5.311  19.802  0.00  0.00    +0.000 OA
ATOM     31  O   UNL     1       5.277   3.410  19.210  0.00  0.00    +0.000 OA
ENDBRANCH  25  28
ENDBRANCH  21  22
ENDBRANCH   6  20
TORSDOF 5
ENDMDL
MODEL 6
REMARK VINA RESULT:      -7.7      3.524     11.690
REMARK  Name = 
REMARK  7 active torsions:
REMARK  status: ('A' for Active; 'I' for Inactive)
REMARK    1  A    between atoms: C_1  and  O_2
REMARK    2  A    between atoms: O_2  and  C_3
REMARK    3  A    between atoms: C_7  and  N_8
REMARK    4  A    between atoms: N_13  and  N_14
REMARK    5  A    between atoms: C_15  and  C_16
REMARK    6  A    between atoms: C_19  and  S_20
REMARK    7  A    between atoms: S_20  and  C_21
REMARK                            x       y       z     vdW  Elec       q    Type
REMARK                         _______ _______ _______ _____ _____    ______ ____
ROOT
ATOM      1  N   UNL     1       4.109   5.409  18.278  0.00  0.00    +0.000 N 
ATOM      2  N   UNL     1       3.783   4.593  19.330  0.00  0.00    +0.000 NA
ATOM      3  C   UNL     1       2.991   5.345  20.097  0.00  0.00    +0.000 A 
ATOM      4  C   UNL     1       2.740   6.617  19.559  0.00  0.00    +0.000 A 
ATOM      5  C   UNL     1       1.991   7.760  19.895  0.00  0.00    +0.000 A 
ATOM      6  N   UNL     1       1.311   7.874  21.119  0.00  0.00    +0.000 N 
ATOM      7  N   UNL     1       1.971   8.780  18.996  0.00  0.00    +0.000 NA
ATOM      8  C   UNL     1       2.686   8.675  17.870  0.00  0.00    +0.000 A 
ATOM      9  N   UNL     1       3.455   7.651  17.483  0.00  0.00    +0.000 NA
ATOM     10  C   UNL     1       3.442   6.629  18.366  0.00  0.00    +0.000 A 
ATOM     11  H   UNL     1       1.535   7.192  21.834  0.00  0.00    +0.000 HD
ENDROOT
BRANCH   1  16
ATOM     12  C   UNL     1       5.512   4.270  15.009  0.00  0.00    +0.000 A 
ATOM     13  C   UNL     1       6.863   4.145  15.338  0.00  0.00    +0.000 A 
ATOM     14  C   UNL     1       7.304   4.428  16.634  0.00  0.00    +0.000 A 
ATOM     15  C   UNL     1       6.399   4.846  17.604  0.00  0.00    +0.000 A 
ATOM     16  C   UNL     1       5.037   4.967  17.291  0.00  0.00    +0.000 A 
ATOM     17  C   UNL     1       4.608   4.670  15.988  0.00  0.00    +0.000 A 
BRANCH  12  19
ATOM     18  C   UNL     1       6.267   3.616  12.854  0.00  0.00    +0.000 C 
ATOM     19  O   UNL     1       5.185   3.979  13.712  0.00  0.00    +0.000 OA
ENDBRANCH  12  19
ENDBRANCH   1  16
BRANCH   6  20
ATOM     20  N   UNL     1       0.194   8.646  21.182  0.00  0.00    +0.000 NA
ATOM     21  C   UNL     1       0.347   9.809  21.733  0.00  0.00    +0.000 C 
BRANCH  21  22
ATOM     22  C   UNL     1      -0.783  10.751  21.904  0.00  0.00    +0.000 A 
ATOM     23  C   UNL     1      -1.364  10.944  23.162  0.00  0.00    +0.000 A 
ATOM     24  C   UNL     1      -2.401  11.869  23.323  0.00  0.00    +0.000 A 
ATOM     25  C   UNL     1      -2.846  12.604  22.221  0.00  0.00    +0.000 A 
ATOM     26  C   UNL     1      -2.299  12.389  20.951  0.00  0.00    +0.000 A 
ATOM     27  C   UNL     1      -1.256  11.467  20.797  0.00  0.00    +0.000 A 
BRANCH  25  28
ATOM     28  S   UNL     1      -4.131  13.817  22.436  0.00  0.00    +0.000 S 
ATOM     29  C   UNL     1      -3.237  15.295  22.850  0.00  0.00    +0.000 C 
ATOM     30  O   UNL     1      -4.760  14.019  21.145  0.00  0.00    +0.000 OA
ATOM     31  O   UNL     1      -4.914  13.427  23.593  0.00  0.00    +0.000 OA
ENDBRANCH  25  28
ENDBRANCH  21  22
ENDBRANCH   6  20
TORSDOF 5
ENDMDL
MODEL 7
REMARK VINA RESULT:      -7.7      1.238      1.841
REMARK  Name = 
REMARK  7 active torsions:
REMARK  status: ('A' for Active; 'I' for Inactive)
REMARK    1  A    between atoms: C_1  and  O_2
REMARK    2  A    between atoms: O_2  and  C_3
REMARK    3  A    between atoms: C_7  and  N_8
REMARK    4  A    between atoms: N_13  and  N_14
REMARK    5  A    between atoms: C_15  and  C_16
REMARK    6  A    between atoms: C_19  and  S_20
REMARK    7  A    between atoms: S_20  and  C_21
REMARK                            x       y       z     vdW  Elec       q    Type
REMARK                         _______ _______ _______ _____ _____    ______ ____
ROOT
ATOM      1  N   UNL     1      -1.079  11.407  22.638  0.00  0.00    +0.000 N 
ATOM      2  N   UNL     1      -0.769  10.504  23.622  0.00  0.00    +0.000 NA
ATOM      3  C   UNL     1      -0.106   9.537  22.984  0.00  0.00    +0.000 A 
ATOM      4  C   UNL     1       0.077   9.796  21.617  0.00  0.00    +0.000 A 
ATOM      5  C   UNL     1       0.697   9.181  20.515  0.00  0.00    +0.000 A 
ATOM      6  N   UNL     1       1.268   7.899  20.599  0.00  0.00    +0.000 N 
ATOM      7  N   UNL     1       0.700   9.862  19.337  0.00  0.00    +0.000 NA
ATOM      8  C   UNL     1       0.088  11.049  19.266  0.00  0.00    +0.000 A 
ATOM      9  N   UNL     1      -0.559  11.695  20.245  0.00  0.00    +0.000 NA
ATOM     10  C   UNL     1      -0.528  11.026  21.417  0.00  0.00    +0.000 A 
ATOM     11  H   UNL     1       1.047   7.352  21.422  0.00  0.00    +0.000 HD
ENDROOT
BRANCH   1  16
ATOM     12  C   UNL     1      -4.082  13.561  23.186  0.00  0.00    +0.000 A 
ATOM     13  C   UNL     1      -3.474  14.755  23.577  0.00  0.00    +0.000 A 
ATOM     14  C   UNL     1      -2.082  14.848  23.652  0.00  0.00    +0.000 A 
ATOM     15  C   UNL     1      -1.290  13.747  23.345  0.00  0.00    +0.000 A 
ATOM     16  C   UNL     1      -1.886  12.543  22.939  0.00  0.00    +0.000 A 
ATOM     17  C   UNL     1      -3.285  12.468  22.861  0.00  0.00    +0.000 A 
BRANCH  12  19
ATOM     18  C   UNL     1      -6.059  13.013  21.991  0.00  0.00    +0.000 C 
ATOM     19  O   UNL     1      -5.450  13.570  23.155  0.00  0.00    +0.000 OA
ENDBRANCH  12  19
ENDBRANCH   1  16
BRANCH   6  20
ATOM     20  N   UNL     1       2.306   7.585  19.779  0.00  0.00    +0.000 NA
ATOM     21  C   UNL     1       2.219   6.442  19.177  0.00  0.00    +0.000 C 
BRANCH  21  22
ATOM     22  C   UNL     1       3.286   5.946  18.277  0.00  0.00    +0.000 A 
ATOM     23  C   UNL     1       4.139   6.842  17.623  0.00  0.00    +0.000 A 
ATOM     24  C   UNL     1       5.172   6.364  16.811  0.00  0.00    +0.000 A 
ATOM     25  C   UNL     1       5.351   4.985  16.664  0.00  0.00    +0.000 A 
ATOM     26  C   UNL     1       4.478   4.082  17.280  0.00  0.00    +0.000 A 
ATOM     27  C   UNL     1       3.450   4.566  18.099  0.00  0.00    +0.000 A 
BRANCH  25  28
ATOM     28  S   UNL     1       6.697   4.376  15.670  0.00  0.00    +0.000 S 
ATOM     29  C   UNL     1       6.927   5.657  14.461  0.00  0.00    +0.000 C 
ATOM     30  O   UNL     1       7.877   4.335  16.512  0.00  0.00    +0.000 OA
ATOM     31  O   UNL     1       6.232   3.188  14.981  0.00  0.00    +0.000 OA
ENDBRANCH  25  28
ENDBRANCH  21  22
ENDBRANCH   6  20
TORSDOF 5
ENDMDL
MODEL 8
REMARK VINA RESULT:      -7.7      3.571     11.670
REMARK  Name = 
REMARK  7 active torsions:
REMARK  status: ('A' for Active; 'I' for Inactive)
REMARK    1  A    between atoms: C_1  and  O_2
REMARK    2  A    between atoms: O_2  and  C_3
REMARK    3  A    between atoms: C_7  and  N_8
REMARK    4  A    between atoms: N_13  and  N_14
REMARK    5  A    between atoms: C_15  and  C_16
REMARK    6  A    between atoms: C_19  and  S_20
REMARK    7  A    between atoms: S_20  and  C_21
REMARK                            x       y       z     vdW  Elec       q    Type
REMARK                         _______ _______ _______ _____ _____    ______ ____
ROOT
ATOM      1  N   UNL     1       4.169   5.297  17.995  0.00  0.00    +0.000 N 
ATOM      2  N   UNL     1       3.892   4.456  19.042  0.00  0.00    +0.000 NA
ATOM      3  C   UNL     1       3.138   5.191  19.863  0.00  0.00    +0.000 A 
ATOM      4  C   UNL     1       2.863   6.475  19.368  0.00  0.00    +0.000 A 
ATOM      5  C   UNL     1       2.133   7.610  19.764  0.00  0.00    +0.000 A 
ATOM      6  N   UNL     1       1.510   7.695  21.022  0.00  0.00    +0.000 N 
ATOM      7  N   UNL     1       2.072   8.651  18.892  0.00  0.00    +0.000 NA
ATOM      8  C   UNL     1       2.733   8.573  17.731  0.00  0.00    +0.000 A 
ATOM      9  N   UNL     1       3.482   7.557  17.285  0.00  0.00    +0.000 NA
ATOM     10  C   UNL     1       3.508   6.515  18.143  0.00  0.00    +0.000 A 
ATOM     11  H   UNL     1       1.767   6.997  21.709  0.00  0.00    +0.000 HD
ENDROOT
BRANCH   1  16
ATOM     12  C   UNL     1       5.406   4.174  14.654  0.00  0.00    +0.000 A 
ATOM     13  C   UNL     1       6.778   4.101  14.899  0.00  0.00    +0.000 A 
ATOM     14  C   UNL     1       7.288   4.414  16.162  0.00  0.00    +0.000 A 
ATOM     15  C   UNL     1       6.432   4.810  17.184  0.00  0.00    +0.000 A 
ATOM     16  C   UNL     1       5.049   4.878  16.956  0.00  0.00    +0.000 A 
ATOM     17  C   UNL     1       4.551   4.552  15.685  0.00  0.00    +0.000 A 
BRANCH  12  19
ATOM     18  C   UNL     1       6.038   3.436  12.487  0.00  0.00    +0.000 C 
ATOM     19  O   UNL     1       5.009   3.858  13.383  0.00  0.00    +0.000 OA
ENDBRANCH  12  19
ENDBRANCH   1  16
BRANCH   6  20
ATOM     20  N   UNL     1       0.399   8.466  21.155  0.00  0.00    +0.000 NA
ATOM     21  C   UNL     1       0.609   9.696  21.503  0.00  0.00    +0.000 C 
BRANCH  21  22
ATOM     22  C   UNL     1      -0.503  10.652  21.719  0.00  0.00    +0.000 A 
ATOM     23  C   UNL     1      -1.010  11.406  20.655  0.00  0.00    +0.000 A 
ATOM     24  C   UNL     1      -2.089  12.271  20.860  0.00  0.00    +0.000 A 
ATOM     25  C   UNL     1      -2.662  12.371  22.130  0.00  0.00    +0.000 A 
ATOM     26  C   UNL     1      -2.136  11.653  23.210  0.00  0.00    +0.000 A 
ATOM     27  C   UNL     1      -1.060  10.781  22.998  0.00  0.00    +0.000 A 
BRANCH  25  28
ATOM     28  S   UNL     1      -4.067  13.437  22.379  0.00  0.00    +0.000 S 
ATOM     29  C   UNL     1      -4.487  13.172  24.084  0.00  0.00    +0.000 C 
ATOM     30  O   UNL     1      -3.607  14.804  22.236  0.00  0.00    +0.000 OA
ATOM     31  O   UNL     1      -5.154  12.927  21.565  0.00  0.00    +0.000 OA
ENDBRANCH  25  28
ENDBRANCH  21  22
ENDBRANCH   6  20
TORSDOF 5
ENDMDL
MODEL 9
REMARK VINA RESULT:      -7.6      3.740     11.527
REMARK  Name = 
REMARK  7 active torsions:
REMARK  status: ('A' for Active; 'I' for Inactive)
REMARK    1  A    between atoms: C_1  and  O_2
REMARK    2  A    between atoms: O_2  and  C_3
REMARK    3  A    between atoms: C_7  and  N_8
REMARK    4  A    between atoms: N_13  and  N_14
REMARK    5  A    between atoms: C_15  and  C_16
REMARK    6  A    between atoms: C_19  and  S_20
REMARK    7  A    between atoms: S_20  and  C_21
REMARK                            x       y       z     vdW  Elec       q    Type
REMARK                         _______ _______ _______ _____ _____    ______ ____
ROOT
ATOM      1  N   UNL     1       2.660   6.583  19.027  0.00  0.00    +0.000 N 
ATOM      2  N   UNL     1       2.275   5.978  20.196  0.00  0.00    +0.000 NA
ATOM      3  C   UNL     1       1.617   6.932  20.859  0.00  0.00    +0.000 A 
ATOM      4  C   UNL     1       1.510   8.135  20.143  0.00  0.00    +0.000 A 
ATOM      5  C   UNL     1       0.928   9.403  20.321  0.00  0.00    +0.000 A 
ATOM      6  N   UNL     1       0.317   9.782  21.528  0.00  0.00    +0.000 N 
ATOM      7  N   UNL     1       1.003  10.277  19.281  0.00  0.00    +0.000 NA
ATOM      8  C   UNL     1       1.653   9.916  18.168  0.00  0.00    +0.000 A 
ATOM      9  N   UNL     1       2.268   8.753  17.922  0.00  0.00    +0.000 NA
ATOM     10  C   UNL     1       2.159   7.880  18.947  0.00  0.00    +0.000 A 
ATOM     11  H   UNL     1       0.481   9.187  22.331  0.00  0.00    +0.000 HD
ENDROOT
BRANCH   1  16
ATOM     12  C   UNL     1       5.502   5.765  16.746  0.00  0.00    +0.000 A 
ATOM     13  C   UNL     1       5.126   4.493  16.312  0.00  0.00    +0.000 A 
ATOM     14  C   UNL     1       3.937   3.914  16.765  0.00  0.00    +0.000 A 
ATOM     15  C   UNL     1       3.124   4.600  17.660  0.00  0.00    +0.000 A 
ATOM     16  C   UNL     1       3.483   5.883  18.098  0.00  0.00    +0.000 A 
ATOM     17  C   UNL     1       4.676   6.454  17.627  0.00  0.00    +0.000 A 
BRANCH  12  19
ATOM     18  C   UNL     1       7.466   7.041  17.138  0.00  0.00    +0.000 C 
ATOM     19  O   UNL     1       6.689   6.237  16.252  0.00  0.00    +0.000 OA
ENDBRANCH  12  19
ENDBRANCH   1  16
BRANCH   6  20
ATOM     20  N   UNL     1      -0.688  10.697  21.499  0.00  0.00    +0.000 NA
ATOM     21  C   UNL     1      -0.944  11.284  22.625  0.00  0.00    +0.000 C 
BRANCH  21  22
ATOM     22  C   UNL     1      -2.031  12.281  22.761  0.00  0.00    +0.000 A 
ATOM     23  C   UNL     1      -2.041  13.435  21.968  0.00  0.00    +0.000 A 
ATOM     24  C   UNL     1      -3.095  14.348  22.071  0.00  0.00    +0.000 A 
ATOM     25  C   UNL     1      -4.141  14.097  22.964  0.00  0.00    +0.000 A 
ATOM     26  C   UNL     1      -4.119  12.968  23.790  0.00  0.00    +0.000 A 
ATOM     27  C   UNL     1      -3.065  12.052  23.677  0.00  0.00    +0.000 A 
BRANCH  25  28
ATOM     28  S   UNL     1      -5.507  15.235  23.059  0.00  0.00    +0.000 S 
ATOM     29  C   UNL     1      -5.026  16.346  24.359  0.00  0.00    +0.000 C 
ATOM     30  O   UNL     1      -5.537  15.983  21.817  0.00  0.00    +0.000 OA
ATOM     31  O   UNL     1      -6.667  14.492  23.509  0.00  0.00    +0.000 OA
ENDBRANCH  25  28
ENDBRANCH  21  22
ENDBRANCH   6  20
TORSDOF 5
ENDMDL
