MODEL 1
REMARK VINA RESULT:      -7.6      0.000      0.000
REMARK  Name = 
REMARK  6 active torsions:
REMARK  status: ('A' for Active; 'I' for Inactive)
REMARK    1  A    between atoms: C_1  and  C_2
REMARK    2  A    between atoms: C_2  and  C_3
REMARK    3  A    between atoms: C_3  and  C_4
REMARK    4  A    between atoms: C_6  and  O_7
REMARK    5  A    between atoms: N_10  and  C_11
REMARK    6  A    between atoms: C_11  and  C_12
REMARK                            x       y       z     vdW  Elec       q    Type
REMARK                         _______ _______ _______ _____ _____    ______ ____
ROOT
ATOM      1  C   UNL     1       6.248   3.802  12.560  0.00  0.00    +0.000 A 
ATOM      2  C   UNL     1       7.380   4.506  12.208  0.00  0.00    +0.000 A 
ATOM      3  C   UNL     1       7.924   5.263  13.213  0.00  0.00    +0.000 A 
ATOM      4  N   UNL     1       7.431   5.366  14.448  0.00  0.00    +0.000 NA
ATOM      5  C   UNL     1       6.329   4.649  14.708  0.00  0.00    +0.000 A 
ATOM      6  N   UNL     1       5.743   4.835  15.937  0.00  0.00    +0.000 N 
ATOM      7  N   UNL     1       5.735   3.856  13.803  0.00  0.00    +0.000 NA
ATOM      8  H   UNL     1       6.301   5.419  16.542  0.00  0.00    +0.000 HD
ENDROOT
BRANCH   3   9
ATOM      9  O   UNL     1       9.049   6.011  12.989  0.00  0.00    +0.000 OA
ATOM     10  H   UNL     1       9.613   5.965  13.780  0.00  0.00    +0.000 HD
ENDBRANCH   3   9
BRANCH   1  11
ATOM     11  C   UNL     1       5.543   2.924  11.558  0.00  0.00    +0.000 C 
BRANCH  11  13
ATOM     12  C   UNL     1       3.578   3.729  10.200  0.00  0.00    +0.000 C 
ATOM     13  C   UNL     1       4.035   3.189  11.545  0.00  0.00    +0.000 C 
ENDBRANCH  11  13
ENDBRANCH   1  11
BRANCH   6  14
ATOM     14  C   UNL     1       5.030   3.714  16.518  0.00  0.00    +0.000 C 
BRANCH  14  15
ATOM     15  C   UNL     1       4.111   4.230  17.607  0.00  0.00    +0.000 A 
ATOM     16  C   UNL     1       2.747   3.898  17.594  0.00  0.00    +0.000 A 
ATOM     17  C   UNL     1       1.891   4.383  18.581  0.00  0.00    +0.000 A 
ATOM     18  C   UNL     1       2.392   5.195  19.595  0.00  0.00    +0.000 A 
ATOM     19 CL   UNL     1       1.330   5.811  20.801  0.00  0.00    +0.000 Cl
ATOM     20  C   UNL     1       3.747   5.514  19.638  0.00  0.00    +0.000 A 
ATOM     21  C   UNL     1       4.607   5.029  18.645  0.00  0.00    +0.000 A 
ENDBRANCH  14  15
ENDBRANCH   6  14
TORSDOF 5
ENDMDL
MODEL 2
REMARK VINA RESULT:      -7.6      0.028      1.109
REMARK  Name = 
REMARK  6 active torsions:
REMARK  status: ('A' for Active; 'I' for Inactive)
REMARK    1  A    between atoms: C_1  and  C_2
REMARK    2  A    between atoms: C_2  and  C_3
REMARK    3  A    between atoms: C_3  and  C_4
REMARK    4  A    between atoms: C_6  and  O_7
REMARK    5  A    between atoms: N_10  and  C_11
REMARK    6  A    between atoms: C_11  and  C_12
REMARK                            x       y       z     vdW  Elec       q    Type
REMARK                         _______ _______ _______ _____ _____    ______ ____
ROOT
ATOM      1  C   UNL     1       6.247   3.813  12.568  0.00  0.00    +0.000 A 
ATOM      2  C   UNL     1       7.378   4.516  12.211  0.00  0.00    +0.000 A 
ATOM      3  C   UNL     1       7.927   5.272  13.215  0.00  0.00    +0.000 A 
ATOM      4  N   UNL     1       7.440   5.373  14.453  0.00  0.00    +0.000 NA
ATOM      5  C   UNL     1       6.339   4.658  14.717  0.00  0.00    +0.000 A 
ATOM      6  N   UNL     1       5.759   4.842  15.948  0.00  0.00    +0.000 N 
ATOM      7  N   UNL     1       5.740   3.866  13.813  0.00  0.00    +0.000 NA
ATOM      8  H   UNL     1       6.319   5.425  16.551  0.00  0.00    +0.000 HD
ENDROOT
BRANCH   3   9
ATOM      9  O   UNL     1       9.052   6.019  12.987  0.00  0.00    +0.000 OA
ATOM     10  H   UNL     1       8.781   6.894  12.661  0.00  0.00    +0.000 HD
ENDBRANCH   3   9
BRANCH   1  11
ATOM     11  C   UNL     1       5.536   2.937  11.568  0.00  0.00    +0.000 C 
BRANCH  11  13
ATOM     12  C   UNL     1       3.565   3.708  10.201  0.00  0.00    +0.000 C 
ATOM     13  C   UNL     1       4.030   3.207  11.558  0.00  0.00    +0.000 C 
ENDBRANCH  11  13
ENDBRANCH   1  11
BRANCH   6  14
ATOM     14  C   UNL     1       5.047   3.721  16.531  0.00  0.00    +0.000 C 
BRANCH  14  15
ATOM     15  C   UNL     1       4.102   4.241  17.596  0.00  0.00    +0.000 A 
ATOM     16  C   UNL     1       4.585   5.073  18.619  0.00  0.00    +0.000 A 
ATOM     17  C   UNL     1       3.728   5.542  19.613  0.00  0.00    +0.000 A 
ATOM     18  C   UNL     1       2.380   5.192  19.587  0.00  0.00    +0.000 A 
ATOM     19 CL   UNL     1       1.327   5.752  20.828  0.00  0.00    +0.000 Cl
ATOM     20  C   UNL     1       1.880   4.388  18.566  0.00  0.00    +0.000 A 
ATOM     21  C   UNL     1       2.741   3.915  17.568  0.00  0.00    +0.000 A 
ENDBRANCH  14  15
ENDBRANCH   6  14
TORSDOF 5
ENDMDL
MODEL 3
REMARK VINA RESULT:      -7.4      2.169      3.153
REMARK  Name = 
REMARK  6 active torsions:
REMARK  status: ('A' for Active; 'I' for Inactive)
REMARK    1  A    between atoms: C_1  and  C_2
REMARK    2  A    between atoms: C_2  and  C_3
REMARK    3  A    between atoms: C_3  and  C_4
REMARK    4  A    between atoms: C_6  and  O_7
REMARK    5  A    between atoms: N_10  and  C_11
REMARK    6  A    between atoms: C_11  and  C_12
REMARK                            x       y       z     vdW  Elec       q    Type
REMARK                         _______ _______ _______ _____ _____    ______ ____
ROOT
ATOM      1  C   UNL     1       5.731   4.579  15.315  0.00  0.00    +0.000 A 
ATOM      2  C   UNL     1       6.889   4.048  15.841  0.00  0.00    +0.000 A 
ATOM      3  C   UNL     1       7.248   4.548  17.067  0.00  0.00    +0.000 A 
ATOM      4  N   UNL     1       6.579   5.488  17.737  0.00  0.00    +0.000 NA
ATOM      5  C   UNL     1       5.464   5.950  17.156  0.00  0.00    +0.000 A 
ATOM      6  N   UNL     1       4.829   6.998  17.777  0.00  0.00    +0.000 N 
ATOM      7  N   UNL     1       5.011   5.508  15.973  0.00  0.00    +0.000 NA
ATOM      8  H   UNL     1       5.236   7.214  18.674  0.00  0.00    +0.000 HD
ENDROOT
BRANCH   3   9
ATOM      9  O   UNL     1       8.381   4.104  17.695  0.00  0.00    +0.000 OA
ATOM     10  H   UNL     1       8.158   3.885  18.615  0.00  0.00    +0.000 HD
ENDBRANCH   3   9
BRANCH   1  11
ATOM     11  C   UNL     1       5.212   4.123  13.976  0.00  0.00    +0.000 C 
BRANCH  11  13
ATOM     12  C   UNL     1       5.895   2.848  11.912  0.00  0.00    +0.000 C 
ATOM     13  C   UNL     1       6.357   3.778  13.020  0.00  0.00    +0.000 C 
ENDBRANCH  11  13
ENDBRANCH   1  11
BRANCH   6  14
ATOM     14  C   UNL     1       3.391   7.100  17.623  0.00  0.00    +0.000 C 
BRANCH  14  15
ATOM     15  C   UNL     1       2.731   6.033  18.473  0.00  0.00    +0.000 A 
ATOM     16  C   UNL     1       2.790   6.112  19.874  0.00  0.00    +0.000 A 
ATOM     17  C   UNL     1       2.203   5.126  20.664  0.00  0.00    +0.000 A 
ATOM     18  C   UNL     1       1.542   4.058  20.062  0.00  0.00    +0.000 A 
ATOM     19 CL   UNL     1       0.836   2.829  21.038  0.00  0.00    +0.000 Cl
ATOM     20  C   UNL     1       1.452   3.977  18.674  0.00  0.00    +0.000 A 
ATOM     21  C   UNL     1       2.045   4.966  17.880  0.00  0.00    +0.000 A 
ENDBRANCH  14  15
ENDBRANCH   6  14
TORSDOF 5
ENDMDL
MODEL 4
REMARK VINA RESULT:      -7.4      0.767      1.676
REMARK  Name = 
REMARK  6 active torsions:
REMARK  status: ('A' for Active; 'I' for Inactive)
REMARK    1  A    between atoms: C_1  and  C_2
REMARK    2  A    between atoms: C_2  and  C_3
REMARK    3  A    between atoms: C_3  and  C_4
REMARK    4  A    between atoms: C_6  and  O_7
REMARK    5  A    between atoms: N_10  and  C_11
REMARK    6  A    between atoms: C_11  and  C_12
REMARK                            x       y       z     vdW  Elec       q    Type
REMARK                         _______ _______ _______ _____ _____    ______ ____
ROOT
ATOM      1  C   UNL     1       6.314   3.634  12.602  0.00  0.00    +0.000 A 
ATOM      2  C   UNL     1       7.409   4.378  12.218  0.00  0.00    +0.000 A 
ATOM      3  C   UNL     1       7.894   5.228  13.178  0.00  0.00    +0.000 A 
ATOM      4  N   UNL     1       7.378   5.379  14.399  0.00  0.00    +0.000 NA
ATOM      5  C   UNL     1       6.315   4.618  14.692  0.00  0.00    +0.000 A 
ATOM      6  N   UNL     1       5.701   4.847  15.899  0.00  0.00    +0.000 N 
ATOM      7  N   UNL     1       5.780   3.736  13.833  0.00  0.00    +0.000 NA
ATOM      8  H   UNL     1       6.215   5.499  16.472  0.00  0.00    +0.000 HD
ENDROOT
BRANCH   3   9
ATOM      9  O   UNL     1       8.978   6.023  12.920  0.00  0.00    +0.000 OA
ATOM     10  H   UNL     1       9.628   5.505  12.415  0.00  0.00    +0.000 HD
ENDBRANCH   3   9
BRANCH   1  11
ATOM     11  C   UNL     1       5.675   2.655  11.650  0.00  0.00    +0.000 C 
BRANCH  11  13
ATOM     12  C   UNL     1       6.183   0.221  11.239  0.00  0.00    +0.000 C 
ATOM     13  C   UNL     1       6.695   1.646  11.117  0.00  0.00    +0.000 C 
ENDBRANCH  11  13
ENDBRANCH   1  11
BRANCH   6  14
ATOM     14  C   UNL     1       5.044   3.726  16.543  0.00  0.00    +0.000 C 
BRANCH  14  15
ATOM     15  C   UNL     1       4.100   4.255  17.604  0.00  0.00    +0.000 A 
ATOM     16  C   UNL     1       4.595   5.039  18.659  0.00  0.00    +0.000 A 
ATOM     17  C   UNL     1       3.738   5.514  19.649  0.00  0.00    +0.000 A 
ATOM     18  C   UNL     1       2.379   5.219  19.589  0.00  0.00    +0.000 A 
ATOM     19 CL   UNL     1       1.325   5.789  20.825  0.00  0.00    +0.000 Cl
ATOM     20  C   UNL     1       1.867   4.464  18.537  0.00  0.00    +0.000 A 
ATOM     21  C   UNL     1       2.728   3.984  17.543  0.00  0.00    +0.000 A 
ENDBRANCH  14  15
ENDBRANCH   6  14
TORSDOF 5
ENDMDL
MODEL 5
REMARK VINA RESULT:      -7.3      2.148      2.945
REMARK  Name = 
REMARK  6 active torsions:
REMARK  status: ('A' for Active; 'I' for Inactive)
REMARK    1  A    between atoms: C_1  and  C_2
REMARK    2  A    between atoms: C_2  and  C_3
REMARK    3  A    between atoms: C_3  and  C_4
REMARK    4  A    between atoms: C_6  and  O_7
REMARK    5  A    between atoms: N_10  and  C_11
REMARK    6  A    between atoms: C_11  and  C_12
REMARK                            x       y       z     vdW  Elec       q    Type
REMARK                         _______ _______ _______ _____ _____    ______ ____
ROOT
ATOM      1  C   UNL     1       5.745   4.641  15.223  0.00  0.00    +0.000 A 
ATOM      2  C   UNL     1       6.906   4.095  15.728  0.00  0.00    +0.000 A 
ATOM      3  C   UNL     1       7.264   4.549  16.972  0.00  0.00    +0.000 A 
ATOM      4  N   UNL     1       6.592   5.460  17.678  0.00  0.00    +0.000 NA
ATOM      5  C   UNL     1       5.474   5.939  17.115  0.00  0.00    +0.000 A 
ATOM      6  N   UNL     1       4.836   6.961  17.776  0.00  0.00    +0.000 N 
ATOM      7  N   UNL     1       5.023   5.541  15.916  0.00  0.00    +0.000 NA
ATOM      8  H   UNL     1       5.242   7.144  18.681  0.00  0.00    +0.000 HD
ENDROOT
BRANCH   3   9
ATOM      9  O   UNL     1       8.399   4.085  17.581  0.00  0.00    +0.000 OA
ATOM     10  H   UNL     1       8.314   4.226  18.539  0.00  0.00    +0.000 HD
ENDBRANCH   3   9
BRANCH   1  11
ATOM     11  C   UNL     1       5.228   4.234  13.868  0.00  0.00    +0.000 C 
BRANCH  11  13
ATOM     12  C   UNL     1       5.843   2.790  11.896  0.00  0.00    +0.000 C 
ATOM     13  C   UNL     1       6.359   3.743  12.961  0.00  0.00    +0.000 C 
ENDBRANCH  11  13
ENDBRANCH   1  11
BRANCH   6  14
ATOM     14  C   UNL     1       3.397   7.063  17.627  0.00  0.00    +0.000 C 
BRANCH  14  15
ATOM     15  C   UNL     1       2.740   5.992  18.474  0.00  0.00    +0.000 A 
ATOM     16  C   UNL     1       2.071   4.921  17.860  0.00  0.00    +0.000 A 
ATOM     17  C   UNL     1       1.448   3.942  18.630  0.00  0.00    +0.000 A 
ATOM     18  C   UNL     1       1.497   4.017  20.020  0.00  0.00    +0.000 A 
ATOM     19 CL   UNL     1       0.708   2.818  20.971  0.00  0.00    +0.000 Cl
ATOM     20  C   UNL     1       2.178   5.058  20.646  0.00  0.00    +0.000 A 
ATOM     21  C   UNL     1       2.802   6.044  19.872  0.00  0.00    +0.000 A 
ENDBRANCH  14  15
ENDBRANCH   6  14
TORSDOF 5
ENDMDL
MODEL 6
REMARK VINA RESULT:      -7.2      2.960      4.043
REMARK  Name = 
REMARK  6 active torsions:
REMARK  status: ('A' for Active; 'I' for Inactive)
REMARK    1  A    between atoms: C_1  and  C_2
REMARK    2  A    between atoms: C_2  and  C_3
REMARK    3  A    between atoms: C_3  and  C_4
REMARK    4  A    between atoms: C_6  and  O_7
REMARK    5  A    between atoms: N_10  and  C_11
REMARK    6  A    between atoms: C_11  and  C_12
REMARK                            x       y       z     vdW  Elec       q    Type
REMARK                         _______ _______ _______ _____ _____    ______ ____
ROOT
ATOM      1  C   UNL     1       5.779   4.730  15.933  0.00  0.00    +0.000 A 
ATOM      2  C   UNL     1       7.062   4.322  16.227  0.00  0.00    +0.000 A 
ATOM      3  C   UNL     1       7.400   4.394  17.554  0.00  0.00    +0.000 A 
ATOM      4  N   UNL     1       6.598   4.832  18.527  0.00  0.00    +0.000 NA
ATOM      5  C   UNL     1       5.367   5.208  18.155  0.00  0.00    +0.000 A 
ATOM      6  N   UNL     1       4.571   5.770  19.124  0.00  0.00    +0.000 N 
ATOM      7  N   UNL     1       4.929   5.152  16.888  0.00  0.00    +0.000 NA
ATOM      8  H   UNL     1       4.991   5.721  20.040  0.00  0.00    +0.000 HD
ENDROOT
BRANCH   3   9
ATOM      9  O   UNL     1       8.648   4.019  17.976  0.00  0.00    +0.000 OA
ATOM     10  H   UNL     1       9.303   4.599  17.552  0.00  0.00    +0.000 HD
ENDBRANCH   3   9
BRANCH   1  11
ATOM     11  C   UNL     1       5.268   4.704  14.515  0.00  0.00    +0.000 C 
BRANCH  11  13
ATOM     12  C   UNL     1       5.444   3.426  12.350  0.00  0.00    +0.000 C 
ATOM     13  C   UNL     1       6.172   3.864  13.610  0.00  0.00    +0.000 C 
ENDBRANCH  11  13
ENDBRANCH   1  11
BRANCH   6  14
ATOM     14  C   UNL     1       3.137   5.588  19.006  0.00  0.00    +0.000 C 
BRANCH  14  15
ATOM     15  C   UNL     1       2.466   6.946  19.048  0.00  0.00    +0.000 A 
ATOM     16  C   UNL     1       1.912   7.420  20.249  0.00  0.00    +0.000 A 
ATOM     17  C   UNL     1       1.276   8.659  20.294  0.00  0.00    +0.000 A 
ATOM     18  C   UNL     1       1.198   9.440  19.144  0.00  0.00    +0.000 A 
ATOM     19 CL   UNL     1       0.393  10.960  19.195  0.00  0.00    +0.000 Cl
ATOM     20  C   UNL     1       1.764   8.997  17.951  0.00  0.00    +0.000 A 
ATOM     21  C   UNL     1       2.400   7.750  17.905  0.00  0.00    +0.000 A 
ENDBRANCH  14  15
ENDBRANCH   6  14
TORSDOF 5
ENDMDL
MODEL 7
REMARK VINA RESULT:      -7.1      5.833      6.841
REMARK  Name = 
REMARK  6 active torsions:
REMARK  status: ('A' for Active; 'I' for Inactive)
REMARK    1  A    between atoms: C_1  and  C_2
REMARK    2  A    between atoms: C_2  and  C_3
REMARK    3  A    between atoms: C_3  and  C_4
REMARK    4  A    between atoms: C_6  and  O_7
REMARK    5  A    between atoms: N_10  and  C_11
REMARK    6  A    between atoms: C_11  and  C_12
REMARK                            x       y       z     vdW  Elec       q    Type
REMARK                         _______ _______ _______ _____ _____    ______ ____
ROOT
ATOM      1  C   UNL     1       6.863   5.260  16.036  0.00  0.00    +0.000 A 
ATOM      2  C   UNL     1       6.336   4.312  16.887  0.00  0.00    +0.000 A 
ATOM      3  C   UNL     1       6.387   4.640  18.217  0.00  0.00    +0.000 A 
ATOM      4  N   UNL     1       6.910   5.764  18.710  0.00  0.00    +0.000 NA
ATOM      5  C   UNL     1       7.400   6.632  17.816  0.00  0.00    +0.000 A 
ATOM      6  N   UNL     1       8.046   7.738  18.313  0.00  0.00    +0.000 N 
ATOM      7  N   UNL     1       7.374   6.419  16.491  0.00  0.00    +0.000 NA
ATOM      8  H   UNL     1       7.965   7.809  19.316  0.00  0.00    +0.000 HD
ENDROOT
BRANCH   3   9
ATOM      9  O   UNL     1       5.897   3.780  19.164  0.00  0.00    +0.000 OA
ATOM     10  H   UNL     1       6.645   3.415  19.665  0.00  0.00    +0.000 HD
ENDBRANCH   3   9
BRANCH   1  11
ATOM     11  C   UNL     1       6.873   5.038  14.545  0.00  0.00    +0.000 C 
BRANCH  11  13
ATOM     12  C   UNL     1       5.601   3.719  12.815  0.00  0.00    +0.000 C 
ATOM     13  C   UNL     1       6.271   3.680  14.178  0.00  0.00    +0.000 C 
ENDBRANCH  11  13
ENDBRANCH   1  11
BRANCH   6  14
ATOM     14  C   UNL     1       8.002   8.954  17.524  0.00  0.00    +0.000 C 
BRANCH  14  15
ATOM     15  C   UNL     1       8.651  10.073  18.314  0.00  0.00    +0.000 A 
ATOM     16  C   UNL     1       8.749  11.360  17.760  0.00  0.00    +0.000 A 
ATOM     17  C   UNL     1       9.360  12.391  18.470  0.00  0.00    +0.000 A 
ATOM     18  C   UNL     1       9.869  12.148  19.743  0.00  0.00    +0.000 A 
ATOM     19 CL   UNL     1      10.644  13.417  20.611  0.00  0.00    +0.000 Cl
ATOM     20  C   UNL     1       9.758  10.885  20.318  0.00  0.00    +0.000 A 
ATOM     21  C   UNL     1       9.146   9.848  19.603  0.00  0.00    +0.000 A 
ENDBRANCH  14  15
ENDBRANCH   6  14
TORSDOF 5
ENDMDL
MODEL 8
REMARK VINA RESULT:      -7.0      2.445      3.788
REMARK  Name = 
REMARK  6 active torsions:
REMARK  status: ('A' for Active; 'I' for Inactive)
REMARK    1  A    between atoms: C_1  and  C_2
REMARK    2  A    between atoms: C_2  and  C_3
REMARK    3  A    between atoms: C_3  and  C_4
REMARK    4  A    between atoms: C_6  and  O_7
REMARK    5  A    between atoms: N_10  and  C_11
REMARK    6  A    between atoms: C_11  and  C_12
REMARK                            x       y       z     vdW  Elec       q    Type
REMARK                         _______ _______ _______ _____ _____    ______ ____
ROOT
ATOM      1  C   UNL     1       6.071   4.453  16.301  0.00  0.00    +0.000 A 
ATOM      2  C   UNL     1       7.233   4.598  17.029  0.00  0.00    +0.000 A 
ATOM      3  C   UNL     1       7.126   5.405  18.132  0.00  0.00    +0.000 A 
ATOM      4  N   UNL     1       6.016   6.041  18.511  0.00  0.00    +0.000 NA
ATOM      5  C   UNL     1       4.931   5.846  17.750  0.00  0.00    +0.000 A 
ATOM      6  N   UNL     1       3.815   6.585  18.058  0.00  0.00    +0.000 N 
ATOM      7  N   UNL     1       4.923   5.055  16.666  0.00  0.00    +0.000 NA
ATOM      8  H   UNL     1       3.927   7.109  18.913  0.00  0.00    +0.000 HD
ENDROOT
BRANCH   3   9
ATOM      9  O   UNL     1       8.210   5.631  18.937  0.00  0.00    +0.000 OA
ATOM     10  H   UNL     1       8.660   4.783  19.093  0.00  0.00    +0.000 HD
ENDBRANCH   3   9
BRANCH   1  11
ATOM     11  C   UNL     1       6.038   3.593  15.064  0.00  0.00    +0.000 C 
BRANCH  11  13
ATOM     12  C   UNL     1       6.282   3.604  12.556  0.00  0.00    +0.000 C 
ATOM     13  C   UNL     1       6.592   4.340  13.848  0.00  0.00    +0.000 C 
ENDBRANCH  11  13
ENDBRANCH   1  11
BRANCH   6  14
ATOM     14  C   UNL     1       2.520   6.001  17.767  0.00  0.00    +0.000 C 
BRANCH  14  15
ATOM     15  C   UNL     1       2.146   5.054  18.890  0.00  0.00    +0.000 A 
ATOM     16  C   UNL     1       2.525   5.345  20.211  0.00  0.00    +0.000 A 
ATOM     17  C   UNL     1       2.201   4.472  21.247  0.00  0.00    +0.000 A 
ATOM     18  C   UNL     1       1.488   3.307  20.975  0.00  0.00    +0.000 A 
ATOM     19 CL   UNL     1       1.109   2.218  22.253  0.00  0.00    +0.000 Cl
ATOM     20  C   UNL     1       1.083   3.016  19.675  0.00  0.00    +0.000 A 
ATOM     21  C   UNL     1       1.410   3.892  18.633  0.00  0.00    +0.000 A 
ENDBRANCH  14  15
ENDBRANCH   6  14
TORSDOF 5
ENDMDL
MODEL 9
REMARK VINA RESULT:      -6.9      1.153      1.640
REMARK  Name = 
REMARK  6 active torsions:
REMARK  status: ('A' for Active; 'I' for Inactive)
REMARK    1  A    between atoms: C_1  and  C_2
REMARK    2  A    between atoms: C_2  and  C_3
REMARK    3  A    between atoms: C_3  and  C_4
REMARK    4  A    between atoms: C_6  and  O_7
REMARK    5  A    between atoms: N_10  and  C_11
REMARK    6  A    between atoms: C_11  and  C_12
REMARK                            x       y       z     vdW  Elec       q    Type
REMARK                         _______ _______ _______ _____ _____    ______ ____
ROOT
ATOM      1  C   UNL     1       6.109   3.767  12.897  0.00  0.00    +0.000 A 
ATOM      2  C   UNL     1       7.303   4.329  12.497  0.00  0.00    +0.000 A 
ATOM      3  C   UNL     1       7.864   5.194  13.400  0.00  0.00    +0.000 A 
ATOM      4  N   UNL     1       7.335   5.520  14.580  0.00  0.00    +0.000 NA
ATOM      5  C   UNL     1       6.174   4.930  14.893  0.00  0.00    +0.000 A 
ATOM      6  N   UNL     1       5.559   5.343  16.049  0.00  0.00    +0.000 N 
ATOM      7  N   UNL     1       5.556   4.048  14.092  0.00  0.00    +0.000 NA
ATOM      8  H   UNL     1       6.135   5.974  16.585  0.00  0.00    +0.000 HD
ENDROOT
BRANCH   3   9
ATOM      9  O   UNL     1       9.050   5.820  13.119  0.00  0.00    +0.000 OA
ATOM     10  H   UNL     1       9.087   6.651  13.623  0.00  0.00    +0.000 HD
ENDBRANCH   3   9
BRANCH   1  11
ATOM     11  C   UNL     1       5.378   2.794  12.007  0.00  0.00    +0.000 C 
BRANCH  11  13
ATOM     12  C   UNL     1       6.236   0.529  11.312  0.00  0.00    +0.000 C 
ATOM     13  C   UNL     1       6.346   2.030  11.101  0.00  0.00    +0.000 C 
ENDBRANCH  11  13
ENDBRANCH   1  11
BRANCH   6  14
ATOM     14  C   UNL     1       4.742   4.377  16.759  0.00  0.00    +0.000 C 
BRANCH  14  15
ATOM     15  C   UNL     1       3.911   5.105  17.796  0.00  0.00    +0.000 A 
ATOM     16  C   UNL     1       3.600   6.464  17.620  0.00  0.00    +0.000 A 
ATOM     17  C   UNL     1       2.852   7.147  18.577  0.00  0.00    +0.000 A 
ATOM     18  C   UNL     1       2.401   6.477  19.712  0.00  0.00    +0.000 A 
ATOM     19 CL   UNL     1       1.496   7.328  20.904  0.00  0.00    +0.000 Cl
ATOM     20  C   UNL     1       2.679   5.125  19.890  0.00  0.00    +0.000 A 
ATOM     21  C   UNL     1       3.433   4.438  18.930  0.00  0.00    +0.000 A 
ENDBRANCH  14  15
ENDBRANCH   6  14
TORSDOF 5
ENDMDL
