MODEL 1
REMARK VINA RESULT:      -7.0      0.000      0.000
REMARK  Name = 
REMARK  1 active torsions:
REMARK  status: ('A' for Active; 'I' for Inactive)
REMARK    1  A    between atoms: C_2  and  C_3
REMARK                            x       y       z     vdW  Elec       q    Type
REMARK                         _______ _______ _______ _____ _____    ______ ____
ROOT
ATOM      1  O   UNL     1       5.205   6.672  15.469  0.00  0.00    +0.000 OA
ATOM      2  C   UNL     1       5.303   5.482  15.807  0.00  0.00    +0.000 C 
ATOM      3  N   UNL     1       4.741   5.026  17.002  0.00  0.00    +0.000 N 
ATOM      4  C   UNL     1       4.775   3.650  17.491  0.00  0.00    +0.000 C 
ATOM      5  C   UNL     1       3.372   3.057  17.467  0.00  0.00    +0.000 C 
ATOM      6  C   UNL     1       2.398   3.934  18.263  0.00  0.00    +0.000 C 
ATOM      7  C   UNL     1       2.467   5.400  17.819  0.00  0.00    +0.000 C 
ATOM      8  C   UNL     1       3.903   5.918  17.799  0.00  0.00    +0.000 C 
ATOM      9  O   UNL     1       2.720   3.824  19.663  0.00  0.00    +0.000 OA
ATOM     10  C   UNL     1       1.477   3.575  20.314  0.00  0.00    +0.000 C 
ATOM     11  C   UNL     1       0.670   2.844  19.277  0.00  0.00    +0.000 C 
ATOM     12  O   UNL     1       1.054   3.461  18.053  0.00  0.00    +0.000 OA
ENDROOT
BRANCH   2  13
ATOM     13  C   UNL     1       6.039   4.434  14.917  0.00  0.00    +0.000 C 
ATOM     14  C   UNL     1       5.341   3.901  13.628  0.00  0.00    +0.000 C 
ATOM     15  C   UNL     1       6.720   3.933  12.939  0.00  0.00    +0.000 C 
ATOM     16  C   UNL     1       7.143   4.986  13.976  0.00  0.00    +0.000 C 
ENDBRANCH   2  13
TORSDOF 1
ENDMDL
MODEL 2
REMARK VINA RESULT:      -6.6      2.246      3.337
REMARK  Name = 
REMARK  1 active torsions:
REMARK  status: ('A' for Active; 'I' for Inactive)
REMARK    1  A    between atoms: C_2  and  C_3
REMARK                            x       y       z     vdW  Elec       q    Type
REMARK                         _______ _______ _______ _____ _____    ______ ____
ROOT
ATOM      1  O   UNL     1       6.819   4.395  16.746  0.00  0.00    +0.000 OA
ATOM      2  C   UNL     1       6.095   5.137  17.426  0.00  0.00    +0.000 C 
ATOM      3  N   UNL     1       4.749   4.831  17.636  0.00  0.00    +0.000 N 
ATOM      4  C   UNL     1       3.808   5.616  18.432  0.00  0.00    +0.000 C 
ATOM      5  C   UNL     1       3.415   4.841  19.683  0.00  0.00    +0.000 C 
ATOM      6  C   UNL     1       2.856   3.462  19.315  0.00  0.00    +0.000 C 
ATOM      7  C   UNL     1       3.801   2.702  18.377  0.00  0.00    +0.000 C 
ATOM      8  C   UNL     1       4.213   3.553  17.177  0.00  0.00    +0.000 C 
ATOM      9  O   UNL     1       1.572   3.640  18.685  0.00  0.00    +0.000 OA
ATOM     10  C   UNL     1       0.703   2.722  19.343  0.00  0.00    +0.000 C 
ATOM     11  C   UNL     1       1.280   2.610  20.727  0.00  0.00    +0.000 C 
ATOM     12  O   UNL     1       2.686   2.682  20.514  0.00  0.00    +0.000 OA
ENDROOT
BRANCH   2  13
ATOM     13  C   UNL     1       6.646   6.436  18.092  0.00  0.00    +0.000 C 
ATOM     14  C   UNL     1       7.966   6.370  18.918  0.00  0.00    +0.000 C 
ATOM     15  C   UNL     1       8.336   7.744  18.327  0.00  0.00    +0.000 C 
ATOM     16  C   UNL     1       7.393   7.424  17.157  0.00  0.00    +0.000 C 
ENDBRANCH   2  13
TORSDOF 1
ENDMDL
MODEL 3
REMARK VINA RESULT:      -6.5      2.027      2.428
REMARK  Name = 
REMARK  1 active torsions:
REMARK  status: ('A' for Active; 'I' for Inactive)
REMARK    1  A    between atoms: C_2  and  C_3
REMARK                            x       y       z     vdW  Elec       q    Type
REMARK                         _______ _______ _______ _____ _____    ______ ____
ROOT
ATOM      1  O   UNL     1       7.644   5.526  14.311  0.00  0.00    +0.000 OA
ATOM      2  C   UNL     1       6.832   4.645  14.631  0.00  0.00    +0.000 C 
ATOM      3  N   UNL     1       6.306   4.590  15.924  0.00  0.00    +0.000 N 
ATOM      4  C   UNL     1       5.332   3.614  16.410  0.00  0.00    +0.000 C 
ATOM      5  C   UNL     1       4.005   4.305  16.695  0.00  0.00    +0.000 C 
ATOM      6  C   UNL     1       4.199   5.469  17.673  0.00  0.00    +0.000 C 
ATOM      7  C   UNL     1       5.312   6.417  17.210  0.00  0.00    +0.000 C 
ATOM      8  C   UNL     1       6.595   5.660  16.874  0.00  0.00    +0.000 C 
ATOM      9  O   UNL     1       4.516   4.931  18.972  0.00  0.00    +0.000 OA
ATOM     10  C   UNL     1       3.651   5.610  19.879  0.00  0.00    +0.000 C 
ATOM     11  C   UNL     1       2.437   5.925  19.049  0.00  0.00    +0.000 C 
ATOM     12  O   UNL     1       2.974   6.222  17.764  0.00  0.00    +0.000 OA
ENDROOT
BRANCH   2  13
ATOM     13  C   UNL     1       6.347   3.567  13.614  0.00  0.00    +0.000 C 
ATOM     14  C   UNL     1       4.950   3.728  12.940  0.00  0.00    +0.000 C 
ATOM     15  C   UNL     1       5.580   3.189  11.641  0.00  0.00    +0.000 C 
ATOM     16  C   UNL     1       6.941   3.654  12.183  0.00  0.00    +0.000 C 
ENDBRANCH   2  13
TORSDOF 1
ENDMDL
MODEL 4
REMARK VINA RESULT:      -6.3      1.675      2.308
REMARK  Name = 
REMARK  1 active torsions:
REMARK  status: ('A' for Active; 'I' for Inactive)
REMARK    1  A    between atoms: C_2  and  C_3
REMARK                            x       y       z     vdW  Elec       q    Type
REMARK                         _______ _______ _______ _____ _____    ______ ____
ROOT
ATOM      1  O   UNL     1       7.826   4.583  16.714  0.00  0.00    +0.000 OA
ATOM      2  C   UNL     1       6.651   4.493  16.328  0.00  0.00    +0.000 C 
ATOM      3  N   UNL     1       5.621   4.203  17.226  0.00  0.00    +0.000 N 
ATOM      4  C   UNL     1       4.202   4.092  16.892  0.00  0.00    +0.000 C 
ATOM      5  C   UNL     1       3.430   5.243  17.525  0.00  0.00    +0.000 C 
ATOM      6  C   UNL     1       3.670   5.292  19.038  0.00  0.00    +0.000 C 
ATOM      7  C   UNL     1       5.166   5.281  19.373  0.00  0.00    +0.000 C 
ATOM      8  C   UNL     1       5.898   4.148  18.658  0.00  0.00    +0.000 C 
ATOM      9  O   UNL     1       3.019   4.157  19.642  0.00  0.00    +0.000 OA
ATOM     10  C   UNL     1       2.282   4.690  20.740  0.00  0.00    +0.000 C 
ATOM     11  C   UNL     1       1.944   6.088  20.299  0.00  0.00    +0.000 C 
ATOM     12  O   UNL     1       3.096   6.500  19.571  0.00  0.00    +0.000 OA
ENDROOT
BRANCH   2  13
ATOM     13  C   UNL     1       6.258   4.710  14.834  0.00  0.00    +0.000 C 
ATOM     14  C   UNL     1       7.365   5.079  13.799  0.00  0.00    +0.000 C 
ATOM     15  C   UNL     1       6.641   4.168  12.789  0.00  0.00    +0.000 C 
ATOM     16  C   UNL     1       6.030   3.428  13.990  0.00  0.00    +0.000 C 
ENDBRANCH   2  13
TORSDOF 1
ENDMDL
MODEL 5
REMARK VINA RESULT:      -6.3      1.205      1.221
REMARK  Name = 
REMARK  1 active torsions:
REMARK  status: ('A' for Active; 'I' for Inactive)
REMARK    1  A    between atoms: C_2  and  C_3
REMARK                            x       y       z     vdW  Elec       q    Type
REMARK                         _______ _______ _______ _____ _____    ______ ____
ROOT
ATOM      1  O   UNL     1       6.047   6.532  17.058  0.00  0.00    +0.000 OA
ATOM      2  C   UNL     1       5.802   5.317  17.074  0.00  0.00    +0.000 C 
ATOM      3  N   UNL     1       5.170   4.726  18.171  0.00  0.00    +0.000 N 
ATOM      4  C   UNL     1       4.814   3.314  18.294  0.00  0.00    +0.000 C 
ATOM      5  C   UNL     1       3.299   3.159  18.275  0.00  0.00    +0.000 C 
ATOM      6  C   UNL     1       2.651   4.019  19.366  0.00  0.00    +0.000 C 
ATOM      7  C   UNL     1       3.133   5.473  19.299  0.00  0.00    +0.000 C 
ATOM      8  C   UNL     1       4.656   5.562  19.252  0.00  0.00    +0.000 C 
ATOM      9  O   UNL     1       2.971   3.450  20.650  0.00  0.00    +0.000 OA
ATOM     10  C   UNL     1       1.731   3.384  21.350  0.00  0.00    +0.000 C 
ATOM     11  C   UNL     1       0.712   3.212  20.257  0.00  0.00    +0.000 C 
ATOM     12  O   UNL     1       1.221   4.009  19.192  0.00  0.00    +0.000 OA
ENDROOT
BRANCH   2  13
ATOM     13  C   UNL     1       6.170   4.389  15.876  0.00  0.00    +0.000 C 
ATOM     14  C   UNL     1       5.222   4.326  14.639  0.00  0.00    +0.000 C 
ATOM     15  C   UNL     1       6.480   4.253  13.752  0.00  0.00    +0.000 C 
ATOM     16  C   UNL     1       7.251   4.924  14.899  0.00  0.00    +0.000 C 
ENDBRANCH   2  13
TORSDOF 1
ENDMDL
MODEL 6
REMARK VINA RESULT:      -6.2      1.955      3.025
REMARK  Name = 
REMARK  1 active torsions:
REMARK  status: ('A' for Active; 'I' for Inactive)
REMARK    1  A    between atoms: C_2  and  C_3
REMARK                            x       y       z     vdW  Elec       q    Type
REMARK                         _______ _______ _______ _____ _____    ______ ____
ROOT
ATOM      1  O   UNL     1       5.967   3.610  15.618  0.00  0.00    +0.000 OA
ATOM      2  C   UNL     1       5.841   4.492  16.481  0.00  0.00    +0.000 C 
ATOM      3  N   UNL     1       4.638   4.654  17.171  0.00  0.00    +0.000 N 
ATOM      4  C   UNL     1       4.379   5.641  18.218  0.00  0.00    +0.000 C 
ATOM      5  C   UNL     1       4.197   4.938  19.558  0.00  0.00    +0.000 C 
ATOM      6  C   UNL     1       3.092   3.880  19.470  0.00  0.00    +0.000 C 
ATOM      7  C   UNL     1       3.314   2.928  18.289  0.00  0.00    +0.000 C 
ATOM      8  C   UNL     1       3.557   3.690  16.987  0.00  0.00    +0.000 C 
ATOM      9  O   UNL     1       1.824   4.550  19.335  0.00  0.00    +0.000 OA
ATOM     10  C   UNL     1       0.971   3.934  20.297  0.00  0.00    +0.000 C 
ATOM     11  C   UNL     1       1.914   3.502  21.387  0.00  0.00    +0.000 C 
ATOM     12  O   UNL     1       3.084   3.101  20.682  0.00  0.00    +0.000 OA
ENDROOT
BRANCH   2  13
ATOM     13  C   UNL     1       7.014   5.452  16.851  0.00  0.00    +0.000 C 
ATOM     14  C   UNL     1       6.694   6.913  17.292  0.00  0.00    +0.000 C 
ATOM     15  C   UNL     1       7.831   6.788  18.325  0.00  0.00    +0.000 C 
ATOM     16  C   UNL     1       7.636   5.265  18.260  0.00  0.00    +0.000 C 
ENDBRANCH   2  13
TORSDOF 1
ENDMDL
MODEL 7
REMARK VINA RESULT:      -6.1      2.521      5.782
REMARK  Name = 
REMARK  1 active torsions:
REMARK  status: ('A' for Active; 'I' for Inactive)
REMARK    1  A    between atoms: C_2  and  C_3
REMARK                            x       y       z     vdW  Elec       q    Type
REMARK                         _______ _______ _______ _____ _____    ______ ____
ROOT
ATOM      1  O   UNL     1       0.999   4.166  17.158  0.00  0.00    +0.000 OA
ATOM      2  C   UNL     1       1.677   3.699  18.084  0.00  0.00    +0.000 C 
ATOM      3  N   UNL     1       3.065   3.580  17.969  0.00  0.00    +0.000 N 
ATOM      4  C   UNL     1       3.966   3.065  18.998  0.00  0.00    +0.000 C 
ATOM      5  C   UNL     1       4.848   4.190  19.524  0.00  0.00    +0.000 C 
ATOM      6  C   UNL     1       5.603   4.871  18.376  0.00  0.00    +0.000 C 
ATOM      7  C   UNL     1       4.654   5.293  17.248  0.00  0.00    +0.000 C 
ATOM      8  C   UNL     1       3.749   4.143  16.810  0.00  0.00    +0.000 C 
ATOM      9  O   UNL     1       6.594   3.955  17.872  0.00  0.00    +0.000 OA
ATOM     10  C   UNL     1       7.799   4.713  17.797  0.00  0.00    +0.000 C 
ATOM     11  C   UNL     1       7.651   5.730  18.896  0.00  0.00    +0.000 C 
ATOM     12  O   UNL     1       6.263   6.049  18.875  0.00  0.00    +0.000 OA
ENDROOT
BRANCH   2  13
ATOM     13  C   UNL     1       1.028   3.233  19.424  0.00  0.00    +0.000 C 
ATOM     14  C   UNL     1       1.750   2.156  20.289  0.00  0.00    +0.000 C 
ATOM     15  C   UNL     1       1.304   2.943  21.537  0.00  0.00    +0.000 C 
ATOM     16  C   UNL     1       1.199   4.185  20.638  0.00  0.00    +0.000 C 
ENDBRANCH   2  13
TORSDOF 1
ENDMDL
MODEL 8
REMARK VINA RESULT:      -6.1      1.938      6.023
REMARK  Name = 
REMARK  1 active torsions:
REMARK  status: ('A' for Active; 'I' for Inactive)
REMARK    1  A    between atoms: C_2  and  C_3
REMARK                            x       y       z     vdW  Elec       q    Type
REMARK                         _______ _______ _______ _____ _____    ______ ____
ROOT
ATOM      1  O   UNL     1       5.597   4.123  19.334  0.00  0.00    +0.000 OA
ATOM      2  C   UNL     1       5.066   4.831  18.465  0.00  0.00    +0.000 C 
ATOM      3  N   UNL     1       5.780   5.241  17.337  0.00  0.00    +0.000 N 
ATOM      4  C   UNL     1       5.256   6.056  16.243  0.00  0.00    +0.000 C 
ATOM      5  C   UNL     1       5.169   5.221  14.972  0.00  0.00    +0.000 C 
ATOM      6  C   UNL     1       6.529   4.600  14.635  0.00  0.00    +0.000 C 
ATOM      7  C   UNL     1       7.122   3.853  15.835  0.00  0.00    +0.000 C 
ATOM      8  C   UNL     1       7.122   4.717  17.095  0.00  0.00    +0.000 C 
ATOM      9  O   UNL     1       7.422   5.650  14.215  0.00  0.00    +0.000 OA
ATOM     10  C   UNL     1       8.017   5.176  13.010  0.00  0.00    +0.000 C 
ATOM     11  C   UNL     1       6.963   4.281  12.418  0.00  0.00    +0.000 C 
ATOM     12  O   UNL     1       6.368   3.662  13.554  0.00  0.00    +0.000 OA
ENDROOT
BRANCH   2  13
ATOM     13  C   UNL     1       3.578   5.288  18.575  0.00  0.00    +0.000 C 
ATOM     14  C   UNL     1       2.462   4.419  17.920  0.00  0.00    +0.000 C 
ATOM     15  C   UNL     1       1.578   4.739  19.141  0.00  0.00    +0.000 C 
ATOM     16  C   UNL     1       2.871   5.007  19.928  0.00  0.00    +0.000 C 
ENDBRANCH   2  13
TORSDOF 1
ENDMDL
MODEL 9
REMARK VINA RESULT:      -6.1      1.217      1.341
REMARK  Name = 
REMARK  1 active torsions:
REMARK  status: ('A' for Active; 'I' for Inactive)
REMARK    1  A    between atoms: C_2  and  C_3
REMARK                            x       y       z     vdW  Elec       q    Type
REMARK                         _______ _______ _______ _____ _____    ______ ____
ROOT
ATOM      1  O   UNL     1       7.225   6.278  15.966  0.00  0.00    +0.000 OA
ATOM      2  C   UNL     1       6.667   5.171  15.996  0.00  0.00    +0.000 C 
ATOM      3  N   UNL     1       5.962   4.752  17.127  0.00  0.00    +0.000 N 
ATOM      4  C   UNL     1       5.250   3.484  17.269  0.00  0.00    +0.000 C 
ATOM      5  C   UNL     1       3.750   3.737  17.339  0.00  0.00    +0.000 C 
ATOM      6  C   UNL     1       3.417   4.720  18.466  0.00  0.00    +0.000 C 
ATOM      7  C   UNL     1       4.264   5.995  18.373  0.00  0.00    +0.000 C 
ATOM      8  C   UNL     1       5.751   5.677  18.237  0.00  0.00    +0.000 C 
ATOM      9  O   UNL     1       3.645   4.066  19.729  0.00  0.00    +0.000 OA
ATOM     10  C   UNL     1       2.474   4.321  20.500  0.00  0.00    +0.000 C 
ATOM     11  C   UNL     1       1.386   4.444  19.468  0.00  0.00    +0.000 C 
ATOM     12  O   UNL     1       2.029   5.093  18.376  0.00  0.00    +0.000 OA
ENDROOT
BRANCH   2  13
ATOM     13  C   UNL     1       6.707   4.199  14.777  0.00  0.00    +0.000 C 
ATOM     14  C   UNL     1       5.434   4.031  13.891  0.00  0.00    +0.000 C 
ATOM     15  C   UNL     1       6.367   3.965  12.666  0.00  0.00    +0.000 C 
ATOM     16  C   UNL     1       7.410   4.728  13.498  0.00  0.00    +0.000 C 
ENDBRANCH   2  13
TORSDOF 1
ENDMDL
