MODEL 1
REMARK VINA RESULT:      -9.4      0.000      0.000
REMARK  Name = 
REMARK  6 active torsions:
REMARK  status: ('A' for Active; 'I' for Inactive)
REMARK    1  A    between atoms: C_1  and  C_2
REMARK    2  A    between atoms: C_2  and  C_4
REMARK    3  A    between atoms: C_10  and  C_11
REMARK    4  A    between atoms: C_15  and  N_16
REMARK    5  A    between atoms: N_16  and  S_17
REMARK    6  A    between atoms: S_17  and  C_20
REMARK                            x       y       z     vdW  Elec       q    Type
REMARK                         _______ _______ _______ _____ _____    ______ ____
ROOT
ATOM      1  C   UNL     1       5.509   3.866  17.305  0.00  0.00    +0.000 A 
ATOM      2  C   UNL     1       6.109   4.263  18.510  0.00  0.00    +0.000 A 
ATOM      3  N   UNL     1       5.629   4.011  19.751  0.00  0.00    +0.000 NA
ATOM      4  C   UNL     1       4.484   3.302  19.814  0.00  0.00    +0.000 A 
ATOM      5  C   UNL     1       3.803   2.831  18.700  0.00  0.00    +0.000 A 
ATOM      6  C   UNL     1       4.322   3.119  17.435  0.00  0.00    +0.000 A 
ENDROOT
BRANCH   1  13
ATOM      7  C   UNL     1       6.234   3.588  12.199  0.00  0.00    +0.000 A 
ATOM      8  C   UNL     1       7.186   4.330  11.513  0.00  0.00    +0.000 A 
ATOM      9  N   UNL     1       7.832   5.140  12.411  0.00  0.00    +0.000 N 
ATOM     10  C   UNL     1       7.328   4.935  13.663  0.00  0.00    +0.000 A 
ATOM     11  N   UNL     1       7.750   5.590  14.753  0.00  0.00    +0.000 NA
ATOM     12  C   UNL     1       7.100   5.200  15.879  0.00  0.00    +0.000 A 
ATOM     13  C   UNL     1       6.102   4.217  15.994  0.00  0.00    +0.000 A 
ATOM     14  C   UNL     1       5.717   3.591  14.794  0.00  0.00    +0.000 A 
ATOM     15  C   UNL     1       6.342   3.961  13.583  0.00  0.00    +0.000 A 
ATOM     16  H   UNL     1       8.570   5.796  12.208  0.00  0.00    +0.000 HD
BRANCH   7  18
ATOM     17  C   UNL     1       3.937   3.110  11.196  0.00  0.00    +0.000 C 
ATOM     18  C   UNL     1       5.310   2.625  11.599  0.00  0.00    +0.000 C 
ATOM     19  O   UNL     1       5.625   1.446  11.435  0.00  0.00    +0.000 OA
ENDBRANCH   7  18
ENDBRANCH   1  13
BRANCH   5  20
ATOM     20  N   UNL     1       2.627   2.054  18.873  0.00  0.00    +0.000 N 
ATOM     21  H   UNL     1       2.709   1.078  19.152  0.00  0.00    +0.000 HD
BRANCH  20  22
ATOM     22  S   UNL     1       1.235   2.800  19.471  0.00  0.00    +0.000 S 
ATOM     23  O   UNL     1       0.180   2.481  18.531  0.00  0.00    +0.000 OA
ATOM     24  O   UNL     1       1.098   2.485  20.875  0.00  0.00    +0.000 OA
BRANCH  22  25
ATOM     25  C   UNL     1       1.613   4.527  19.307  0.00  0.00    +0.000 A 
ATOM     26  C   UNL     1       1.812   5.091  18.043  0.00  0.00    +0.000 A 
ATOM     27  C   UNL     1       2.150   6.442  17.946  0.00  0.00    +0.000 A 
ATOM     28  C   UNL     1       2.283   7.218  19.100  0.00  0.00    +0.000 A 
ATOM     29  C   UNL     1       2.056   6.656  20.356  0.00  0.00    +0.000 A 
ATOM     30  C   UNL     1       1.705   5.311  20.463  0.00  0.00    +0.000 A 
ENDBRANCH  22  25
ENDBRANCH  20  22
ENDBRANCH   5  20
TORSDOF 5
ENDMDL
MODEL 2
REMARK VINA RESULT:      -9.3      4.083      8.769
REMARK  Name = 
REMARK  6 active torsions:
REMARK  status: ('A' for Active; 'I' for Inactive)
REMARK    1  A    between atoms: C_1  and  C_2
REMARK    2  A    between atoms: C_2  and  C_4
REMARK    3  A    between atoms: C_10  and  C_11
REMARK    4  A    between atoms: C_15  and  N_16
REMARK    5  A    between atoms: N_16  and  S_17
REMARK    6  A    between atoms: S_17  and  C_20
REMARK                            x       y       z     vdW  Elec       q    Type
REMARK                         _______ _______ _______ _____ _____    ______ ____
ROOT
ATOM      1  C   UNL     1       3.041   6.401  18.812  0.00  0.00    +0.000 A 
ATOM      2  C   UNL     1       3.068   5.518  19.902  0.00  0.00    +0.000 A 
ATOM      3  N   UNL     1       3.672   4.306  19.921  0.00  0.00    +0.000 NA
ATOM      4  C   UNL     1       4.312   3.942  18.791  0.00  0.00    +0.000 A 
ATOM      5  C   UNL     1       4.378   4.731  17.651  0.00  0.00    +0.000 A 
ATOM      6  C   UNL     1       3.734   5.971  17.664  0.00  0.00    +0.000 A 
ENDROOT
BRANCH   1  13
ATOM      7  C   UNL     1       0.393  10.239  21.033  0.00  0.00    +0.000 A 
ATOM      8  C   UNL     1      -0.102  11.336  20.343  0.00  0.00    +0.000 A 
ATOM      9  N   UNL     1       0.272  11.224  19.028  0.00  0.00    +0.000 N 
ATOM     10  C   UNL     1       0.989  10.076  18.849  0.00  0.00    +0.000 A 
ATOM     11  N   UNL     1       1.502   9.694  17.672  0.00  0.00    +0.000 NA
ATOM     12  C   UNL     1       2.163   8.510  17.752  0.00  0.00    +0.000 A 
ATOM     13  C   UNL     1       2.326   7.696  18.885  0.00  0.00    +0.000 A 
ATOM     14  C   UNL     1       1.761   8.186  20.078  0.00  0.00    +0.000 A 
ATOM     15  C   UNL     1       1.073   9.419  20.069  0.00  0.00    +0.000 A 
ATOM     16  H   UNL     1       0.064  11.872  18.284  0.00  0.00    +0.000 HD
BRANCH   7  18
ATOM     17  C   UNL     1      -1.050  10.429  23.129  0.00  0.00    +0.000 C 
ATOM     18  C   UNL     1       0.238   9.995  22.468  0.00  0.00    +0.000 C 
ATOM     19  O   UNL     1       1.130   9.468  23.132  0.00  0.00    +0.000 OA
ENDBRANCH   7  18
ENDBRANCH   1  13
BRANCH   5  20
ATOM     20  N   UNL     1       5.115   4.276  16.525  0.00  0.00    +0.000 N 
ATOM     21  H   UNL     1       4.616   3.940  15.703  0.00  0.00    +0.000 HD
BRANCH  20  22
ATOM     22  S   UNL     1       6.581   5.027  16.151  0.00  0.00    +0.000 S 
ATOM     23  O   UNL     1       6.350   6.447  16.313  0.00  0.00    +0.000 OA
ATOM     24  O   UNL     1       7.646   4.361  16.865  0.00  0.00    +0.000 OA
BRANCH  22  25
ATOM     25  C   UNL     1       6.761   4.694  14.416  0.00  0.00    +0.000 A 
ATOM     26  C   UNL     1       5.968   3.723  13.796  0.00  0.00    +0.000 A 
ATOM     27  C   UNL     1       6.160   3.453  12.440  0.00  0.00    +0.000 A 
ATOM     28  C   UNL     1       7.130   4.148  11.714  0.00  0.00    +0.000 A 
ATOM     29  C   UNL     1       7.898   5.135  12.332  0.00  0.00    +0.000 A 
ATOM     30  C   UNL     1       7.705   5.421  13.683  0.00  0.00    +0.000 A 
ENDBRANCH  22  25
ENDBRANCH  20  22
ENDBRANCH   5  20
TORSDOF 5
ENDMDL
MODEL 3
REMARK VINA RESULT:      -9.3      4.029      8.338
REMARK  Name = 
REMARK  6 active torsions:
REMARK  status: ('A' for Active; 'I' for Inactive)
REMARK    1  A    between atoms: C_1  and  C_2
REMARK    2  A    between atoms: C_2  and  C_4
REMARK    3  A    between atoms: C_10  and  C_11
REMARK    4  A    between atoms: C_15  and  N_16
REMARK    5  A    between atoms: N_16  and  S_17
REMARK    6  A    between atoms: S_17  and  C_20
REMARK                            x       y       z     vdW  Elec       q    Type
REMARK                         _______ _______ _______ _____ _____    ______ ____
ROOT
ATOM      1  C   UNL     1       2.966   6.358  18.703  0.00  0.00    +0.000 A 
ATOM      2  C   UNL     1       3.051   5.495  19.807  0.00  0.00    +0.000 A 
ATOM      3  N   UNL     1       3.590   4.252  19.797  0.00  0.00    +0.000 NA
ATOM      4  C   UNL     1       4.099   3.833  18.621  0.00  0.00    +0.000 A 
ATOM      5  C   UNL     1       4.097   4.596  17.461  0.00  0.00    +0.000 A 
ATOM      6  C   UNL     1       3.523   5.869  17.506  0.00  0.00    +0.000 A 
ENDROOT
BRANCH   1  13
ATOM      7  C   UNL     1       0.505  10.263  21.019  0.00  0.00    +0.000 A 
ATOM      8  C   UNL     1       0.094  11.415  20.362  0.00  0.00    +0.000 A 
ATOM      9  N   UNL     1       0.491  11.330  19.052  0.00  0.00    +0.000 N 
ATOM     10  C   UNL     1       1.141  10.148  18.843  0.00  0.00    +0.000 A 
ATOM     11  N   UNL     1       1.658   9.780  17.663  0.00  0.00    +0.000 NA
ATOM     12  C   UNL     1       2.244   8.557  17.710  0.00  0.00    +0.000 A 
ATOM     13  C   UNL     1       2.330   7.690  18.813  0.00  0.00    +0.000 A 
ATOM     14  C   UNL     1       1.767   8.167  20.012  0.00  0.00    +0.000 A 
ATOM     15  C   UNL     1       1.157   9.441  20.037  0.00  0.00    +0.000 A 
ATOM     16  H   UNL     1       0.341  12.018  18.331  0.00  0.00    +0.000 HD
BRANCH   7  18
ATOM     17  C   UNL     1      -1.003  10.400  23.073  0.00  0.00    +0.000 C 
ATOM     18  C   UNL     1       0.301   9.974  22.439  0.00  0.00    +0.000 C 
ATOM     19  O   UNL     1       1.165   9.415  23.114  0.00  0.00    +0.000 OA
ENDBRANCH   7  18
ENDBRANCH   1  13
BRANCH   5  20
ATOM     20  N   UNL     1       4.698   4.081  16.282  0.00  0.00    +0.000 N 
ATOM     21  H   UNL     1       4.137   3.530  15.634  0.00  0.00    +0.000 HD
BRANCH  20  22
ATOM     22  S   UNL     1       5.900   4.987  15.515  0.00  0.00    +0.000 S 
ATOM     23  O   UNL     1       6.718   4.031  14.797  0.00  0.00    +0.000 OA
ATOM     24  O   UNL     1       5.285   6.100  14.829  0.00  0.00    +0.000 OA
BRANCH  22  25
ATOM     25  C   UNL     1       6.852   5.610  16.878  0.00  0.00    +0.000 A 
ATOM     26  C   UNL     1       7.404   4.732  17.815  0.00  0.00    +0.000 A 
ATOM     27  C   UNL     1       8.112   5.252  18.900  0.00  0.00    +0.000 A 
ATOM     28  C   UNL     1       8.269   6.633  19.041  0.00  0.00    +0.000 A 
ATOM     29  C   UNL     1       7.741   7.502  18.086  0.00  0.00    +0.000 A 
ATOM     30  C   UNL     1       7.043   6.992  16.993  0.00  0.00    +0.000 A 
ENDBRANCH  22  25
ENDBRANCH  20  22
ENDBRANCH   5  20
TORSDOF 5
ENDMDL
MODEL 4
REMARK VINA RESULT:      -9.2      4.151      8.669
REMARK  Name = 
REMARK  6 active torsions:
REMARK  status: ('A' for Active; 'I' for Inactive)
REMARK    1  A    between atoms: C_1  and  C_2
REMARK    2  A    between atoms: C_2  and  C_4
REMARK    3  A    between atoms: C_10  and  C_11
REMARK    4  A    between atoms: C_15  and  N_16
REMARK    5  A    between atoms: N_16  and  S_17
REMARK    6  A    between atoms: S_17  and  C_20
REMARK                            x       y       z     vdW  Elec       q    Type
REMARK                         _______ _______ _______ _____ _____    ______ ____
ROOT
ATOM      1  C   UNL     1       3.020   6.456  18.757  0.00  0.00    +0.000 A 
ATOM      2  C   UNL     1       2.912   5.587  19.854  0.00  0.00    +0.000 A 
ATOM      3  N   UNL     1       3.462   4.352  19.939  0.00  0.00    +0.000 NA
ATOM      4  C   UNL     1       4.186   3.948  18.876  0.00  0.00    +0.000 A 
ATOM      5  C   UNL     1       4.388   4.719  17.740  0.00  0.00    +0.000 A 
ATOM      6  C   UNL     1       3.797   5.983  17.682  0.00  0.00    +0.000 A 
ENDROOT
BRANCH   1  13
ATOM      7  C   UNL     1       0.237  10.373  20.650  0.00  0.00    +0.000 A 
ATOM      8  C   UNL     1      -0.109  11.500  19.917  0.00  0.00    +0.000 A 
ATOM      9  N   UNL     1       0.443  11.388  18.666  0.00  0.00    +0.000 N 
ATOM     10  C   UNL     1       1.132  10.213  18.570  0.00  0.00    +0.000 A 
ATOM     11  N   UNL     1       1.792   9.824  17.471  0.00  0.00    +0.000 NA
ATOM     12  C   UNL     1       2.387   8.613  17.622  0.00  0.00    +0.000 A 
ATOM     13  C   UNL     1       2.354   7.779  18.752  0.00  0.00    +0.000 A 
ATOM     14  C   UNL     1       1.645   8.276  19.861  0.00  0.00    +0.000 A 
ATOM     15  C   UNL     1       1.015   9.538  19.777  0.00  0.00    +0.000 A 
ATOM     16  H   UNL     1       0.369  12.054  17.913  0.00  0.00    +0.000 HD
BRANCH   7  18
ATOM     17  C   UNL     1      -0.527   8.712  22.430  0.00  0.00    +0.000 C 
ATOM     18  C   UNL     1      -0.130  10.119  22.044  0.00  0.00    +0.000 C 
ATOM     19  O   UNL     1      -0.134  11.017  22.884  0.00  0.00    +0.000 OA
ENDBRANCH   7  18
ENDBRANCH   1  13
BRANCH   5  20
ATOM     20  N   UNL     1       5.206   4.220  16.690  0.00  0.00    +0.000 N 
ATOM     21  H   UNL     1       4.772   3.743  15.902  0.00  0.00    +0.000 HD
BRANCH  20  22
ATOM     22  S   UNL     1       6.599   5.075  16.264  0.00  0.00    +0.000 S 
ATOM     23  O   UNL     1       6.256   6.476  16.386  0.00  0.00    +0.000 OA
ATOM     24  O   UNL     1       7.727   4.521  16.978  0.00  0.00    +0.000 OA
BRANCH  22  25
ATOM     25  C   UNL     1       6.776   4.701  14.537  0.00  0.00    +0.000 A 
ATOM     26  C   UNL     1       7.722   5.375  13.760  0.00  0.00    +0.000 A 
ATOM     27  C   UNL     1       7.810   5.091  12.397  0.00  0.00    +0.000 A 
ATOM     28  C   UNL     1       6.964   4.140  11.820  0.00  0.00    +0.000 A 
ATOM     29  C   UNL     1       6.041   3.451  12.606  0.00  0.00    +0.000 A 
ATOM     30  C   UNL     1       5.954   3.719  13.971  0.00  0.00    +0.000 A 
ENDBRANCH  22  25
ENDBRANCH  20  22
ENDBRANCH   5  20
TORSDOF 5
ENDMDL
MODEL 5
REMARK VINA RESULT:      -9.1      4.080      8.275
REMARK  Name = 
REMARK  6 active torsions:
REMARK  status: ('A' for Active; 'I' for Inactive)
REMARK    1  A    between atoms: C_1  and  C_2
REMARK    2  A    between atoms: C_2  and  C_4
REMARK    3  A    between atoms: C_10  and  C_11
REMARK    4  A    between atoms: C_15  and  N_16
REMARK    5  A    between atoms: N_16  and  S_17
REMARK    6  A    between atoms: S_17  and  C_20
REMARK                            x       y       z     vdW  Elec       q    Type
REMARK                         _______ _______ _______ _____ _____    ______ ____
ROOT
ATOM      1  C   UNL     1       3.038   6.036  18.736  0.00  0.00    +0.000 A 
ATOM      2  C   UNL     1       2.283   4.892  18.434  0.00  0.00    +0.000 A 
ATOM      3  N   UNL     1       2.769   3.633  18.317  0.00  0.00    +0.000 NA
ATOM      4  C   UNL     1       4.092   3.485  18.530  0.00  0.00    +0.000 A 
ATOM      5  C   UNL     1       4.946   4.529  18.856  0.00  0.00    +0.000 A 
ATOM      6  C   UNL     1       4.411   5.816  18.957  0.00  0.00    +0.000 A 
ENDROOT
BRANCH   1  13
ATOM      7  C   UNL     1       0.662  10.041  20.970  0.00  0.00    +0.000 A 
ATOM      8  C   UNL     1       0.241  11.170  20.282  0.00  0.00    +0.000 A 
ATOM      9  N   UNL     1       0.601  11.034  18.966  0.00  0.00    +0.000 N 
ATOM     10  C   UNL     1       1.239   9.841  18.783  0.00  0.00    +0.000 A 
ATOM     11  N   UNL     1       1.721   9.426  17.604  0.00  0.00    +0.000 NA
ATOM     12  C   UNL     1       2.301   8.201  17.681  0.00  0.00    +0.000 A 
ATOM     13  C   UNL     1       2.412   7.376  18.813  0.00  0.00    +0.000 A 
ATOM     14  C   UNL     1       1.885   7.901  20.008  0.00  0.00    +0.000 A 
ATOM     15  C   UNL     1       1.283   9.178  20.003  0.00  0.00    +0.000 A 
ATOM     16  H   UNL     1       0.435  11.696  18.224  0.00  0.00    +0.000 HD
BRANCH   7  18
ATOM     17  C   UNL     1      -0.837  10.143  23.032  0.00  0.00    +0.000 C 
ATOM     18  C   UNL     1       0.496   9.806  22.405  0.00  0.00    +0.000 C 
ATOM     19  O   UNL     1       1.412   9.362  23.096  0.00  0.00    +0.000 OA
ENDBRANCH   7  18
ENDBRANCH   1  13
BRANCH   5  20
ATOM     20  N   UNL     1       6.319   4.262  19.105  0.00  0.00    +0.000 N 
ATOM     21  H   UNL     1       6.592   3.353  19.474  0.00  0.00    +0.000 HD
BRANCH  20  22
ATOM     22  S   UNL     1       7.481   4.942  18.085  0.00  0.00    +0.000 S 
ATOM     23  O   UNL     1       7.651   6.308  18.534  0.00  0.00    +0.000 OA
ATOM     24  O   UNL     1       8.610   4.044  17.994  0.00  0.00    +0.000 OA
BRANCH  22  25
ATOM     25  C   UNL     1       6.653   4.978  16.515  0.00  0.00    +0.000 A 
ATOM     26  C   UNL     1       5.944   6.115  16.115  0.00  0.00    +0.000 A 
ATOM     27  C   UNL     1       5.267   6.101  14.895  0.00  0.00    +0.000 A 
ATOM     28  C   UNL     1       5.303   4.964  14.083  0.00  0.00    +0.000 A 
ATOM     29  C   UNL     1       6.035   3.844  14.476  0.00  0.00    +0.000 A 
ATOM     30  C   UNL     1       6.725   3.853  15.687  0.00  0.00    +0.000 A 
ENDBRANCH  22  25
ENDBRANCH  20  22
ENDBRANCH   5  20
TORSDOF 5
ENDMDL
MODEL 6
REMARK VINA RESULT:      -8.9      4.055      8.436
REMARK  Name = 
REMARK  6 active torsions:
REMARK  status: ('A' for Active; 'I' for Inactive)
REMARK    1  A    between atoms: C_1  and  C_2
REMARK    2  A    between atoms: C_2  and  C_4
REMARK    3  A    between atoms: C_10  and  C_11
REMARK    4  A    between atoms: C_15  and  N_16
REMARK    5  A    between atoms: N_16  and  S_17
REMARK    6  A    between atoms: S_17  and  C_20
REMARK                            x       y       z     vdW  Elec       q    Type
REMARK                         _______ _______ _______ _____ _____    ______ ____
ROOT
ATOM      1  C   UNL     1       2.422   6.069  19.845  0.00  0.00    +0.000 A 
ATOM      2  C   UNL     1       1.867   5.189  20.786  0.00  0.00    +0.000 A 
ATOM      3  N   UNL     1       2.206   3.887  20.945  0.00  0.00    +0.000 NA
ATOM      4  C   UNL     1       3.174   3.420  20.131  0.00  0.00    +0.000 A 
ATOM      5  C   UNL     1       3.818   4.191  19.174  0.00  0.00    +0.000 A 
ATOM      6  C   UNL     1       3.435   5.527  19.030  0.00  0.00    +0.000 A 
ENDROOT
BRANCH   1  13
ATOM      7  C   UNL     1       0.193  10.466  21.383  0.00  0.00    +0.000 A 
ATOM      8  C   UNL     1       0.040  11.580  20.569  0.00  0.00    +0.000 A 
ATOM      9  N   UNL     1       0.609  11.307  19.351  0.00  0.00    +0.000 N 
ATOM     10  C   UNL     1       1.119  10.041  19.354  0.00  0.00    +0.000 A 
ATOM     11  N   UNL     1       1.748   9.488  18.308  0.00  0.00    +0.000 NA
ATOM     12  C   UNL     1       2.152   8.216  18.557  0.00  0.00    +0.000 A 
ATOM     13  C   UNL     1       1.960   7.471  19.732  0.00  0.00    +0.000 A 
ATOM     14  C   UNL     1       1.298   8.139  20.780  0.00  0.00    +0.000 A 
ATOM     15  C   UNL     1       0.866   9.471  20.594  0.00  0.00    +0.000 A 
ATOM     16  H   UNL     1       0.658  11.926  18.557  0.00  0.00    +0.000 HD
BRANCH   7  18
ATOM     17  C   UNL     1      -1.516  11.084  23.174  0.00  0.00    +0.000 C 
ATOM     18  C   UNL     1      -0.251  10.360  22.773  0.00  0.00    +0.000 C 
ATOM     19  O   UNL     1       0.386   9.716  23.606  0.00  0.00    +0.000 OA
ENDBRANCH   7  18
ENDBRANCH   1  13
BRANCH   5  20
ATOM     20  N   UNL     1       4.858   3.617  18.394  0.00  0.00    +0.000 N 
ATOM     21  H   UNL     1       4.944   2.603  18.344  0.00  0.00    +0.000 HD
BRANCH  20  22
ATOM     22  S   UNL     1       5.340   4.395  16.975  0.00  0.00    +0.000 S 
ATOM     23  O   UNL     1       6.121   3.424  16.237  0.00  0.00    +0.000 OA
ATOM     24  O   UNL     1       4.192   5.035  16.376  0.00  0.00    +0.000 OA
BRANCH  22  25
ATOM     25  C   UNL     1       6.447   5.649  17.572  0.00  0.00    +0.000 A 
ATOM     26  C   UNL     1       6.496   6.902  16.954  0.00  0.00    +0.000 A 
ATOM     27  C   UNL     1       7.406   7.854  17.418  0.00  0.00    +0.000 A 
ATOM     28  C   UNL     1       8.251   7.556  18.490  0.00  0.00    +0.000 A 
ATOM     29  C   UNL     1       8.177   6.314  19.119  0.00  0.00    +0.000 A 
ATOM     30  C   UNL     1       7.263   5.361  18.672  0.00  0.00    +0.000 A 
ENDBRANCH  22  25
ENDBRANCH  20  22
ENDBRANCH   5  20
TORSDOF 5
ENDMDL
MODEL 7
REMARK VINA RESULT:      -8.7      4.099      8.269
REMARK  Name = 
REMARK  6 active torsions:
REMARK  status: ('A' for Active; 'I' for Inactive)
REMARK    1  A    between atoms: C_1  and  C_2
REMARK    2  A    between atoms: C_2  and  C_4
REMARK    3  A    between atoms: C_10  and  C_11
REMARK    4  A    between atoms: C_15  and  N_16
REMARK    5  A    between atoms: N_16  and  S_17
REMARK    6  A    between atoms: S_17  and  C_20
REMARK                            x       y       z     vdW  Elec       q    Type
REMARK                         _______ _______ _______ _____ _____    ______ ____
ROOT
ATOM      1  C   UNL     1       3.062   6.177  18.788  0.00  0.00    +0.000 A 
ATOM      2  C   UNL     1       2.345   5.006  18.499  0.00  0.00    +0.000 A 
ATOM      3  N   UNL     1       2.870   3.760  18.414  0.00  0.00    +0.000 NA
ATOM      4  C   UNL     1       4.193   3.655  18.647  0.00  0.00    +0.000 A 
ATOM      5  C   UNL     1       5.012   4.730  18.963  0.00  0.00    +0.000 A 
ATOM      6  C   UNL     1       4.438   6.002  19.032  0.00  0.00    +0.000 A 
ENDROOT
BRANCH   1  13
ATOM      7  C   UNL     1       0.057   9.916  20.701  0.00  0.00    +0.000 A 
ATOM      8  C   UNL     1      -0.203  11.110  20.044  0.00  0.00    +0.000 A 
ATOM      9  N   UNL     1       0.497  11.116  18.864  0.00  0.00    +0.000 N 
ATOM     10  C   UNL     1       1.197   9.950  18.738  0.00  0.00    +0.000 A 
ATOM     11  N   UNL     1       1.987   9.664  17.695  0.00  0.00    +0.000 NA
ATOM     12  C   UNL     1       2.564   8.440  17.799  0.00  0.00    +0.000 A 
ATOM     13  C   UNL     1       2.397   7.500  18.830  0.00  0.00    +0.000 A 
ATOM     14  C   UNL     1       1.557   7.894  19.889  0.00  0.00    +0.000 A 
ATOM     15  C   UNL     1       0.938   9.163  19.852  0.00  0.00    +0.000 A 
ATOM     16  H   UNL     1       0.513  11.852  18.176  0.00  0.00    +0.000 HD
BRANCH   7  18
ATOM     17  C   UNL     1      -0.711  10.619  23.031  0.00  0.00    +0.000 C 
ATOM     18  C   UNL     1      -0.476   9.531  22.009  0.00  0.00    +0.000 C 
ATOM     19  O   UNL     1      -0.716   8.356  22.287  0.00  0.00    +0.000 OA
ENDBRANCH   7  18
ENDBRANCH   1  13
BRANCH   5  20
ATOM     20  N   UNL     1       6.388   4.508  19.235  0.00  0.00    +0.000 N 
ATOM     21  H   UNL     1       6.671   3.660  19.723  0.00  0.00    +0.000 HD
BRANCH  20  22
ATOM     22  S   UNL     1       7.538   5.047  18.121  0.00  0.00    +0.000 S 
ATOM     23  O   UNL     1       7.784   6.436  18.448  0.00  0.00    +0.000 OA
ATOM     24  O   UNL     1       8.623   4.094  18.066  0.00  0.00    +0.000 OA
BRANCH  22  25
ATOM     25  C   UNL     1       6.651   4.994  16.584  0.00  0.00    +0.000 A 
ATOM     26  C   UNL     1       6.667   3.838  15.798  0.00  0.00    +0.000 A 
ATOM     27  C   UNL     1       5.996   3.838  14.574  0.00  0.00    +0.000 A 
ATOM     28  C   UNL     1       5.314   4.980  14.145  0.00  0.00    +0.000 A 
ATOM     29  C   UNL     1       5.279   6.120  14.948  0.00  0.00    +0.000 A 
ATOM     30  C   UNL     1       5.936   6.126  16.177  0.00  0.00    +0.000 A 
ENDBRANCH  22  25
ENDBRANCH  20  22
ENDBRANCH   5  20
TORSDOF 5
ENDMDL
MODEL 8
REMARK VINA RESULT:      -8.7      4.041      8.349
REMARK  Name = 
REMARK  6 active torsions:
REMARK  status: ('A' for Active; 'I' for Inactive)
REMARK    1  A    between atoms: C_1  and  C_2
REMARK    2  A    between atoms: C_2  and  C_4
REMARK    3  A    between atoms: C_10  and  C_11
REMARK    4  A    between atoms: C_15  and  N_16
REMARK    5  A    between atoms: N_16  and  S_17
REMARK    6  A    between atoms: S_17  and  C_20
REMARK                            x       y       z     vdW  Elec       q    Type
REMARK                         _______ _______ _______ _____ _____    ______ ____
ROOT
ATOM      1  C   UNL     1       2.807   5.996  19.485  0.00  0.00    +0.000 A 
ATOM      2  C   UNL     1       2.124   5.073  20.292  0.00  0.00    +0.000 A 
ATOM      3  N   UNL     1       2.515   3.800  20.540  0.00  0.00    +0.000 NA
ATOM      4  C   UNL     1       3.671   3.410  19.966  0.00  0.00    +0.000 A 
ATOM      5  C   UNL     1       4.452   4.231  19.163  0.00  0.00    +0.000 A 
ATOM      6  C   UNL     1       4.012   5.534  18.921  0.00  0.00    +0.000 A 
ENDROOT
BRANCH   1  13
ATOM      7  C   UNL     1       0.467  10.441  20.683  0.00  0.00    +0.000 A 
ATOM      8  C   UNL     1       0.223  11.457  19.770  0.00  0.00    +0.000 A 
ATOM      9  N   UNL     1       0.740  11.079  18.556  0.00  0.00    +0.000 N 
ATOM     10  C   UNL     1       1.305   9.840  18.661  0.00  0.00    +0.000 A 
ATOM     11  N   UNL     1       1.903   9.206  17.644  0.00  0.00    +0.000 NA
ATOM     12  C   UNL     1       2.375   7.984  17.999  0.00  0.00    +0.000 A 
ATOM     13  C   UNL     1       2.278   7.360  19.254  0.00  0.00    +0.000 A 
ATOM     14  C   UNL     1       1.642   8.108  20.263  0.00  0.00    +0.000 A 
ATOM     15  C   UNL     1       1.142   9.395  19.966  0.00  0.00    +0.000 A 
ATOM     16  H   UNL     1       0.721  11.612  17.701  0.00  0.00    +0.000 HD
BRANCH   7  18
ATOM     17  C   UNL     1      -1.182  11.162  22.492  0.00  0.00    +0.000 C 
ATOM     18  C   UNL     1       0.100  10.465  22.100  0.00  0.00    +0.000 C 
ATOM     19  O   UNL     1       0.813   9.948  22.960  0.00  0.00    +0.000 OA
ENDBRANCH   7  18
ENDBRANCH   1  13
BRANCH   5  20
ATOM     20  N   UNL     1       5.678   3.739  18.640  0.00  0.00    +0.000 N 
ATOM     21  H   UNL     1       5.702   2.819  18.203  0.00  0.00    +0.000 HD
BRANCH  20  22
ATOM     22  S   UNL     1       6.768   4.830  17.952  0.00  0.00    +0.000 S 
ATOM     23  O   UNL     1       6.280   6.149  18.300  0.00  0.00    +0.000 OA
ATOM     24  O   UNL     1       8.114   4.425  18.288  0.00  0.00    +0.000 OA
BRANCH  22  25
ATOM     25  C   UNL     1       6.516   4.592  16.211  0.00  0.00    +0.000 A 
ATOM     26  C   UNL     1       5.395   3.899  15.747  0.00  0.00    +0.000 A 
ATOM     27  C   UNL     1       5.244   3.690  14.375  0.00  0.00    +0.000 A 
ATOM     28  C   UNL     1       6.202   4.173  13.480  0.00  0.00    +0.000 A 
ATOM     29  C   UNL     1       7.304   4.888  13.948  0.00  0.00    +0.000 A 
ATOM     30  C   UNL     1       7.457   5.113  15.315  0.00  0.00    +0.000 A 
ENDBRANCH  22  25
ENDBRANCH  20  22
ENDBRANCH   5  20
TORSDOF 5
ENDMDL
MODEL 9
REMARK VINA RESULT:      -8.7      5.361      7.992
REMARK  Name = 
REMARK  6 active torsions:
REMARK  status: ('A' for Active; 'I' for Inactive)
REMARK    1  A    between atoms: C_1  and  C_2
REMARK    2  A    between atoms: C_2  and  C_4
REMARK    3  A    between atoms: C_10  and  C_11
REMARK    4  A    between atoms: C_15  and  N_16
REMARK    5  A    between atoms: N_16  and  S_17
REMARK    6  A    between atoms: S_17  and  C_20
REMARK                            x       y       z     vdW  Elec       q    Type
REMARK                         _______ _______ _______ _____ _____    ______ ____
ROOT
ATOM      1  C   UNL     1       2.271   8.079  18.713  0.00  0.00    +0.000 A 
ATOM      2  C   UNL     1       2.519   9.065  17.745  0.00  0.00    +0.000 A 
ATOM      3  N   UNL     1       1.872  10.250  17.642  0.00  0.00    +0.000 NA
ATOM      4  C   UNL     1       0.922  10.493  18.568  0.00  0.00    +0.000 A 
ATOM      5  C   UNL     1       0.595   9.612  19.589  0.00  0.00    +0.000 A 
ATOM      6  C   UNL     1       1.276   8.394  19.658  0.00  0.00    +0.000 A 
ENDROOT
BRANCH   1  13
ATOM      7  C   UNL     1       3.398   3.255  20.169  0.00  0.00    +0.000 A 
ATOM      8  C   UNL     1       4.496   2.544  19.704  0.00  0.00    +0.000 A 
ATOM      9  N   UNL     1       5.163   3.325  18.795  0.00  0.00    +0.000 N 
ATOM     10  C   UNL     1       4.528   4.527  18.666  0.00  0.00    +0.000 A 
ATOM     11  N   UNL     1       4.936   5.501  17.842  0.00  0.00    +0.000 NA
ATOM     12  C   UNL     1       4.143   6.601  17.904  0.00  0.00    +0.000 A 
ATOM     13  C   UNL     1       3.018   6.801  18.722  0.00  0.00    +0.000 A 
ATOM     14  C   UNL     1       2.660   5.718  19.547  0.00  0.00    +0.000 A 
ATOM     15  C   UNL     1       3.432   4.535  19.519  0.00  0.00    +0.000 A 
ATOM     16  H   UNL     1       5.996   3.078  18.285  0.00  0.00    +0.000 HD
BRANCH   7  18
ATOM     17  C   UNL     1       0.949   2.846  20.758  0.00  0.00    +0.000 C 
ATOM     18  C   UNL     1       2.411   2.763  21.132  0.00  0.00    +0.000 C 
ATOM     19  O   UNL     1       2.747   2.306  22.223  0.00  0.00    +0.000 OA
ENDBRANCH   7  18
ENDBRANCH   1  13
BRANCH   5  20
ATOM     20  N   UNL     1      -0.391   9.979  20.543  0.00  0.00    +0.000 N 
ATOM     21  H   UNL     1      -1.103   9.302  20.813  0.00  0.00    +0.000 HD
BRANCH  20  22
ATOM     22  S   UNL     1       0.035  11.028  21.797  0.00  0.00    +0.000 S 
ATOM     23  O   UNL     1       0.323  10.184  22.938  0.00  0.00    +0.000 OA
ATOM     24  O   UNL     1       1.012  11.974  21.307  0.00  0.00    +0.000 OA
BRANCH  22  25
ATOM     25  C   UNL     1      -1.483  11.890  22.120  0.00  0.00    +0.000 A 
ATOM     26  C   UNL     1      -2.127  11.752  23.353  0.00  0.00    +0.000 A 
ATOM     27  C   UNL     1      -3.341  12.408  23.564  0.00  0.00    +0.000 A 
ATOM     28  C   UNL     1      -3.900  13.196  22.555  0.00  0.00    +0.000 A 
ATOM     29  C   UNL     1      -3.238  13.353  21.338  0.00  0.00    +0.000 A 
ATOM     30  C   UNL     1      -2.019  12.712  21.122  0.00  0.00    +0.000 A 
ENDBRANCH  22  25
ENDBRANCH  20  22
ENDBRANCH   5  20
TORSDOF 5
ENDMDL
