MODEL 1
REMARK VINA RESULT:      -8.4      0.000      0.000
REMARK  Name = 
REMARK  11 active torsions:
REMARK  status: ('A' for Active; 'I' for Inactive)
REMARK    1  A    between atoms: C_1  and  O_2
REMARK    2  A    between atoms: O_2  and  C_3
REMARK    3  A    between atoms: C_5  and  O_6
REMARK    4  A    between atoms: O_6  and  C_7
REMARK    5  A    between atoms: C_9  and  C_10
REMARK    6  A    between atoms: N_12  and  C_13
REMARK    7  A    between atoms: C_18  and  C_19
REMARK    8  A    between atoms: C_22  and  O_23
REMARK    9  A    between atoms: O_23  and  C_24
REMARK   10  A    between atoms: C_25  and  O_26
REMARK   11  A    between atoms: O_26  and  C_27
REMARK                            x       y       z     vdW  Elec       q    Type
REMARK                         _______ _______ _______ _____ _____    ______ ____
ROOT
ATOM      1  C   UNL     1      -0.258  10.516  20.656  0.00  0.00    +0.000 A 
ATOM      2  C   UNL     1      -0.164  10.961  19.325  0.00  0.00    +0.000 A 
ATOM      3  C   UNL     1       0.578  10.294  18.350  0.00  0.00    +0.000 A 
ATOM      4  C   UNL     1       1.251   9.173  18.790  0.00  0.00    +0.000 A 
ATOM      5  O   UNL     1       2.052   8.383  18.036  0.00  0.00    +0.000 OA
ATOM      6  C   UNL     1       2.538   7.451  18.913  0.00  0.00    +0.000 A 
ATOM      7  N   UNL     1       2.062   7.570  20.147  0.00  0.00    +0.000 NA
ATOM      8  C   UNL     1       1.244   8.687  20.083  0.00  0.00    +0.000 A 
ATOM      9  C   UNL     1       0.468   9.370  21.051  0.00  0.00    +0.000 A 
ENDROOT
BRANCH   6  10
ATOM     10  C   UNL     1       3.546   6.550  18.344  0.00  0.00    +0.000 A 
ATOM     11  C   UNL     1       4.182   6.857  17.133  0.00  0.00    +0.000 A 
ATOM     12  C   UNL     1       5.195   6.043  16.631  0.00  0.00    +0.000 A 
ATOM     13  C   UNL     1       5.601   4.891  17.316  0.00  0.00    +0.000 A 
ATOM     14  C   UNL     1       4.954   4.545  18.517  0.00  0.00    +0.000 A 
ATOM     15  C   UNL     1       3.935   5.383  19.018  0.00  0.00    +0.000 A 
BRANCH  13  16
ATOM     16  O   UNL     1       6.626   4.251  16.669  0.00  0.00    +0.000 OA
ATOM     17  C   UNL     1       6.513   3.991  15.279  0.00  0.00    +0.000 C 
ENDBRANCH  13  16
BRANCH  14  18
ATOM     18  O   UNL     1       5.352   3.398  19.150  0.00  0.00    +0.000 OA
ATOM     19  C   UNL     1       4.361   2.584  19.758  0.00  0.00    +0.000 C 
ENDBRANCH  14  18
ENDBRANCH   6  10
BRANCH   1  22
ATOM     20  C   UNL     1      -0.709  12.384  22.242  0.00  0.00    +0.000 C 
ATOM     21  O   UNL     1       0.313  13.030  22.031  0.00  0.00    +0.000 OA
ATOM     22  N   UNL     1      -1.069  11.195  21.612  0.00  0.00    +0.000 N 
ATOM     23  H   UNL     1      -2.020  10.866  21.726  0.00  0.00    +0.000 HD
BRANCH  20  28
ATOM     24  C   UNL     1      -2.465  14.747  24.648  0.00  0.00    +0.000 A 
ATOM     25  C   UNL     1      -3.650  14.025  24.848  0.00  0.00    +0.000 A 
ATOM     26  C   UNL     1      -3.862  12.794  24.232  0.00  0.00    +0.000 A 
ATOM     27  C   UNL     1      -2.873  12.286  23.399  0.00  0.00    +0.000 A 
ATOM     28  C   UNL     1      -1.670  12.989  23.200  0.00  0.00    +0.000 A 
ATOM     29  C   UNL     1      -1.467  14.230  23.816  0.00  0.00    +0.000 A 
BRANCH  24  31
ATOM     30  C   UNL     1      -1.341  16.152  26.214  0.00  0.00    +0.000 C 
ATOM     31  O   UNL     1      -2.425  15.934  25.324  0.00  0.00    +0.000 OA
ENDBRANCH  24  31
BRANCH  26  32
ATOM     32  O   UNL     1      -5.055  12.191  24.518  0.00  0.00    +0.000 OA
ATOM     33  C   UNL     1      -6.231  12.811  24.009  0.00  0.00    +0.000 C 
ENDBRANCH  26  32
ENDBRANCH  20  28
ENDBRANCH   1  22
TORSDOF 7
ENDMDL
MODEL 2
REMARK VINA RESULT:      -7.9      0.631      2.245
REMARK  Name = 
REMARK  11 active torsions:
REMARK  status: ('A' for Active; 'I' for Inactive)
REMARK    1  A    between atoms: C_1  and  O_2
REMARK    2  A    between atoms: O_2  and  C_3
REMARK    3  A    between atoms: C_5  and  O_6
REMARK    4  A    between atoms: O_6  and  C_7
REMARK    5  A    between atoms: C_9  and  C_10
REMARK    6  A    between atoms: N_12  and  C_13
REMARK    7  A    between atoms: C_18  and  C_19
REMARK    8  A    between atoms: C_22  and  O_23
REMARK    9  A    between atoms: O_23  and  C_24
REMARK   10  A    between atoms: C_25  and  O_26
REMARK   11  A    between atoms: O_26  and  C_27
REMARK                            x       y       z     vdW  Elec       q    Type
REMARK                         _______ _______ _______ _____ _____    ______ ____
ROOT
ATOM      1  C   UNL     1      -0.186  10.598  20.420  0.00  0.00    +0.000 A 
ATOM      2  C   UNL     1       0.190  11.251  19.233  0.00  0.00    +0.000 A 
ATOM      3  C   UNL     1       1.014  10.668  18.270  0.00  0.00    +0.000 A 
ATOM      4  C   UNL     1       1.472   9.404  18.579  0.00  0.00    +0.000 A 
ATOM      5  O   UNL     1       2.301   8.653  17.816  0.00  0.00    +0.000 OA
ATOM      6  C   UNL     1       2.520   7.523  18.557  0.00  0.00    +0.000 A 
ATOM      7  N   UNL     1       1.851   7.490  19.704  0.00  0.00    +0.000 NA
ATOM      8  C   UNL     1       1.184   8.704  19.736  0.00  0.00    +0.000 A 
ATOM      9  C   UNL     1       0.330   9.310  20.689  0.00  0.00    +0.000 A 
ENDROOT
BRANCH   6  10
ATOM     10  C   UNL     1       3.507   6.603  17.982  0.00  0.00    +0.000 A 
ATOM     11  C   UNL     1       4.568   7.083  17.202  0.00  0.00    +0.000 A 
ATOM     12  C   UNL     1       5.550   6.219  16.722  0.00  0.00    +0.000 A 
ATOM     13  C   UNL     1       5.501   4.847  16.996  0.00  0.00    +0.000 A 
ATOM     14  C   UNL     1       4.427   4.337  17.750  0.00  0.00    +0.000 A 
ATOM     15  C   UNL     1       3.445   5.225  18.237  0.00  0.00    +0.000 A 
BRANCH  13  16
ATOM     16  O   UNL     1       6.573   4.183  16.457  0.00  0.00    +0.000 OA
ATOM     17  C   UNL     1       6.888   4.373  15.087  0.00  0.00    +0.000 C 
ENDBRANCH  13  16
BRANCH  14  18
ATOM     18  O   UNL     1       4.390   2.987  17.978  0.00  0.00    +0.000 OA
ATOM     19  C   UNL     1       3.150   2.313  17.836  0.00  0.00    +0.000 C 
ENDBRANCH  14  18
ENDBRANCH   6  10
BRANCH   1  22
ATOM     20  C   UNL     1      -0.752  12.319  22.131  0.00  0.00    +0.000 C 
ATOM     21  O   UNL     1       0.299  12.951  22.083  0.00  0.00    +0.000 OA
ATOM     22  N   UNL     1      -1.072  11.207  21.356  0.00  0.00    +0.000 N 
ATOM     23  H   UNL     1      -2.036  10.897  21.345  0.00  0.00    +0.000 HD
BRANCH  20  28
ATOM     24  C   UNL     1      -3.860  12.743  24.279  0.00  0.00    +0.000 A 
ATOM     25  C   UNL     1      -3.540  13.959  24.900  0.00  0.00    +0.000 A 
ATOM     26  C   UNL     1      -2.355  14.631  24.611  0.00  0.00    +0.000 A 
ATOM     27  C   UNL     1      -1.478  14.070  23.692  0.00  0.00    +0.000 A 
ATOM     28  C   UNL     1      -1.790  12.858  23.047  0.00  0.00    +0.000 A 
ATOM     29  C   UNL     1      -2.979  12.184  23.348  0.00  0.00    +0.000 A 
BRANCH  24  31
ATOM     30  C   UNL     1      -6.236  12.720  24.069  0.00  0.00    +0.000 C 
ATOM     31  O   UNL     1      -5.057  12.220  24.682  0.00  0.00    +0.000 OA
ENDBRANCH  24  31
BRANCH  26  32
ATOM     32  O   UNL     1      -2.170  15.810  25.278  0.00  0.00    +0.000 OA
ATOM     33  C   UNL     1      -0.945  15.967  25.986  0.00  0.00    +0.000 C 
ENDBRANCH  26  32
ENDBRANCH  20  28
ENDBRANCH   1  22
TORSDOF 7
ENDMDL
MODEL 3
REMARK VINA RESULT:      -7.9      1.098      1.630
REMARK  Name = 
REMARK  11 active torsions:
REMARK  status: ('A' for Active; 'I' for Inactive)
REMARK    1  A    between atoms: C_1  and  O_2
REMARK    2  A    between atoms: O_2  and  C_3
REMARK    3  A    between atoms: C_5  and  O_6
REMARK    4  A    between atoms: O_6  and  C_7
REMARK    5  A    between atoms: C_9  and  C_10
REMARK    6  A    between atoms: N_12  and  C_13
REMARK    7  A    between atoms: C_18  and  C_19
REMARK    8  A    between atoms: C_22  and  O_23
REMARK    9  A    between atoms: O_23  and  C_24
REMARK   10  A    between atoms: C_25  and  O_26
REMARK   11  A    between atoms: O_26  and  C_27
REMARK                            x       y       z     vdW  Elec       q    Type
REMARK                         _______ _______ _______ _____ _____    ______ ____
ROOT
ATOM      1  C   UNL     1      -0.129  10.296  20.324  0.00  0.00    +0.000 A 
ATOM      2  C   UNL     1      -0.118  10.695  18.976  0.00  0.00    +0.000 A 
ATOM      3  C   UNL     1       0.587  10.012  17.985  0.00  0.00    +0.000 A 
ATOM      4  C   UNL     1       1.312   8.924  18.425  0.00  0.00    +0.000 A 
ATOM      5  O   UNL     1       2.091   8.128  17.656  0.00  0.00    +0.000 OA
ATOM      6  C   UNL     1       2.648   7.240  18.537  0.00  0.00    +0.000 A 
ATOM      7  N   UNL     1       2.237   7.391  19.791  0.00  0.00    +0.000 NA
ATOM      8  C   UNL     1       1.387   8.484  19.734  0.00  0.00    +0.000 A 
ATOM      9  C   UNL     1       0.647   9.183  20.718  0.00  0.00    +0.000 A 
ENDROOT
BRANCH   6  10
ATOM     10  C   UNL     1       3.647   6.344  17.945  0.00  0.00    +0.000 A 
ATOM     11  C   UNL     1       3.286   5.070  17.484  0.00  0.00    +0.000 A 
ATOM     12  C   UNL     1       4.216   4.249  16.849  0.00  0.00    +0.000 A 
ATOM     13  C   UNL     1       5.539   4.668  16.662  0.00  0.00    +0.000 A 
ATOM     14  C   UNL     1       5.933   5.930  17.146  0.00  0.00    +0.000 A 
ATOM     15  C   UNL     1       4.978   6.754  17.779  0.00  0.00    +0.000 A 
BRANCH  13  16
ATOM     16  O   UNL     1       6.280   3.727  15.995  0.00  0.00    +0.000 OA
ATOM     17  C   UNL     1       6.358   3.782  14.580  0.00  0.00    +0.000 C 
ENDBRANCH  13  16
BRANCH  14  18
ATOM     18  O   UNL     1       7.240   6.301  16.976  0.00  0.00    +0.000 OA
ATOM     19  C   UNL     1       7.622   7.617  17.345  0.00  0.00    +0.000 C 
ENDBRANCH  14  18
ENDBRANCH   6  10
BRANCH   1  22
ATOM     20  C   UNL     1      -0.497  12.157  21.940  0.00  0.00    +0.000 C 
ATOM     21  O   UNL     1       0.544  12.770  21.725  0.00  0.00    +0.000 OA
ATOM     22  N   UNL     1      -0.905  10.989  21.300  0.00  0.00    +0.000 N 
ATOM     23  H   UNL     1      -1.865  10.691  21.421  0.00  0.00    +0.000 HD
BRANCH  20  28
ATOM     24  C   UNL     1      -2.138  14.542  24.404  0.00  0.00    +0.000 A 
ATOM     25  C   UNL     1      -3.348  13.862  24.604  0.00  0.00    +0.000 A 
ATOM     26  C   UNL     1      -3.612  12.650  23.969  0.00  0.00    +0.000 A 
ATOM     27  C   UNL     1      -2.651  12.121  23.118  0.00  0.00    +0.000 A 
ATOM     28  C   UNL     1      -1.425  12.781  22.918  0.00  0.00    +0.000 A 
ATOM     29  C   UNL     1      -1.168  14.002  23.553  0.00  0.00    +0.000 A 
BRANCH  24  31
ATOM     30  C   UNL     1      -1.148  16.701  24.619  0.00  0.00    +0.000 C 
ATOM     31  O   UNL     1      -2.047  15.715  25.101  0.00  0.00    +0.000 OA
ENDBRANCH  24  31
BRANCH  26  32
ATOM     32  O   UNL     1      -4.825  12.089  24.257  0.00  0.00    +0.000 OA
ATOM     33  C   UNL     1      -5.971  12.676  23.651  0.00  0.00    +0.000 C 
ENDBRANCH  26  32
ENDBRANCH  20  28
ENDBRANCH   1  22
TORSDOF 7
ENDMDL
MODEL 4
REMARK VINA RESULT:      -7.8      1.459     11.514
REMARK  Name = 
REMARK  11 active torsions:
REMARK  status: ('A' for Active; 'I' for Inactive)
REMARK    1  A    between atoms: C_1  and  O_2
REMARK    2  A    between atoms: O_2  and  C_3
REMARK    3  A    between atoms: C_5  and  O_6
REMARK    4  A    between atoms: O_6  and  C_7
REMARK    5  A    between atoms: C_9  and  C_10
REMARK    6  A    between atoms: N_12  and  C_13
REMARK    7  A    between atoms: C_18  and  C_19
REMARK    8  A    between atoms: C_22  and  O_23
REMARK    9  A    between atoms: O_23  and  C_24
REMARK   10  A    between atoms: C_25  and  O_26
REMARK   11  A    between atoms: O_26  and  C_27
REMARK                            x       y       z     vdW  Elec       q    Type
REMARK                         _______ _______ _______ _____ _____    ______ ____
ROOT
ATOM      1  C   UNL     1       1.152   8.715  20.749  0.00  0.00    +0.000 A 
ATOM      2  C   UNL     1       1.032   9.641  19.698  0.00  0.00    +0.000 A 
ATOM      3  C   UNL     1       0.357  10.856  19.825  0.00  0.00    +0.000 A 
ATOM      4  C   UNL     1      -0.224  11.076  21.056  0.00  0.00    +0.000 A 
ATOM      5  O   UNL     1      -0.950  12.164  21.406  0.00  0.00    +0.000 OA
ATOM      6  C   UNL     1      -1.365  11.904  22.684  0.00  0.00    +0.000 A 
ATOM      7  N   UNL     1      -0.911  10.757  23.177  0.00  0.00    +0.000 NA
ATOM      8  C   UNL     1      -0.188  10.207  22.130  0.00  0.00    +0.000 A 
ATOM      9  C   UNL     1       0.520   8.990  21.983  0.00  0.00    +0.000 A 
ENDROOT
BRANCH   6  10
ATOM     10  C   UNL     1      -2.289  12.899  23.237  0.00  0.00    +0.000 A 
ATOM     11  C   UNL     1      -1.868  14.213  23.483  0.00  0.00    +0.000 A 
ATOM     12  C   UNL     1      -2.765  15.180  23.932  0.00  0.00    +0.000 A 
ATOM     13  C   UNL     1      -4.110  14.866  24.161  0.00  0.00    +0.000 A 
ATOM     14  C   UNL     1      -4.549  13.545  23.952  0.00  0.00    +0.000 A 
ATOM     15  C   UNL     1      -3.632  12.578  23.489  0.00  0.00    +0.000 A 
BRANCH  13  16
ATOM     16  O   UNL     1      -4.824  15.961  24.571  0.00  0.00    +0.000 OA
ATOM     17  C   UNL     1      -4.141  17.048  25.175  0.00  0.00    +0.000 C 
ENDBRANCH  13  16
BRANCH  14  18
ATOM     18  O   UNL     1      -5.863  13.259  24.212  0.00  0.00    +0.000 OA
ATOM     19  C   UNL     1      -6.798  13.354  23.148  0.00  0.00    +0.000 C 
ENDBRANCH  14  18
ENDBRANCH   6  10
BRANCH   1  22
ATOM     20  C   UNL     1       2.500   7.103  19.409  0.00  0.00    +0.000 C 
ATOM     21  O   UNL     1       2.520   7.738  18.359  0.00  0.00    +0.000 OA
ATOM     22  N   UNL     1       1.896   7.508  20.596  0.00  0.00    +0.000 N 
ATOM     23  H   UNL     1       2.115   6.993  21.441  0.00  0.00    +0.000 HD
BRANCH  20  28
ATOM     24  C   UNL     1       5.215   4.477  18.985  0.00  0.00    +0.000 A 
ATOM     25  C   UNL     1       4.592   3.402  19.635  0.00  0.00    +0.000 A 
ATOM     26  C   UNL     1       3.315   3.524  20.178  0.00  0.00    +0.000 A 
ATOM     27  C   UNL     1       2.660   4.745  20.072  0.00  0.00    +0.000 A 
ATOM     28  C   UNL     1       3.264   5.829  19.409  0.00  0.00    +0.000 A 
ATOM     29  C   UNL     1       4.551   5.702  18.872  0.00  0.00    +0.000 A 
BRANCH  24  31
ATOM     30  C   UNL     1       6.796   4.611  17.204  0.00  0.00    +0.000 C 
ATOM     31  O   UNL     1       6.466   4.183  18.517  0.00  0.00    +0.000 OA
ENDBRANCH  24  31
BRANCH  26  32
ATOM     32  O   UNL     1       2.820   2.399  20.776  0.00  0.00    +0.000 OA
ATOM     33  C   UNL     1       1.609   2.536  21.510  0.00  0.00    +0.000 C 
ENDBRANCH  26  32
ENDBRANCH  20  28
ENDBRANCH   1  22
TORSDOF 7
ENDMDL
MODEL 5
REMARK VINA RESULT:      -7.7      1.165      1.165
REMARK  Name = 
REMARK  11 active torsions:
REMARK  status: ('A' for Active; 'I' for Inactive)
REMARK    1  A    between atoms: C_1  and  O_2
REMARK    2  A    between atoms: O_2  and  C_3
REMARK    3  A    between atoms: C_5  and  O_6
REMARK    4  A    between atoms: O_6  and  C_7
REMARK    5  A    between atoms: C_9  and  C_10
REMARK    6  A    between atoms: N_12  and  C_13
REMARK    7  A    between atoms: C_18  and  C_19
REMARK    8  A    between atoms: C_22  and  O_23
REMARK    9  A    between atoms: O_23  and  C_24
REMARK   10  A    between atoms: C_25  and  O_26
REMARK   11  A    between atoms: O_26  and  C_27
REMARK                            x       y       z     vdW  Elec       q    Type
REMARK                         _______ _______ _______ _____ _____    ______ ____
ROOT
ATOM      1  C   UNL     1       0.581  10.851  20.625  0.00  0.00    +0.000 A 
ATOM      2  C   UNL     1       0.992  11.514  19.456  0.00  0.00    +0.000 A 
ATOM      3  C   UNL     1       1.642  10.871  18.403  0.00  0.00    +0.000 A 
ATOM      4  C   UNL     1       1.891   9.529  18.601  0.00  0.00    +0.000 A 
ATOM      5  O   UNL     1       2.530   8.705  17.736  0.00  0.00    +0.000 OA
ATOM      6  C   UNL     1       2.593   7.504  18.390  0.00  0.00    +0.000 A 
ATOM      7  N   UNL     1       1.999   7.502  19.577  0.00  0.00    +0.000 NA
ATOM      8  C   UNL     1       1.556   8.807  19.731  0.00  0.00    +0.000 A 
ATOM      9  C   UNL     1       0.880   9.477  20.778  0.00  0.00    +0.000 A 
ENDROOT
BRANCH   6  10
ATOM     10  C   UNL     1       3.369   6.474  17.691  0.00  0.00    +0.000 A 
ATOM     11  C   UNL     1       4.336   6.824  16.738  0.00  0.00    +0.000 A 
ATOM     12  C   UNL     1       5.128   5.852  16.132  0.00  0.00    +0.000 A 
ATOM     13  C   UNL     1       4.976   4.497  16.449  0.00  0.00    +0.000 A 
ATOM     14  C   UNL     1       3.989   4.117  17.378  0.00  0.00    +0.000 A 
ATOM     15  C   UNL     1       3.199   5.114  17.990  0.00  0.00    +0.000 A 
BRANCH  13  16
ATOM     16  O   UNL     1       5.868   3.712  15.764  0.00  0.00    +0.000 OA
ATOM     17  C   UNL     1       6.986   4.319  15.138  0.00  0.00    +0.000 C 
ENDBRANCH  13  16
BRANCH  14  18
ATOM     18  O   UNL     1       3.842   2.782  17.646  0.00  0.00    +0.000 OA
ATOM     19  C   UNL     1       2.531   2.266  17.807  0.00  0.00    +0.000 C 
ENDBRANCH  14  18
ENDBRANCH   6  10
BRANCH   1  22
ATOM     20  C   UNL     1      -1.391  12.097  21.501  0.00  0.00    +0.000 C 
ATOM     21  O   UNL     1      -2.080  12.049  20.486  0.00  0.00    +0.000 OA
ATOM     22  N   UNL     1      -0.128  11.532  21.658  0.00  0.00    +0.000 N 
ATOM     23  H   UNL     1       0.251  11.469  22.595  0.00  0.00    +0.000 HD
BRANCH  20  28
ATOM     24  C   UNL     1      -2.226  14.510  24.318  0.00  0.00    +0.000 A 
ATOM     25  C   UNL     1      -3.410  13.918  24.778  0.00  0.00    +0.000 A 
ATOM     26  C   UNL     1      -3.912  12.754  24.199  0.00  0.00    +0.000 A 
ATOM     27  C   UNL     1      -3.217  12.184  23.140  0.00  0.00    +0.000 A 
ATOM     28  C   UNL     1      -2.017  12.755  22.677  0.00  0.00    +0.000 A 
ATOM     29  C   UNL     1      -1.523  13.929  23.258  0.00  0.00    +0.000 A 
BRANCH  24  31
ATOM     30  C   UNL     1      -2.873  16.651  25.146  0.00  0.00    +0.000 C 
ATOM     31  O   UNL     1      -1.882  15.646  24.996  0.00  0.00    +0.000 OA
ENDBRANCH  24  31
BRANCH  26  32
ATOM     32  O   UNL     1      -5.069  12.277  24.747  0.00  0.00    +0.000 OA
ATOM     33  C   UNL     1      -6.286  12.625  24.095  0.00  0.00    +0.000 C 
ENDBRANCH  26  32
ENDBRANCH  20  28
ENDBRANCH   1  22
TORSDOF 7
ENDMDL
MODEL 6
REMARK VINA RESULT:      -7.6      1.388     11.742
REMARK  Name = 
REMARK  11 active torsions:
REMARK  status: ('A' for Active; 'I' for Inactive)
REMARK    1  A    between atoms: C_1  and  O_2
REMARK    2  A    between atoms: O_2  and  C_3
REMARK    3  A    between atoms: C_5  and  O_6
REMARK    4  A    between atoms: O_6  and  C_7
REMARK    5  A    between atoms: C_9  and  C_10
REMARK    6  A    between atoms: N_12  and  C_13
REMARK    7  A    between atoms: C_18  and  C_19
REMARK    8  A    between atoms: C_22  and  O_23
REMARK    9  A    between atoms: O_23  and  C_24
REMARK   10  A    between atoms: C_25  and  O_26
REMARK   11  A    between atoms: O_26  and  C_27
REMARK                            x       y       z     vdW  Elec       q    Type
REMARK                         _______ _______ _______ _____ _____    ______ ____
ROOT
ATOM      1  C   UNL     1       1.325   8.626  20.615  0.00  0.00    +0.000 A 
ATOM      2  C   UNL     1       1.110   9.522  19.553  0.00  0.00    +0.000 A 
ATOM      3  C   UNL     1       0.446  10.740  19.706  0.00  0.00    +0.000 A 
ATOM      4  C   UNL     1      -0.023  10.996  20.978  0.00  0.00    +0.000 A 
ATOM      5  O   UNL     1      -0.716  12.094  21.360  0.00  0.00    +0.000 OA
ATOM      6  C   UNL     1      -1.014  11.870  22.678  0.00  0.00    +0.000 A 
ATOM      7  N   UNL     1      -0.516  10.737  23.160  0.00  0.00    +0.000 NA
ATOM      8  C   UNL     1       0.111  10.157  22.069  0.00  0.00    +0.000 A 
ATOM      9  C   UNL     1       0.805   8.936  21.893  0.00  0.00    +0.000 A 
ENDROOT
BRANCH   6  10
ATOM     10  C   UNL     1      -1.887  12.882  23.282  0.00  0.00    +0.000 A 
ATOM     11  C   UNL     1      -1.393  14.151  23.616  0.00  0.00    +0.000 A 
ATOM     12  C   UNL     1      -2.239  15.139  24.116  0.00  0.00    +0.000 A 
ATOM     13  C   UNL     1      -3.603  14.890  24.310  0.00  0.00    +0.000 A 
ATOM     14  C   UNL     1      -4.115  13.613  24.014  0.00  0.00    +0.000 A 
ATOM     15  C   UNL     1      -3.249  12.625  23.500  0.00  0.00    +0.000 A 
BRANCH  13  16
ATOM     16  O   UNL     1      -4.259  15.998  24.782  0.00  0.00    +0.000 OA
ATOM     17  C   UNL     1      -4.318  17.164  23.977  0.00  0.00    +0.000 C 
ENDBRANCH  13  16
BRANCH  14  18
ATOM     18  O   UNL     1      -5.447  13.389  24.241  0.00  0.00    +0.000 OA
ATOM     19  C   UNL     1      -6.340  13.454  23.140  0.00  0.00    +0.000 C 
ENDBRANCH  14  18
ENDBRANCH   6  10
BRANCH   1  22
ATOM     20  C   UNL     1       2.546   6.974  19.206  0.00  0.00    +0.000 C 
ATOM     21  O   UNL     1       2.468   7.577  18.139  0.00  0.00    +0.000 OA
ATOM     22  N   UNL     1       2.053   7.414  20.431  0.00  0.00    +0.000 N 
ATOM     23  H   UNL     1       2.350   6.925  21.267  0.00  0.00    +0.000 HD
BRANCH  20  28
ATOM     24  C   UNL     1       3.509   3.298  19.060  0.00  0.00    +0.000 A 
ATOM     25  C   UNL     1       4.900   3.434  18.959  0.00  0.00    +0.000 A 
ATOM     26  C   UNL     1       5.509   4.688  18.958  0.00  0.00    +0.000 A 
ATOM     27  C   UNL     1       4.707   5.818  19.053  0.00  0.00    +0.000 A 
ATOM     28  C   UNL     1       3.309   5.700  19.173  0.00  0.00    +0.000 A 
ATOM     29  C   UNL     1       2.704   4.437  19.165  0.00  0.00    +0.000 A 
BRANCH  24  31
ATOM     30  C   UNL     1       1.723   1.756  18.713  0.00  0.00    +0.000 C 
ATOM     31  O   UNL     1       3.082   2.000  19.042  0.00  0.00    +0.000 OA
ENDBRANCH  24  31
BRANCH  26  32
ATOM     32  O   UNL     1       6.872   4.679  18.862  0.00  0.00    +0.000 OA
ATOM     33  C   UNL     1       7.429   4.474  17.568  0.00  0.00    +0.000 C 
ENDBRANCH  26  32
ENDBRANCH  20  28
ENDBRANCH   1  22
TORSDOF 7
ENDMDL
MODEL 7
REMARK VINA RESULT:      -7.5      1.191     11.564
REMARK  Name = 
REMARK  11 active torsions:
REMARK  status: ('A' for Active; 'I' for Inactive)
REMARK    1  A    between atoms: C_1  and  O_2
REMARK    2  A    between atoms: O_2  and  C_3
REMARK    3  A    between atoms: C_5  and  O_6
REMARK    4  A    between atoms: O_6  and  C_7
REMARK    5  A    between atoms: C_9  and  C_10
REMARK    6  A    between atoms: N_12  and  C_13
REMARK    7  A    between atoms: C_18  and  C_19
REMARK    8  A    between atoms: C_22  and  O_23
REMARK    9  A    between atoms: O_23  and  C_24
REMARK   10  A    between atoms: C_25  and  O_26
REMARK   11  A    between atoms: O_26  and  C_27
REMARK                            x       y       z     vdW  Elec       q    Type
REMARK                         _______ _______ _______ _____ _____    ______ ____
ROOT
ATOM      1  C   UNL     1       1.217   8.990  19.673  0.00  0.00    +0.000 A 
ATOM      2  C   UNL     1       0.576   9.785  18.707  0.00  0.00    +0.000 A 
ATOM      3  C   UNL     1      -0.192  10.904  19.029  0.00  0.00    +0.000 A 
ATOM      4  C   UNL     1      -0.313  11.163  20.378  0.00  0.00    +0.000 A 
ATOM      5  O   UNL     1      -1.026  12.173  20.930  0.00  0.00    +0.000 OA
ATOM      6  C   UNL     1      -0.900  11.984  22.280  0.00  0.00    +0.000 A 
ATOM      7  N   UNL     1      -0.121  10.962  22.613  0.00  0.00    +0.000 NA
ATOM      8  C   UNL     1       0.251  10.415  21.395  0.00  0.00    +0.000 A 
ATOM      9  C   UNL     1       1.042   9.296  21.042  0.00  0.00    +0.000 A 
ENDROOT
BRANCH   6  10
ATOM     10  C   UNL     1      -1.707  12.896  23.098  0.00  0.00    +0.000 A 
ATOM     11  C   UNL     1      -1.149  14.062  23.639  0.00  0.00    +0.000 A 
ATOM     12  C   UNL     1      -1.933  14.969  24.348  0.00  0.00    +0.000 A 
ATOM     13  C   UNL     1      -3.299  14.737  24.551  0.00  0.00    +0.000 A 
ATOM     14  C   UNL     1      -3.875  13.556  24.046  0.00  0.00    +0.000 A 
ATOM     15  C   UNL     1      -3.070  12.651  23.322  0.00  0.00    +0.000 A 
BRANCH  13  16
ATOM     16  O   UNL     1      -3.890  15.760  25.247  0.00  0.00    +0.000 OA
ATOM     17  C   UNL     1      -4.825  16.597  24.588  0.00  0.00    +0.000 C 
ENDBRANCH  13  16
BRANCH  14  18
ATOM     18  O   UNL     1      -5.206  13.341  24.285  0.00  0.00    +0.000 OA
ATOM     19  C   UNL     1      -6.034  12.958  23.198  0.00  0.00    +0.000 C 
ENDBRANCH  14  18
ENDBRANCH   6  10
BRANCH   1  22
ATOM     20  C   UNL     1       2.681   7.761  18.074  0.00  0.00    +0.000 C 
ATOM     21  O   UNL     1       2.674   8.594  17.172  0.00  0.00    +0.000 OA
ATOM     22  N   UNL     1       2.038   7.883  19.303  0.00  0.00    +0.000 N 
ATOM     23  H   UNL     1       2.279   7.225  20.033  0.00  0.00    +0.000 HD
BRANCH  20  28
ATOM     24  C   UNL     1       5.545   5.437  17.152  0.00  0.00    +0.000 A 
ATOM     25  C   UNL     1       5.012   4.227  17.619  0.00  0.00    +0.000 A 
ATOM     26  C   UNL     1       3.747   4.168  18.201  0.00  0.00    +0.000 A 
ATOM     27  C   UNL     1       3.013   5.341  18.319  0.00  0.00    +0.000 A 
ATOM     28  C   UNL     1       3.525   6.561  17.840  0.00  0.00    +0.000 A 
ATOM     29  C   UNL     1       4.800   6.615  17.264  0.00  0.00    +0.000 A 
BRANCH  24  31
ATOM     30  C   UNL     1       6.895   5.039  15.226  0.00  0.00    +0.000 C 
ATOM     31  O   UNL     1       6.796   5.314  16.615  0.00  0.00    +0.000 OA
ENDBRANCH  24  31
BRANCH  26  32
ATOM     32  O   UNL     1       3.344   2.926  18.606  0.00  0.00    +0.000 OA
ATOM     33  C   UNL     1       2.129   2.429  18.057  0.00  0.00    +0.000 C 
ENDBRANCH  26  32
ENDBRANCH  20  28
ENDBRANCH   1  22
TORSDOF 7
ENDMDL
MODEL 8
REMARK VINA RESULT:      -7.5      1.805     11.718
REMARK  Name = 
REMARK  11 active torsions:
REMARK  status: ('A' for Active; 'I' for Inactive)
REMARK    1  A    between atoms: C_1  and  O_2
REMARK    2  A    between atoms: O_2  and  C_3
REMARK    3  A    between atoms: C_5  and  O_6
REMARK    4  A    between atoms: O_6  and  C_7
REMARK    5  A    between atoms: C_9  and  C_10
REMARK    6  A    between atoms: N_12  and  C_13
REMARK    7  A    between atoms: C_18  and  C_19
REMARK    8  A    between atoms: C_22  and  O_23
REMARK    9  A    between atoms: O_23  and  C_24
REMARK   10  A    between atoms: C_25  and  O_26
REMARK   11  A    between atoms: O_26  and  C_27
REMARK                            x       y       z     vdW  Elec       q    Type
REMARK                         _______ _______ _______ _____ _____    ______ ____
ROOT
ATOM      1  C   UNL     1       1.115   8.974  20.784  0.00  0.00    +0.000 A 
ATOM      2  C   UNL     1       1.281   8.801  22.169  0.00  0.00    +0.000 A 
ATOM      3  C   UNL     1       0.531   9.494  23.120  0.00  0.00    +0.000 A 
ATOM      4  C   UNL     1      -0.373  10.400  22.605  0.00  0.00    +0.000 A 
ATOM      5  O   UNL     1      -1.188  11.203  23.329  0.00  0.00    +0.000 OA
ATOM      6  C   UNL     1      -1.843  11.959  22.393  0.00  0.00    +0.000 A 
ATOM      7  N   UNL     1      -1.534  11.654  21.138  0.00  0.00    +0.000 NA
ATOM      8  C   UNL     1      -0.575  10.661  21.263  0.00  0.00    +0.000 A 
ATOM      9  C   UNL     1       0.184   9.930  20.318  0.00  0.00    +0.000 A 
ENDROOT
BRANCH   6  10
ATOM     10  C   UNL     1      -2.699  13.010  22.954  0.00  0.00    +0.000 A 
ATOM     11  C   UNL     1      -2.142  14.129  23.588  0.00  0.00    +0.000 A 
ATOM     12  C   UNL     1      -2.951  15.166  24.050  0.00  0.00    +0.000 A 
ATOM     13  C   UNL     1      -4.342  15.114  23.904  0.00  0.00    +0.000 A 
ATOM     14  C   UNL     1      -4.927  13.985  23.301  0.00  0.00    +0.000 A 
ATOM     15  C   UNL     1      -4.095  12.947  22.830  0.00  0.00    +0.000 A 
BRANCH  13  16
ATOM     16  O   UNL     1      -4.946  16.241  24.400  0.00  0.00    +0.000 OA
ATOM     17  C   UNL     1      -4.191  17.138  25.198  0.00  0.00    +0.000 C 
ENDBRANCH  13  16
BRANCH  14  18
ATOM     18  O   UNL     1      -6.292  13.949  23.199  0.00  0.00    +0.000 OA
ATOM     19  C   UNL     1      -7.024  13.222  24.174  0.00  0.00    +0.000 C 
ENDBRANCH  14  18
ENDBRANCH   6  10
BRANCH   1  22
ATOM     20  C   UNL     1       2.038   6.829  19.914  0.00  0.00    +0.000 C 
ATOM     21  O   UNL     1       1.541   6.084  20.754  0.00  0.00    +0.000 OA
ATOM     22  N   UNL     1       1.864   8.209  19.842  0.00  0.00    +0.000 N 
ATOM     23  H   UNL     1       2.161   8.682  18.997  0.00  0.00    +0.000 HD
BRANCH  20  28
ATOM     24  C   UNL     1       4.632   6.031  17.252  0.00  0.00    +0.000 A 
ATOM     25  C   UNL     1       4.269   4.706  16.974  0.00  0.00    +0.000 A 
ATOM     26  C   UNL     1       3.197   4.097  17.622  0.00  0.00    +0.000 A 
ATOM     27  C   UNL     1       2.486   4.827  18.566  0.00  0.00    +0.000 A 
ATOM     28  C   UNL     1       2.825   6.164  18.845  0.00  0.00    +0.000 A 
ATOM     29  C   UNL     1       3.909   6.768  18.196  0.00  0.00    +0.000 A 
BRANCH  24  31
ATOM     30  C   UNL     1       6.883   6.821  17.243  0.00  0.00    +0.000 C 
ATOM     31  O   UNL     1       5.708   6.468  16.530  0.00  0.00    +0.000 OA
ENDBRANCH  24  31
BRANCH  26  32
ATOM     32  O   UNL     1       2.944   2.805  17.253  0.00  0.00    +0.000 OA
ATOM     33  C   UNL     1       3.503   1.778  18.065  0.00  0.00    +0.000 C 
ENDBRANCH  26  32
ENDBRANCH  20  28
ENDBRANCH   1  22
TORSDOF 7
ENDMDL
MODEL 9
REMARK VINA RESULT:      -7.5      1.310      2.408
REMARK  Name = 
REMARK  11 active torsions:
REMARK  status: ('A' for Active; 'I' for Inactive)
REMARK    1  A    between atoms: C_1  and  O_2
REMARK    2  A    between atoms: O_2  and  C_3
REMARK    3  A    between atoms: C_5  and  O_6
REMARK    4  A    between atoms: O_6  and  C_7
REMARK    5  A    between atoms: C_9  and  C_10
REMARK    6  A    between atoms: N_12  and  C_13
REMARK    7  A    between atoms: C_18  and  C_19
REMARK    8  A    between atoms: C_22  and  O_23
REMARK    9  A    between atoms: O_23  and  C_24
REMARK   10  A    between atoms: C_25  and  O_26
REMARK   11  A    between atoms: O_26  and  C_27
REMARK                            x       y       z     vdW  Elec       q    Type
REMARK                         _______ _______ _______ _____ _____    ______ ____
ROOT
ATOM      1  C   UNL     1       0.631  11.071  20.184  0.00  0.00    +0.000 A 
ATOM      2  C   UNL     1       1.073  11.656  18.985  0.00  0.00    +0.000 A 
ATOM      3  C   UNL     1       1.725  10.940  17.981  0.00  0.00    +0.000 A 
ATOM      4  C   UNL     1       1.944   9.607  18.261  0.00  0.00    +0.000 A 
ATOM      5  O   UNL     1       2.578   8.723  17.456  0.00  0.00    +0.000 OA
ATOM      6  C   UNL     1       2.608   7.560  18.179  0.00  0.00    +0.000 A 
ATOM      7  N   UNL     1       1.997   7.640  19.355  0.00  0.00    +0.000 NA
ATOM      8  C   UNL     1       1.578   8.959  19.426  0.00  0.00    +0.000 A 
ATOM      9  C   UNL     1       0.900   9.703  20.421  0.00  0.00    +0.000 A 
ENDROOT
BRANCH   6  10
ATOM     10  C   UNL     1       3.373   6.476  17.554  0.00  0.00    +0.000 A 
ATOM     11  C   UNL     1       4.434   6.756  16.681  0.00  0.00    +0.000 A 
ATOM     12  C   UNL     1       5.212   5.729  16.149  0.00  0.00    +0.000 A 
ATOM     13  C   UNL     1       4.950   4.390  16.462  0.00  0.00    +0.000 A 
ATOM     14  C   UNL     1       3.869   4.083  17.310  0.00  0.00    +0.000 A 
ATOM     15  C   UNL     1       3.096   5.133  17.848  0.00  0.00    +0.000 A 
BRANCH  13  16
ATOM     16  O   UNL     1       5.845   3.544  15.858  0.00  0.00    +0.000 OA
ATOM     17  C   UNL     1       6.413   3.911  14.612  0.00  0.00    +0.000 C 
ENDBRANCH  13  16
BRANCH  14  18
ATOM     18  O   UNL     1       3.619   2.763  17.575  0.00  0.00    +0.000 OA
ATOM     19  C   UNL     1       3.349   2.383  18.915  0.00  0.00    +0.000 C 
ENDBRANCH  14  18
ENDBRANCH   6  10
BRANCH   1  22
ATOM     20  C   UNL     1      -1.406  12.224  21.035  0.00  0.00    +0.000 C 
ATOM     21  O   UNL     1      -2.154  11.949  20.101  0.00  0.00    +0.000 OA
ATOM     22  N   UNL     1      -0.079  11.824  21.164  0.00  0.00    +0.000 N 
ATOM     23  H   UNL     1       0.369  11.946  22.064  0.00  0.00    +0.000 HD
BRANCH  20  28
ATOM     24  C   UNL     1      -3.870  13.683  23.537  0.00  0.00    +0.000 A 
ATOM     25  C   UNL     1      -2.968  14.350  24.378  0.00  0.00    +0.000 A 
ATOM     26  C   UNL     1      -1.598  14.341  24.126  0.00  0.00    +0.000 A 
ATOM     27  C   UNL     1      -1.129  13.646  23.018  0.00  0.00    +0.000 A 
ATOM     28  C   UNL     1      -2.022  12.986  22.153  0.00  0.00    +0.000 A 
ATOM     29  C   UNL     1      -3.397  12.992  22.417  0.00  0.00    +0.000 A 
BRANCH  24  31
ATOM     30  C   UNL     1      -5.874  12.596  24.236  0.00  0.00    +0.000 C 
ATOM     31  O   UNL     1      -5.173  13.793  23.934  0.00  0.00    +0.000 OA
ENDBRANCH  24  31
BRANCH  26  32
ATOM     32  O   UNL     1      -0.831  15.036  25.019  0.00  0.00    +0.000 OA
ATOM     33  C   UNL     1      -1.117  16.422  25.176  0.00  0.00    +0.000 C 
ENDBRANCH  26  32
ENDBRANCH  20  28
ENDBRANCH   1  22
TORSDOF 7
ENDMDL
