MODEL 1
REMARK VINA RESULT:      -7.9      0.000      0.000
REMARK  Name = 
REMARK  7 active torsions:
REMARK  status: ('A' for Active; 'I' for Inactive)
REMARK    1  A    between atoms: C_1  and  C_2
REMARK    2  A    between atoms: N_4  and  C_5
REMARK    3  A    between atoms: C_5  and  C_6
REMARK    4  A    between atoms: C_6  and  C_7
REMARK    5  A    between atoms: C_10  and  C_11
REMARK    6  A    between atoms: C_17  and  C_18
REMARK    7  A    between atoms: N_21  and  C_22
REMARK                            x       y       z     vdW  Elec       q    Type
REMARK                         _______ _______ _______ _____ _____    ______ ____
ROOT
ATOM      1  C   UNL     1       1.019   9.504  19.194  0.00  0.00    +0.000 A 
ATOM      2  C   UNL     1       1.233   8.575  20.217  0.00  0.00    +0.000 A 
ATOM      3  C   UNL     1       2.085   7.484  20.036  0.00  0.00    +0.000 A 
ATOM      4  C   UNL     1       2.797   7.326  18.849  0.00  0.00    +0.000 A 
ATOM      5  C   UNL     1       2.564   8.228  17.804  0.00  0.00    +0.000 A 
ATOM      6  C   UNL     1       1.674   9.302  17.970  0.00  0.00    +0.000 A 
ENDROOT
BRANCH   4   7
ATOM      7  C   UNL     1       3.774   6.211  18.623  0.00  0.00    +0.000 C 
ATOM      8  O   UNL     1       4.903   6.343  19.081  0.00  0.00    +0.000 OA
ATOM      9  N   UNL     1       3.383   5.039  17.967  0.00  0.00    +0.000 N 
ATOM     10  C   UNL     1       2.057   4.621  17.536  0.00  0.00    +0.000 C 
ATOM     11  C   UNL     1       1.993   3.157  17.902  0.00  0.00    +0.000 C 
ATOM     12  C   UNL     1       3.413   2.668  17.675  0.00  0.00    +0.000 C 
ATOM     13  C   UNL     1       4.310   3.906  17.892  0.00  0.00    +0.000 C 
BRANCH  13  14
ATOM     14  C   UNL     1       5.275   4.067  16.761  0.00  0.00    +0.000 A 
ATOM     15  C   UNL     1       6.653   4.370  16.871  0.00  0.00    +0.000 A 
ATOM     16  N   UNL     1       7.286   4.360  15.694  0.00  0.00    +0.000 NA
ATOM     17  N   UNL     1       6.307   4.088  14.815  0.00  0.00    +0.000 N 
ATOM     18  C   UNL     1       6.607   3.971  13.409  0.00  0.00    +0.000 C 
ATOM     19  C   UNL     1       5.089   3.898  15.400  0.00  0.00    +0.000 A 
ENDBRANCH  13  14
ENDBRANCH   4   7
BRANCH   1  20
ATOM     20  C   UNL     1       0.016  10.629  19.343  0.00  0.00    +0.000 C 
BRANCH  20  21
ATOM     21  C   UNL     1      -1.400  10.302  18.846  0.00  0.00    +0.000 C 
BRANCH  21  25
ATOM     22  C   UNL     1      -2.737  10.521  15.317  0.00  0.00    +0.000 C 
ATOM     23  C   UNL     1      -2.718  10.150  16.772  0.00  0.00    +0.000 C 
ATOM     24  O   UNL     1      -3.643   9.555  17.314  0.00  0.00    +0.000 OA
ATOM     25  N   UNL     1      -1.572  10.544  17.427  0.00  0.00    +0.000 N 
ATOM     26  H   UNL     1      -0.875  11.087  16.934  0.00  0.00    +0.000 HD
ENDBRANCH  21  25
ENDBRANCH  20  21
ENDBRANCH   1  20
TORSDOF 5
ENDMDL
MODEL 2
REMARK VINA RESULT:      -7.9      2.092      2.704
REMARK  Name = 
REMARK  7 active torsions:
REMARK  status: ('A' for Active; 'I' for Inactive)
REMARK    1  A    between atoms: C_1  and  C_2
REMARK    2  A    between atoms: N_4  and  C_5
REMARK    3  A    between atoms: C_5  and  C_6
REMARK    4  A    between atoms: C_6  and  C_7
REMARK    5  A    between atoms: C_10  and  C_11
REMARK    6  A    between atoms: C_17  and  C_18
REMARK    7  A    between atoms: N_21  and  C_22
REMARK                            x       y       z     vdW  Elec       q    Type
REMARK                         _______ _______ _______ _____ _____    ______ ____
ROOT
ATOM      1  C   UNL     1       0.826   9.478  19.419  0.00  0.00    +0.000 A 
ATOM      2  C   UNL     1       1.096   8.590  20.465  0.00  0.00    +0.000 A 
ATOM      3  C   UNL     1       1.953   7.503  20.287  0.00  0.00    +0.000 A 
ATOM      4  C   UNL     1       2.617   7.310  19.078  0.00  0.00    +0.000 A 
ATOM      5  C   UNL     1       2.328   8.169  18.012  0.00  0.00    +0.000 A 
ATOM      6  C   UNL     1       1.432   9.239  18.177  0.00  0.00    +0.000 A 
ENDROOT
BRANCH   4   7
ATOM      7  C   UNL     1       3.598   6.198  18.851  0.00  0.00    +0.000 C 
ATOM      8  O   UNL     1       4.705   6.304  19.364  0.00  0.00    +0.000 OA
ATOM      9  N   UNL     1       3.231   5.056  18.131  0.00  0.00    +0.000 N 
ATOM     10  C   UNL     1       1.924   4.665  17.625  0.00  0.00    +0.000 C 
ATOM     11  C   UNL     1       1.837   3.187  17.928  0.00  0.00    +0.000 C 
ATOM     12  C   UNL     1       3.263   2.699  17.745  0.00  0.00    +0.000 C 
ATOM     13  C   UNL     1       4.155   3.921  18.052  0.00  0.00    +0.000 C 
BRANCH  13  14
ATOM     14  C   UNL     1       5.171   4.121  16.973  0.00  0.00    +0.000 A 
ATOM     15  C   UNL     1       6.547   4.397  17.158  0.00  0.00    +0.000 A 
ATOM     16  N   UNL     1       7.231   4.433  16.010  0.00  0.00    +0.000 NA
ATOM     17  N   UNL     1       6.288   4.219  15.077  0.00  0.00    +0.000 N 
ATOM     18  C   UNL     1       6.648   4.165  13.682  0.00  0.00    +0.000 C 
ATOM     19  C   UNL     1       5.043   4.020  15.599  0.00  0.00    +0.000 A 
ENDBRANCH  13  14
ENDBRANCH   4   7
BRANCH   1  20
ATOM     20  C   UNL     1      -0.184  10.596  19.570  0.00  0.00    +0.000 C 
BRANCH  20  21
ATOM     21  C   UNL     1       0.105  11.576  20.717  0.00  0.00    +0.000 C 
BRANCH  21  25
ATOM     22  C   UNL     1      -2.510  11.925  23.425  0.00  0.00    +0.000 C 
ATOM     23  C   UNL     1      -1.248  11.441  22.770  0.00  0.00    +0.000 C 
ATOM     24  O   UNL     1      -0.453  10.701  23.336  0.00  0.00    +0.000 OA
ATOM     25  N   UNL     1      -1.078  11.912  21.486  0.00  0.00    +0.000 N 
ATOM     26  H   UNL     1      -1.742  12.571  21.101  0.00  0.00    +0.000 HD
ENDBRANCH  21  25
ENDBRANCH  20  21
ENDBRANCH   1  20
TORSDOF 5
ENDMDL
MODEL 3
REMARK VINA RESULT:      -7.6      0.876      1.328
REMARK  Name = 
REMARK  7 active torsions:
REMARK  status: ('A' for Active; 'I' for Inactive)
REMARK    1  A    between atoms: C_1  and  C_2
REMARK    2  A    between atoms: N_4  and  C_5
REMARK    3  A    between atoms: C_5  and  C_6
REMARK    4  A    between atoms: C_6  and  C_7
REMARK    5  A    between atoms: C_10  and  C_11
REMARK    6  A    between atoms: C_17  and  C_18
REMARK    7  A    between atoms: N_21  and  C_22
REMARK                            x       y       z     vdW  Elec       q    Type
REMARK                         _______ _______ _______ _____ _____    ______ ____
ROOT
ATOM      1  C   UNL     1       0.548   9.597  19.476  0.00  0.00    +0.000 A 
ATOM      2  C   UNL     1       1.158   9.394  18.233  0.00  0.00    +0.000 A 
ATOM      3  C   UNL     1       2.095   8.376  18.045  0.00  0.00    +0.000 A 
ATOM      4  C   UNL     1       2.401   7.492  19.077  0.00  0.00    +0.000 A 
ATOM      5  C   UNL     1       1.826   7.706  20.335  0.00  0.00    +0.000 A 
ATOM      6  C   UNL     1       0.916   8.756  20.536  0.00  0.00    +0.000 A 
ENDROOT
BRANCH   4   7
ATOM      7  C   UNL     1       3.350   6.342  18.913  0.00  0.00    +0.000 C 
ATOM      8  O   UNL     1       4.451   6.433  19.444  0.00  0.00    +0.000 OA
ATOM      9  N   UNL     1       2.961   5.185  18.230  0.00  0.00    +0.000 N 
ATOM     10  C   UNL     1       1.652   4.814  17.712  0.00  0.00    +0.000 C 
ATOM     11  C   UNL     1       1.512   3.354  18.070  0.00  0.00    +0.000 C 
ATOM     12  C   UNL     1       2.925   2.814  17.936  0.00  0.00    +0.000 C 
ATOM     13  C   UNL     1       3.850   4.019  18.213  0.00  0.00    +0.000 C 
BRANCH  13  14
ATOM     14  C   UNL     1       4.892   4.144  17.149  0.00  0.00    +0.000 A 
ATOM     15  C   UNL     1       6.272   4.384  17.350  0.00  0.00    +0.000 A 
ATOM     16  N   UNL     1       6.979   4.354  16.217  0.00  0.00    +0.000 NA
ATOM     17  N   UNL     1       6.047   4.134  15.274  0.00  0.00    +0.000 N 
ATOM     18  C   UNL     1       6.433   4.014  13.889  0.00  0.00    +0.000 C 
ATOM     19  C   UNL     1       4.787   3.995  15.777  0.00  0.00    +0.000 A 
ENDBRANCH  13  14
ENDBRANCH   4   7
BRANCH   1  20
ATOM     20  C   UNL     1      -0.387  10.763  19.717  0.00  0.00    +0.000 C 
BRANCH  20  21
ATOM     21  C   UNL     1      -0.516  11.742  18.541  0.00  0.00    +0.000 C 
BRANCH  21  25
ATOM     22  C   UNL     1      -3.952  11.453  16.990  0.00  0.00    +0.000 C 
ATOM     23  C   UNL     1      -2.520  11.093  17.265  0.00  0.00    +0.000 C 
ATOM     24  O   UNL     1      -1.976  10.117  16.762  0.00  0.00    +0.000 OA
ATOM     25  N   UNL     1      -1.890  11.959  18.133  0.00  0.00    +0.000 N 
ATOM     26  H   UNL     1      -2.417  12.709  18.561  0.00  0.00    +0.000 HD
ENDBRANCH  21  25
ENDBRANCH  20  21
ENDBRANCH   1  20
TORSDOF 5
ENDMDL
MODEL 4
REMARK VINA RESULT:      -7.4      2.239      3.022
REMARK  Name = 
REMARK  7 active torsions:
REMARK  status: ('A' for Active; 'I' for Inactive)
REMARK    1  A    between atoms: C_1  and  C_2
REMARK    2  A    between atoms: N_4  and  C_5
REMARK    3  A    between atoms: C_5  and  C_6
REMARK    4  A    between atoms: C_6  and  C_7
REMARK    5  A    between atoms: C_10  and  C_11
REMARK    6  A    between atoms: C_17  and  C_18
REMARK    7  A    between atoms: N_21  and  C_22
REMARK                            x       y       z     vdW  Elec       q    Type
REMARK                         _______ _______ _______ _____ _____    ______ ____
ROOT
ATOM      1  C   UNL     1       0.753   9.279  19.842  0.00  0.00    +0.000 A 
ATOM      2  C   UNL     1       1.396   9.225  18.601  0.00  0.00    +0.000 A 
ATOM      3  C   UNL     1       2.343   8.239  18.320  0.00  0.00    +0.000 A 
ATOM      4  C   UNL     1       2.627   7.240  19.248  0.00  0.00    +0.000 A 
ATOM      5  C   UNL     1       2.019   7.303  20.507  0.00  0.00    +0.000 A 
ATOM      6  C   UNL     1       1.097   8.320  20.806  0.00  0.00    +0.000 A 
ENDROOT
BRANCH   4   7
ATOM      7  C   UNL     1       3.587   6.120  18.975  0.00  0.00    +0.000 C 
ATOM      8  O   UNL     1       4.695   6.182  19.493  0.00  0.00    +0.000 OA
ATOM      9  N   UNL     1       3.199   5.017  18.207  0.00  0.00    +0.000 N 
ATOM     10  C   UNL     1       1.886   4.672  17.683  0.00  0.00    +0.000 C 
ATOM     11  C   UNL     1       1.769   3.186  17.923  0.00  0.00    +0.000 C 
ATOM     12  C   UNL     1       3.186   2.678  17.722  0.00  0.00    +0.000 C 
ATOM     13  C   UNL     1       4.101   3.868  18.081  0.00  0.00    +0.000 C 
BRANCH  13  14
ATOM     14  C   UNL     1       5.123   4.093  17.012  0.00  0.00    +0.000 A 
ATOM     15  C   UNL     1       6.495   4.377  17.211  0.00  0.00    +0.000 A 
ATOM     16  N   UNL     1       7.187   4.437  16.069  0.00  0.00    +0.000 NA
ATOM     17  N   UNL     1       6.252   4.232  15.126  0.00  0.00    +0.000 N 
ATOM     18  C   UNL     1       6.622   4.203  13.732  0.00  0.00    +0.000 C 
ATOM     19  C   UNL     1       5.005   4.015  15.636  0.00  0.00    +0.000 A 
ENDBRANCH  13  14
ENDBRANCH   4   7
BRANCH   1  20
ATOM     20  C   UNL     1      -0.195  10.406  20.194  0.00  0.00    +0.000 C 
BRANCH  20  21
ATOM     21  C   UNL     1      -0.527  10.528  21.689  0.00  0.00    +0.000 C 
BRANCH  21  25
ATOM     22  C   UNL     1      -1.258  13.810  23.418  0.00  0.00    +0.000 C 
ATOM     23  C   UNL     1      -1.482  12.387  22.991  0.00  0.00    +0.000 C 
ATOM     24  O   UNL     1      -2.454  11.735  23.352  0.00  0.00    +0.000 OA
ATOM     25  N   UNL     1      -0.492  11.896  22.166  0.00  0.00    +0.000 N 
ATOM     26  H   UNL     1       0.315  12.469  21.958  0.00  0.00    +0.000 HD
ENDBRANCH  21  25
ENDBRANCH  20  21
ENDBRANCH   1  20
TORSDOF 5
ENDMDL
MODEL 5
REMARK VINA RESULT:      -7.4      1.765      2.111
REMARK  Name = 
REMARK  7 active torsions:
REMARK  status: ('A' for Active; 'I' for Inactive)
REMARK    1  A    between atoms: C_1  and  C_2
REMARK    2  A    between atoms: N_4  and  C_5
REMARK    3  A    between atoms: C_5  and  C_6
REMARK    4  A    between atoms: C_6  and  C_7
REMARK    5  A    between atoms: C_10  and  C_11
REMARK    6  A    between atoms: C_17  and  C_18
REMARK    7  A    between atoms: N_21  and  C_22
REMARK                            x       y       z     vdW  Elec       q    Type
REMARK                         _______ _______ _______ _____ _____    ______ ____
ROOT
ATOM      1  C   UNL     1       0.741   9.339  19.609  0.00  0.00    +0.000 A 
ATOM      2  C   UNL     1       1.040   8.445  20.643  0.00  0.00    +0.000 A 
ATOM      3  C   UNL     1       1.912   7.374  20.441  0.00  0.00    +0.000 A 
ATOM      4  C   UNL     1       2.562   7.204  19.221  0.00  0.00    +0.000 A 
ATOM      5  C   UNL     1       2.244   8.069  18.167  0.00  0.00    +0.000 A 
ATOM      6  C   UNL     1       1.333   9.122  18.356  0.00  0.00    +0.000 A 
ENDROOT
BRANCH   4   7
ATOM      7  C   UNL     1       3.557   6.111  18.969  0.00  0.00    +0.000 C 
ATOM      8  O   UNL     1       4.661   6.216  19.490  0.00  0.00    +0.000 OA
ATOM      9  N   UNL     1       3.208   4.985  18.216  0.00  0.00    +0.000 N 
ATOM     10  C   UNL     1       1.909   4.591  17.692  0.00  0.00    +0.000 C 
ATOM     11  C   UNL     1       1.838   3.105  17.954  0.00  0.00    +0.000 C 
ATOM     12  C   UNL     1       3.271   2.639  17.766  0.00  0.00    +0.000 C 
ATOM     13  C   UNL     1       4.146   3.863  18.111  0.00  0.00    +0.000 C 
BRANCH  13  14
ATOM     14  C   UNL     1       5.165   4.105  17.043  0.00  0.00    +0.000 A 
ATOM     15  C   UNL     1       6.532   4.415  17.243  0.00  0.00    +0.000 A 
ATOM     16  N   UNL     1       7.224   4.485  16.102  0.00  0.00    +0.000 NA
ATOM     17  N   UNL     1       6.294   4.259  15.158  0.00  0.00    +0.000 N 
ATOM     18  C   UNL     1       6.667   4.233  13.765  0.00  0.00    +0.000 C 
ATOM     19  C   UNL     1       5.051   4.020  15.667  0.00  0.00    +0.000 A 
ENDBRANCH  13  14
ENDBRANCH   4   7
BRANCH   1  20
ATOM     20  C   UNL     1      -0.284  10.439  19.786  0.00  0.00    +0.000 C 
BRANCH  20  21
ATOM     21  C   UNL     1      -0.659  11.186  18.497  0.00  0.00    +0.000 C 
BRANCH  21  25
ATOM     22  C   UNL     1      -0.206  14.926  18.817  0.00  0.00    +0.000 C 
ATOM     23  C   UNL     1       0.195  13.493  18.615  0.00  0.00    +0.000 C 
ATOM     24  O   UNL     1       1.351  13.156  18.389  0.00  0.00    +0.000 OA
ATOM     25  N   UNL     1      -0.858  12.607  18.704  0.00  0.00    +0.000 N 
ATOM     26  H   UNL     1      -1.798  12.958  18.830  0.00  0.00    +0.000 HD
ENDBRANCH  21  25
ENDBRANCH  20  21
ENDBRANCH   1  20
TORSDOF 5
ENDMDL
MODEL 6
REMARK VINA RESULT:      -7.4      2.143      2.660
REMARK  Name = 
REMARK  7 active torsions:
REMARK  status: ('A' for Active; 'I' for Inactive)
REMARK    1  A    between atoms: C_1  and  C_2
REMARK    2  A    between atoms: N_4  and  C_5
REMARK    3  A    between atoms: C_5  and  C_6
REMARK    4  A    between atoms: C_6  and  C_7
REMARK    5  A    between atoms: C_10  and  C_11
REMARK    6  A    between atoms: C_17  and  C_18
REMARK    7  A    between atoms: N_21  and  C_22
REMARK                            x       y       z     vdW  Elec       q    Type
REMARK                         _______ _______ _______ _____ _____    ______ ____
ROOT
ATOM      1  C   UNL     1       0.808   8.977  20.133  0.00  0.00    +0.000 A 
ATOM      2  C   UNL     1       1.019   7.916  21.021  0.00  0.00    +0.000 A 
ATOM      3  C   UNL     1       1.900   6.879  20.710  0.00  0.00    +0.000 A 
ATOM      4  C   UNL     1       2.644   6.905  19.533  0.00  0.00    +0.000 A 
ATOM      5  C   UNL     1       2.415   7.941  18.620  0.00  0.00    +0.000 A 
ATOM      6  C   UNL     1       1.497   8.963  18.912  0.00  0.00    +0.000 A 
ENDROOT
BRANCH   4   7
ATOM      7  C   UNL     1       3.652   5.853  19.178  0.00  0.00    +0.000 C 
ATOM      8  O   UNL     1       4.755   5.919  19.709  0.00  0.00    +0.000 OA
ATOM      9  N   UNL     1       3.316   4.801  18.320  0.00  0.00    +0.000 N 
ATOM     10  C   UNL     1       2.021   4.445  17.759  0.00  0.00    +0.000 C 
ATOM     11  C   UNL     1       1.967   2.940  17.878  0.00  0.00    +0.000 C 
ATOM     12  C   UNL     1       3.405   2.510  17.647  0.00  0.00    +0.000 C 
ATOM     13  C   UNL     1       4.266   3.705  18.109  0.00  0.00    +0.000 C 
BRANCH  13  14
ATOM     14  C   UNL     1       5.283   4.059  17.070  0.00  0.00    +0.000 A 
ATOM     15  C   UNL     1       6.634   4.408  17.304  0.00  0.00    +0.000 A 
ATOM     16  N   UNL     1       7.331   4.584  16.178  0.00  0.00    +0.000 NA
ATOM     17  N   UNL     1       6.418   4.387  15.211  0.00  0.00    +0.000 N 
ATOM     18  C   UNL     1       6.801   4.472  13.824  0.00  0.00    +0.000 C 
ATOM     19  C   UNL     1       5.182   4.065  15.690  0.00  0.00    +0.000 A 
ENDBRANCH  13  14
ENDBRANCH   4   7
BRANCH   1  20
ATOM     20  C   UNL     1      -0.224  10.049  20.413  0.00  0.00    +0.000 C 
BRANCH  20  21
ATOM     21  C   UNL     1      -0.057  11.337  19.592  0.00  0.00    +0.000 C 
BRANCH  21  25
ATOM     22  C   UNL     1       2.733  13.774  20.344  0.00  0.00    +0.000 C 
ATOM     23  C   UNL     1       1.954  12.758  19.560  0.00  0.00    +0.000 C 
ATOM     24  O   UNL     1       2.291  12.387  18.442  0.00  0.00    +0.000 OA
ATOM     25  N   UNL     1       0.834  12.294  20.217  0.00  0.00    +0.000 N 
ATOM     26  H   UNL     1       0.580  12.689  21.113  0.00  0.00    +0.000 HD
ENDBRANCH  21  25
ENDBRANCH  20  21
ENDBRANCH   1  20
TORSDOF 5
ENDMDL
MODEL 7
REMARK VINA RESULT:      -7.3      2.727      8.279
REMARK  Name = 
REMARK  7 active torsions:
REMARK  status: ('A' for Active; 'I' for Inactive)
REMARK    1  A    between atoms: C_1  and  C_2
REMARK    2  A    between atoms: N_4  and  C_5
REMARK    3  A    between atoms: C_5  and  C_6
REMARK    4  A    between atoms: C_6  and  C_7
REMARK    5  A    between atoms: C_10  and  C_11
REMARK    6  A    between atoms: C_17  and  C_18
REMARK    7  A    between atoms: N_21  and  C_22
REMARK                            x       y       z     vdW  Elec       q    Type
REMARK                         _______ _______ _______ _____ _____    ______ ____
ROOT
ATOM      1  C   UNL     1       4.266   5.205  17.748  0.00  0.00    +0.000 A 
ATOM      2  C   UNL     1       3.019   5.107  18.375  0.00  0.00    +0.000 A 
ATOM      3  C   UNL     1       2.232   6.238  18.600  0.00  0.00    +0.000 A 
ATOM      4  C   UNL     1       2.640   7.491  18.147  0.00  0.00    +0.000 A 
ATOM      5  C   UNL     1       3.901   7.609  17.552  0.00  0.00    +0.000 A 
ATOM      6  C   UNL     1       4.713   6.478  17.363  0.00  0.00    +0.000 A 
ENDROOT
BRANCH   4   7
ATOM      7  C   UNL     1       1.807   8.728  18.304  0.00  0.00    +0.000 C 
ATOM      8  O   UNL     1       1.508   9.345  17.288  0.00  0.00    +0.000 OA
ATOM      9  N   UNL     1       1.341   9.122  19.562  0.00  0.00    +0.000 N 
ATOM     10  C   UNL     1       1.421   8.423  20.837  0.00  0.00    +0.000 C 
ATOM     11  C   UNL     1       0.061   8.631  21.460  0.00  0.00    +0.000 C 
ATOM     12  C   UNL     1      -0.330  10.028  21.010  0.00  0.00    +0.000 C 
ATOM     13  C   UNL     1       0.406  10.246  19.671  0.00  0.00    +0.000 C 
BRANCH  13  14
ATOM     14  C   UNL     1       1.128  11.556  19.669  0.00  0.00    +0.000 A 
ATOM     15  C   UNL     1       1.364  12.386  20.791  0.00  0.00    +0.000 A 
ATOM     16  N   UNL     1       2.118  13.451  20.503  0.00  0.00    +0.000 NA
ATOM     17  N   UNL     1       2.337  13.332  19.183  0.00  0.00    +0.000 N 
ATOM     18  C   UNL     1       3.147  14.305  18.492  0.00  0.00    +0.000 C 
ATOM     19  C   UNL     1       1.774  12.215  18.638  0.00  0.00    +0.000 A 
ENDBRANCH  13  14
ENDBRANCH   4   7
BRANCH   1  20
ATOM     20  C   UNL     1       5.172   4.002  17.595  0.00  0.00    +0.000 C 
BRANCH  20  21
ATOM     21  C   UNL     1       6.377   4.214  16.667  0.00  0.00    +0.000 C 
BRANCH  21  25
ATOM     22  C   UNL     1       6.363   3.839  12.906  0.00  0.00    +0.000 C 
ATOM     23  C   UNL     1       6.706   4.442  14.238  0.00  0.00    +0.000 C 
ATOM     24  O   UNL     1       7.439   5.417  14.352  0.00  0.00    +0.000 OA
ATOM     25  N   UNL     1       6.124   3.791  15.304  0.00  0.00    +0.000 N 
ATOM     26  H   UNL     1       5.580   2.954  15.143  0.00  0.00    +0.000 HD
ENDBRANCH  21  25
ENDBRANCH  20  21
ENDBRANCH   1  20
TORSDOF 5
ENDMDL
MODEL 8
REMARK VINA RESULT:      -7.3      2.309      2.991
REMARK  Name = 
REMARK  7 active torsions:
REMARK  status: ('A' for Active; 'I' for Inactive)
REMARK    1  A    between atoms: C_1  and  C_2
REMARK    2  A    between atoms: N_4  and  C_5
REMARK    3  A    between atoms: C_5  and  C_6
REMARK    4  A    between atoms: C_6  and  C_7
REMARK    5  A    between atoms: C_10  and  C_11
REMARK    6  A    between atoms: C_17  and  C_18
REMARK    7  A    between atoms: N_21  and  C_22
REMARK                            x       y       z     vdW  Elec       q    Type
REMARK                         _______ _______ _______ _____ _____    ______ ____
ROOT
ATOM      1  C   UNL     1       0.728   9.351  19.577  0.00  0.00    +0.000 A 
ATOM      2  C   UNL     1       1.348   9.234  18.328  0.00  0.00    +0.000 A 
ATOM      3  C   UNL     1       2.308   8.249  18.088  0.00  0.00    +0.000 A 
ATOM      4  C   UNL     1       2.628   7.312  19.069  0.00  0.00    +0.000 A 
ATOM      5  C   UNL     1       2.043   7.441  20.334  0.00  0.00    +0.000 A 
ATOM      6  C   UNL     1       1.108   8.459  20.590  0.00  0.00    +0.000 A 
ENDROOT
BRANCH   4   7
ATOM      7  C   UNL     1       3.602   6.194  18.845  0.00  0.00    +0.000 C 
ATOM      8  O   UNL     1       4.712   6.297  19.355  0.00  0.00    +0.000 OA
ATOM      9  N   UNL     1       3.228   5.051  18.131  0.00  0.00    +0.000 N 
ATOM     10  C   UNL     1       1.918   4.664  17.629  0.00  0.00    +0.000 C 
ATOM     11  C   UNL     1       1.824   3.189  17.940  0.00  0.00    +0.000 C 
ATOM     12  C   UNL     1       3.247   2.692  17.756  0.00  0.00    +0.000 C 
ATOM     13  C   UNL     1       4.146   3.911  18.055  0.00  0.00    +0.000 C 
BRANCH  13  14
ATOM     14  C   UNL     1       5.161   4.100  16.973  0.00  0.00    +0.000 A 
ATOM     15  C   UNL     1       6.534   4.393  17.152  0.00  0.00    +0.000 A 
ATOM     16  N   UNL     1       7.218   4.414  16.004  0.00  0.00    +0.000 NA
ATOM     17  N   UNL     1       6.277   4.174  15.075  0.00  0.00    +0.000 N 
ATOM     18  C   UNL     1       6.638   4.098  13.681  0.00  0.00    +0.000 C 
ATOM     19  C   UNL     1       5.034   3.973  15.601  0.00  0.00    +0.000 A 
ENDBRANCH  13  14
ENDBRANCH   4   7
BRANCH   1  20
ATOM     20  C   UNL     1      -0.234  10.481  19.879  0.00  0.00    +0.000 C 
BRANCH  20  21
ATOM     21  C   UNL     1       0.390  11.685  20.601  0.00  0.00    +0.000 C 
BRANCH  21  25
ATOM     22  C   UNL     1       2.912  14.071  19.106  0.00  0.00    +0.000 C 
ATOM     23  C   UNL     1       2.226  13.269  20.174  0.00  0.00    +0.000 C 
ATOM     24  O   UNL     1       2.603  13.264  21.341  0.00  0.00    +0.000 OA
ATOM     25  N   UNL     1       1.146  12.546  19.714  0.00  0.00    +0.000 N 
ATOM     26  H   UNL     1       0.928  12.547  18.727  0.00  0.00    +0.000 HD
ENDBRANCH  21  25
ENDBRANCH  20  21
ENDBRANCH   1  20
TORSDOF 5
ENDMDL
MODEL 9
REMARK VINA RESULT:      -7.2      3.765      8.148
REMARK  Name = 
REMARK  7 active torsions:
REMARK  status: ('A' for Active; 'I' for Inactive)
REMARK    1  A    between atoms: C_1  and  C_2
REMARK    2  A    between atoms: N_4  and  C_5
REMARK    3  A    between atoms: C_5  and  C_6
REMARK    4  A    between atoms: C_6  and  C_7
REMARK    5  A    between atoms: C_10  and  C_11
REMARK    6  A    between atoms: C_17  and  C_18
REMARK    7  A    between atoms: N_21  and  C_22
REMARK                            x       y       z     vdW  Elec       q    Type
REMARK                         _______ _______ _______ _____ _____    ______ ____
ROOT
ATOM      1  C   UNL     1       6.875   4.797  14.516  0.00  0.00    +0.000 A 
ATOM      2  C   UNL     1       5.608   4.226  14.683  0.00  0.00    +0.000 A 
ATOM      3  C   UNL     1       4.965   4.245  15.922  0.00  0.00    +0.000 A 
ATOM      4  C   UNL     1       5.540   4.893  17.013  0.00  0.00    +0.000 A 
ATOM      5  C   UNL     1       6.822   5.436  16.869  0.00  0.00    +0.000 A 
ATOM      6  C   UNL     1       7.489   5.380  15.634  0.00  0.00    +0.000 A 
ENDROOT
BRANCH   4   7
ATOM      7  C   UNL     1       4.866   5.001  18.349  0.00  0.00    +0.000 C 
ATOM      8  O   UNL     1       5.413   4.467  19.306  0.00  0.00    +0.000 OA
ATOM      9  N   UNL     1       3.688   5.740  18.498  0.00  0.00    +0.000 N 
ATOM     10  C   UNL     1       3.007   6.595  17.537  0.00  0.00    +0.000 C 
ATOM     11  C   UNL     1       2.593   7.803  18.344  0.00  0.00    +0.000 C 
ATOM     12  C   UNL     1       2.262   7.225  19.709  0.00  0.00    +0.000 C 
ATOM     13  C   UNL     1       3.132   5.956  19.836  0.00  0.00    +0.000 C 
BRANCH  13  14
ATOM     14  C   UNL     1       2.306   4.789  20.278  0.00  0.00    +0.000 A 
ATOM     15  C   UNL     1       1.376   4.073  19.487  0.00  0.00    +0.000 A 
ATOM     16  N   UNL     1       0.855   3.018  20.121  0.00  0.00    +0.000 NA
ATOM     17  N   UNL     1       1.419   3.075  21.339  0.00  0.00    +0.000 N 
ATOM     18  C   UNL     1       1.114   2.069  22.327  0.00  0.00    +0.000 C 
ATOM     19  C   UNL     1       2.298   4.109  21.483  0.00  0.00    +0.000 A 
ENDBRANCH  13  14
ENDBRANCH   4   7
BRANCH   1  20
ATOM     20  C   UNL     1       7.625   4.687  13.205  0.00  0.00    +0.000 C 
BRANCH  20  21
ATOM     21  C   UNL     1       6.785   4.190  12.019  0.00  0.00    +0.000 C 
BRANCH  21  25
ATOM     22  C   UNL     1       6.134   0.554  11.215  0.00  0.00    +0.000 C 
ATOM     23  C   UNL     1       5.812   2.004  11.440  0.00  0.00    +0.000 C 
ATOM     24  O   UNL     1       4.681   2.457  11.309  0.00  0.00    +0.000 OA
ATOM     25  N   UNL     1       6.905   2.762  11.800  0.00  0.00    +0.000 N 
ATOM     26  H   UNL     1       7.822   2.337  11.828  0.00  0.00    +0.000 HD
ENDBRANCH  21  25
ENDBRANCH  20  21
ENDBRANCH   1  20
TORSDOF 5
ENDMDL
