MODEL 1
REMARK VINA RESULT:      -6.8      0.000      0.000
REMARK  Name = 
REMARK  2 active torsions:
REMARK  status: ('A' for Active; 'I' for Inactive)
REMARK    1  A    between atoms: N_5  and  C_6
REMARK    2  A    between atoms: C_6  and  C_7
REMARK                            x       y       z     vdW  Elec       q    Type
REMARK                         _______ _______ _______ _____ _____    ______ ____
ROOT
ATOM      1  O   UNL     1       8.169   4.274  17.449  0.00  0.00    +0.000 OA
ATOM      2  C   UNL     1       7.009   4.591  17.275  0.00  0.00    +0.000 C 
ATOM      3  C   UNL     1       6.276   4.614  15.968  0.00  0.00    +0.000 C 
ATOM      4  C   UNL     1       5.098   5.524  16.301  0.00  0.00    +0.000 C 
ATOM      5  N   UNL     1       4.911   5.445  17.732  0.00  0.00    +0.000 N 
ATOM      6  C   UNL     1       6.041   5.004  18.382  0.00  0.00    +0.000 C 
ATOM      7  O   UNL     1       6.265   4.932  19.571  0.00  0.00    +0.000 OA
ENDROOT
BRANCH   5   8
ATOM      8  C   UNL     1       3.783   6.053  18.407  0.00  0.00    +0.000 C 
BRANCH   8   9
ATOM      9  C   UNL     1       2.787   5.038  18.913  0.00  0.00    +0.000 A 
ATOM     10  C   UNL     1       2.391   5.042  20.260  0.00  0.00    +0.000 A 
ATOM     11  C   UNL     1       1.422   4.147  20.719  0.00  0.00    +0.000 A 
ATOM     12  C   UNL     1       0.836   3.241  19.838  0.00  0.00    +0.000 A 
ATOM     13  C   UNL     1       1.225   3.223  18.499  0.00  0.00    +0.000 A 
ATOM     14  C   UNL     1       2.197   4.115  18.039  0.00  0.00    +0.000 A 
ENDBRANCH   8   9
ENDBRANCH   5   8
TORSDOF 2
ENDMDL
MODEL 2
REMARK VINA RESULT:      -6.8      0.301      1.323
REMARK  Name = 
REMARK  2 active torsions:
REMARK  status: ('A' for Active; 'I' for Inactive)
REMARK    1  A    between atoms: N_5  and  C_6
REMARK    2  A    between atoms: C_6  and  C_7
REMARK                            x       y       z     vdW  Elec       q    Type
REMARK                         _______ _______ _______ _____ _____    ______ ____
ROOT
ATOM      1  O   UNL     1       7.975   4.337  17.135  0.00  0.00    +0.000 OA
ATOM      2  C   UNL     1       6.843   4.763  17.033  0.00  0.00    +0.000 C 
ATOM      3  C   UNL     1       6.119   5.078  15.759  0.00  0.00    +0.000 C 
ATOM      4  C   UNL     1       5.009   5.995  16.262  0.00  0.00    +0.000 C 
ATOM      5  N   UNL     1       4.810   5.670  17.657  0.00  0.00    +0.000 N 
ATOM      6  C   UNL     1       5.903   5.037  18.205  0.00  0.00    +0.000 C 
ATOM      7  O   UNL     1       6.115   4.733  19.359  0.00  0.00    +0.000 OA
ENDROOT
BRANCH   5   8
ATOM      8  C   UNL     1       3.726   6.225  18.441  0.00  0.00    +0.000 C 
BRANCH   8   9
ATOM      9  C   UNL     1       2.707   5.189  18.847  0.00  0.00    +0.000 A 
ATOM     10  C   UNL     1       2.225   4.262  17.910  0.00  0.00    +0.000 A 
ATOM     11  C   UNL     1       1.332   3.260  18.294  0.00  0.00    +0.000 A 
ATOM     12  C   UNL     1       0.912   3.171  19.619  0.00  0.00    +0.000 A 
ATOM     13  C   UNL     1       1.377   4.090  20.559  0.00  0.00    +0.000 A 
ATOM     14  C   UNL     1       2.269   5.095  20.175  0.00  0.00    +0.000 A 
ENDBRANCH   8   9
ENDBRANCH   5   8
TORSDOF 2
ENDMDL
MODEL 3
REMARK VINA RESULT:      -6.5      2.335      5.188
REMARK  Name = 
REMARK  2 active torsions:
REMARK  status: ('A' for Active; 'I' for Inactive)
REMARK    1  A    between atoms: N_5  and  C_6
REMARK    2  A    between atoms: C_6  and  C_7
REMARK                            x       y       z     vdW  Elec       q    Type
REMARK                         _______ _______ _______ _____ _____    ______ ____
ROOT
ATOM      1  O   UNL     1       1.887   2.529  22.146  0.00  0.00    +0.000 OA
ATOM      2  C   UNL     1       1.952   2.853  20.978  0.00  0.00    +0.000 C 
ATOM      3  C   UNL     1       0.874   3.510  20.171  0.00  0.00    +0.000 C 
ATOM      4  C   UNL     1       1.339   3.215  18.749  0.00  0.00    +0.000 C 
ATOM      5  N   UNL     1       2.768   3.008  18.821  0.00  0.00    +0.000 N 
ATOM      6  C   UNL     1       3.184   2.682  20.091  0.00  0.00    +0.000 C 
ATOM      7  O   UNL     1       4.281   2.336  20.475  0.00  0.00    +0.000 OA
ENDROOT
BRANCH   5   8
ATOM      8  C   UNL     1       3.595   2.856  17.641  0.00  0.00    +0.000 C 
BRANCH   8   9
ATOM      9  C   UNL     1       4.161   4.167  17.152  0.00  0.00    +0.000 A 
ATOM     10  C   UNL     1       4.993   4.204  16.021  0.00  0.00    +0.000 A 
ATOM     11  C   UNL     1       5.465   5.421  15.525  0.00  0.00    +0.000 A 
ATOM     12  C   UNL     1       5.111   6.614  16.151  0.00  0.00    +0.000 A 
ATOM     13  C   UNL     1       4.291   6.591  17.278  0.00  0.00    +0.000 A 
ATOM     14  C   UNL     1       3.820   5.374  17.778  0.00  0.00    +0.000 A 
ENDBRANCH   8   9
ENDBRANCH   5   8
TORSDOF 2
ENDMDL
MODEL 4
REMARK VINA RESULT:      -6.5      1.144      1.678
REMARK  Name = 
REMARK  2 active torsions:
REMARK  status: ('A' for Active; 'I' for Inactive)
REMARK    1  A    between atoms: N_5  and  C_6
REMARK    2  A    between atoms: C_6  and  C_7
REMARK                            x       y       z     vdW  Elec       q    Type
REMARK                         _______ _______ _______ _____ _____    ______ ____
ROOT
ATOM      1  O   UNL     1       7.846   4.395  16.696  0.00  0.00    +0.000 OA
ATOM      2  C   UNL     1       6.969   4.910  17.359  0.00  0.00    +0.000 C 
ATOM      3  C   UNL     1       7.058   5.312  18.800  0.00  0.00    +0.000 C 
ATOM      4  C   UNL     1       5.583   5.418  19.174  0.00  0.00    +0.000 C 
ATOM      5  N   UNL     1       4.866   5.668  17.944  0.00  0.00    +0.000 N 
ATOM      6  C   UNL     1       5.586   5.287  16.835  0.00  0.00    +0.000 C 
ATOM      7  O   UNL     1       5.243   5.251  15.672  0.00  0.00    +0.000 OA
ENDROOT
BRANCH   5   8
ATOM      8  C   UNL     1       3.452   5.983  17.915  0.00  0.00    +0.000 C 
BRANCH   8   9
ATOM      9  C   UNL     1       2.599   4.904  18.536  0.00  0.00    +0.000 A 
ATOM     10  C   UNL     1       1.985   5.112  19.780  0.00  0.00    +0.000 A 
ATOM     11  C   UNL     1       1.142   4.143  20.329  0.00  0.00    +0.000 A 
ATOM     12  C   UNL     1       0.902   2.957  19.640  0.00  0.00    +0.000 A 
ATOM     13  C   UNL     1       1.511   2.734  18.405  0.00  0.00    +0.000 A 
ATOM     14  C   UNL     1       2.357   3.702  17.857  0.00  0.00    +0.000 A 
ENDBRANCH   8   9
ENDBRANCH   5   8
TORSDOF 2
ENDMDL
MODEL 5
REMARK VINA RESULT:      -6.5      2.315      5.038
REMARK  Name = 
REMARK  2 active torsions:
REMARK  status: ('A' for Active; 'I' for Inactive)
REMARK    1  A    between atoms: N_5  and  C_6
REMARK    2  A    between atoms: C_6  and  C_7
REMARK                            x       y       z     vdW  Elec       q    Type
REMARK                         _______ _______ _______ _____ _____    ______ ____
ROOT
ATOM      1  O   UNL     1       2.038   2.626  22.245  0.00  0.00    +0.000 OA
ATOM      2  C   UNL     1       2.048   2.952  21.075  0.00  0.00    +0.000 C 
ATOM      3  C   UNL     1       0.954   3.658  20.335  0.00  0.00    +0.000 C 
ATOM      4  C   UNL     1       1.322   3.349  18.887  0.00  0.00    +0.000 C 
ATOM      5  N   UNL     1       2.742   3.080  18.874  0.00  0.00    +0.000 N 
ATOM      6  C   UNL     1       3.218   2.731  20.118  0.00  0.00    +0.000 C 
ATOM      7  O   UNL     1       4.319   2.337  20.436  0.00  0.00    +0.000 OA
ENDROOT
BRANCH   5   8
ATOM      8  C   UNL     1       3.491   2.898  17.648  0.00  0.00    +0.000 C 
BRANCH   8   9
ATOM      9  C   UNL     1       4.040   4.193  17.100  0.00  0.00    +0.000 A 
ATOM     10  C   UNL     1       3.712   5.416  17.706  0.00  0.00    +0.000 A 
ATOM     11  C   UNL     1       4.269   6.610  17.244  0.00  0.00    +0.000 A 
ATOM     12  C   UNL     1       5.160   6.596  16.173  0.00  0.00    +0.000 A 
ATOM     13  C   UNL     1       5.489   5.389  15.558  0.00  0.00    +0.000 A 
ATOM     14  C   UNL     1       4.930   4.193  16.017  0.00  0.00    +0.000 A 
ENDBRANCH   8   9
ENDBRANCH   5   8
TORSDOF 2
ENDMDL
MODEL 6
REMARK VINA RESULT:      -6.5      1.135      1.768
REMARK  Name = 
REMARK  2 active torsions:
REMARK  status: ('A' for Active; 'I' for Inactive)
REMARK    1  A    between atoms: N_5  and  C_6
REMARK    2  A    between atoms: C_6  and  C_7
REMARK                            x       y       z     vdW  Elec       q    Type
REMARK                         _______ _______ _______ _____ _____    ______ ____
ROOT
ATOM      1  O   UNL     1       7.587   5.503  15.459  0.00  0.00    +0.000 OA
ATOM      2  C   UNL     1       6.590   5.507  16.152  0.00  0.00    +0.000 C 
ATOM      3  C   UNL     1       5.226   5.982  15.750  0.00  0.00    +0.000 C 
ATOM      4  C   UNL     1       4.571   6.198  17.111  0.00  0.00    +0.000 C 
ATOM      5  N   UNL     1       5.272   5.344  18.043  0.00  0.00    +0.000 N 
ATOM      6  C   UNL     1       6.520   4.987  17.585  0.00  0.00    +0.000 C 
ATOM      7  O   UNL     1       7.403   4.384  18.156  0.00  0.00    +0.000 OA
ENDROOT
BRANCH   5   8
ATOM      8  C   UNL     1       4.834   5.156  19.411  0.00  0.00    +0.000 C 
BRANCH   8   9
ATOM      9  C   UNL     1       3.478   4.501  19.506  0.00  0.00    +0.000 A 
ATOM     10  C   UNL     1       3.234   3.276  18.866  0.00  0.00    +0.000 A 
ATOM     11  C   UNL     1       2.002   2.633  19.004  0.00  0.00    +0.000 A 
ATOM     12  C   UNL     1       1.001   3.205  19.785  0.00  0.00    +0.000 A 
ATOM     13  C   UNL     1       1.227   4.425  20.422  0.00  0.00    +0.000 A 
ATOM     14  C   UNL     1       2.459   5.071  20.281  0.00  0.00    +0.000 A 
ENDBRANCH   8   9
ENDBRANCH   5   8
TORSDOF 2
ENDMDL
MODEL 7
REMARK VINA RESULT:      -6.5      1.244      1.408
REMARK  Name = 
REMARK  2 active torsions:
REMARK  status: ('A' for Active; 'I' for Inactive)
REMARK    1  A    between atoms: N_5  and  C_6
REMARK    2  A    between atoms: C_6  and  C_7
REMARK                            x       y       z     vdW  Elec       q    Type
REMARK                         _______ _______ _______ _____ _____    ______ ____
ROOT
ATOM      1  O   UNL     1       7.510   5.765  15.682  0.00  0.00    +0.000 OA
ATOM      2  C   UNL     1       6.486   5.731  16.333  0.00  0.00    +0.000 C 
ATOM      3  C   UNL     1       5.153   6.285  15.931  0.00  0.00    +0.000 C 
ATOM      4  C   UNL     1       4.449   6.385  17.281  0.00  0.00    +0.000 C 
ATOM      5  N   UNL     1       5.089   5.420  18.148  0.00  0.00    +0.000 N 
ATOM      6  C   UNL     1       6.344   5.073  17.704  0.00  0.00    +0.000 C 
ATOM      7  O   UNL     1       7.187   4.388  18.243  0.00  0.00    +0.000 OA
ENDROOT
BRANCH   5   8
ATOM      8  C   UNL     1       4.591   5.111  19.473  0.00  0.00    +0.000 C 
BRANCH   8   9
ATOM      9  C   UNL     1       3.341   4.265  19.445  0.00  0.00    +0.000 A 
ATOM     10  C   UNL     1       2.179   4.693  20.106  0.00  0.00    +0.000 A 
ATOM     11  C   UNL     1       1.001   3.947  20.029  0.00  0.00    +0.000 A 
ATOM     12  C   UNL     1       0.970   2.767  19.290  0.00  0.00    +0.000 A 
ATOM     13  C   UNL     1       2.119   2.327  18.634  0.00  0.00    +0.000 A 
ATOM     14  C   UNL     1       3.299   3.071  18.713  0.00  0.00    +0.000 A 
ENDBRANCH   8   9
ENDBRANCH   5   8
TORSDOF 2
ENDMDL
MODEL 8
REMARK VINA RESULT:      -6.5      1.968      2.598
REMARK  Name = 
REMARK  2 active torsions:
REMARK  status: ('A' for Active; 'I' for Inactive)
REMARK    1  A    between atoms: N_5  and  C_6
REMARK    2  A    between atoms: C_6  and  C_7
REMARK                            x       y       z     vdW  Elec       q    Type
REMARK                         _______ _______ _______ _____ _____    ______ ____
ROOT
ATOM      1  O   UNL     1       7.660   7.766  17.015  0.00  0.00    +0.000 OA
ATOM      2  C   UNL     1       7.031   6.764  17.289  0.00  0.00    +0.000 C 
ATOM      3  C   UNL     1       7.167   5.937  18.532  0.00  0.00    +0.000 C 
ATOM      4  C   UNL     1       6.526   4.625  18.092  0.00  0.00    +0.000 C 
ATOM      5  N   UNL     1       5.623   4.952  17.011  0.00  0.00    +0.000 N 
ATOM      6  C   UNL     1       5.933   6.156  16.420  0.00  0.00    +0.000 C 
ATOM      7  O   UNL     1       5.460   6.668  15.429  0.00  0.00    +0.000 OA
ENDROOT
BRANCH   5   8
ATOM      8  C   UNL     1       4.713   3.984  16.434  0.00  0.00    +0.000 C 
BRANCH   8   9
ATOM      9  C   UNL     1       3.590   3.608  17.369  0.00  0.00    +0.000 A 
ATOM     10  C   UNL     1       2.620   4.555  17.733  0.00  0.00    +0.000 A 
ATOM     11  C   UNL     1       1.543   4.194  18.545  0.00  0.00    +0.000 A 
ATOM     12  C   UNL     1       1.421   2.884  19.002  0.00  0.00    +0.000 A 
ATOM     13  C   UNL     1       2.381   1.935  18.654  0.00  0.00    +0.000 A 
ATOM     14  C   UNL     1       3.462   2.295  17.844  0.00  0.00    +0.000 A 
ENDBRANCH   8   9
ENDBRANCH   5   8
TORSDOF 2
ENDMDL
MODEL 9
REMARK VINA RESULT:      -6.5      1.210      2.134
REMARK  Name = 
REMARK  2 active torsions:
REMARK  status: ('A' for Active; 'I' for Inactive)
REMARK    1  A    between atoms: N_5  and  C_6
REMARK    2  A    between atoms: C_6  and  C_7
REMARK                            x       y       z     vdW  Elec       q    Type
REMARK                         _______ _______ _______ _____ _____    ______ ____
ROOT
ATOM      1  O   UNL     1       7.764   4.428  16.329  0.00  0.00    +0.000 OA
ATOM      2  C   UNL     1       6.994   4.972  17.094  0.00  0.00    +0.000 C 
ATOM      3  C   UNL     1       7.184   5.160  18.569  0.00  0.00    +0.000 C 
ATOM      4  C   UNL     1       5.753   5.429  19.024  0.00  0.00    +0.000 C 
ATOM      5  N   UNL     1       5.048   5.945  17.873  0.00  0.00    +0.000 N 
ATOM      6  C   UNL     1       5.670   5.616  16.690  0.00  0.00    +0.000 C 
ATOM      7  O   UNL     1       5.293   5.787  15.551  0.00  0.00    +0.000 OA
ENDROOT
BRANCH   5   8
ATOM      8  C   UNL     1       3.698   6.466  17.952  0.00  0.00    +0.000 C 
BRANCH   8   9
ATOM      9  C   UNL     1       2.727   5.482  18.557  0.00  0.00    +0.000 A 
ATOM     10  C   UNL     1       2.269   4.385  17.810  0.00  0.00    +0.000 A 
ATOM     11  C   UNL     1       1.422   3.436  18.385  0.00  0.00    +0.000 A 
ATOM     12  C   UNL     1       1.025   3.570  19.714  0.00  0.00    +0.000 A 
ATOM     13  C   UNL     1       1.467   4.657  20.466  0.00  0.00    +0.000 A 
ATOM     14  C   UNL     1       2.312   5.610  19.890  0.00  0.00    +0.000 A 
ENDBRANCH   8   9
ENDBRANCH   5   8
TORSDOF 2
ENDMDL
