MODEL 1
REMARK VINA RESULT:      -6.2      0.000      0.000
REMARK  Name = 
REMARK  16 active torsions:
REMARK  status: ('A' for Active; 'I' for Inactive)
REMARK    1  A    between atoms: C_1  and  C_2
REMARK    2  A    between atoms: C_2  and  C_3
REMARK    3  A    between atoms: C_3  and  C_4
REMARK    4  A    between atoms: C_4  and  C_5
REMARK    5  A    between atoms: C_5  and  C_6
REMARK    6  A    between atoms: C_6  and  C_7
REMARK    7  A    between atoms: C_7  and  C_8
REMARK    8  A    between atoms: C_8  and  C_9
REMARK    9  A    between atoms: C_9  and  C_10
REMARK   10  A    between atoms: C_11  and  C_12
REMARK   11  A    between atoms: C_12  and  C_13
REMARK   12  A    between atoms: C_13  and  C_14
REMARK   13  A    between atoms: C_14  and  O_15
REMARK   14  A    between atoms: O_15  and  C_16
REMARK   15  A    between atoms: C_19  and  C_20
REMARK   16  A    between atoms: C_20  and  O_22
REMARK                            x       y       z     vdW  Elec       q    Type
REMARK                         _______ _______ _______ _____ _____    ______ ____
ROOT
ATOM      1  C   UNL     1       7.366   6.351  18.007  0.00  0.00    +0.000 C 
ENDROOT
BRANCH   1   2
ATOM      2  C   UNL     1       6.502   5.658  19.055  0.00  0.00    +0.000 C 
BRANCH   2   4
ATOM      3  C   UNL     1       4.513   4.259  18.506  0.00  0.00    +0.000 C 
ATOM      4  C   UNL     1       5.849   4.426  18.510  0.00  0.00    +0.000 C 
BRANCH   3   5
ATOM      5  C   UNL     1       3.867   3.034  17.943  0.00  0.00    +0.000 C 
BRANCH   5   6
ATOM      6  C   UNL     1       3.805   1.928  18.987  0.00  0.00    +0.000 C 
BRANCH   6   7
ATOM      7  C   UNL     1       3.998   2.500  20.385  0.00  0.00    +0.000 C 
BRANCH   7   8
ATOM      8  C   UNL     1       2.706   2.393  21.183  0.00  0.00    +0.000 C 
BRANCH   8   9
ATOM      9  C   UNL     1       2.161   3.776  21.506  0.00  0.00    +0.000 C 
BRANCH   9  10
ATOM     10  C   UNL     1       1.098   4.180  20.492  0.00  0.00    +0.000 C 
BRANCH  10  11
ATOM     11  C   UNL     1       1.049   5.695  20.349  0.00  0.00    +0.000 C 
BRANCH  11  13
ATOM     12  C   UNL     1       2.466   7.246  18.989  0.00  0.00    +0.000 C 
ATOM     13  C   UNL     1       2.447   6.268  20.150  0.00  0.00    +0.000 C 
ENDBRANCH  11  13
ENDBRANCH  10  11
ENDBRANCH   9  10
ENDBRANCH   8   9
ENDBRANCH   7   8
ENDBRANCH   6   7
ENDBRANCH   5   6
ENDBRANCH   3   5
ENDBRANCH   2   4
ENDBRANCH   1   2
BRANCH   1  14
ATOM     14  C   UNL     1       6.698   6.320  16.638  0.00  0.00    +0.000 C 
BRANCH  14  15
ATOM     15  O   UNL     1       7.656   5.863  15.682  0.00  0.00    +0.000 OA
BRANCH  15  16
ATOM     16  C   UNL     1       7.139   5.126  14.650  0.00  0.00    +0.000 A 
ATOM     17  C   UNL     1       6.033   4.335  14.954  0.00  0.00    +0.000 A 
ATOM     18  C   UNL     1       5.469   3.508  13.974  0.00  0.00    +0.000 A 
ATOM     19  C   UNL     1       5.979   3.490  12.668  0.00  0.00    +0.000 A 
ATOM     20  C   UNL     1       7.081   4.295  12.364  0.00  0.00    +0.000 A 
ATOM     21  C   UNL     1       7.656   5.108  13.353  0.00  0.00    +0.000 A 
BRANCH  19  22
ATOM     22  C   UNL     1       5.271   2.635  11.667  0.00  0.00    +0.000 C 
ATOM     23  O   UNL     1       4.215   2.964  11.169  0.00  0.00    +0.000 OA
BRANCH  22  24
ATOM     24  O   UNL     1       5.860   1.452  11.373  0.00  0.00    +0.000 OA
ATOM     25  H   UNL     1       5.298   0.739  11.025  0.00  0.00    +0.000 HD
ENDBRANCH  22  24
ENDBRANCH  19  22
ENDBRANCH  15  16
ENDBRANCH  14  15
ENDBRANCH   1  14
TORSDOF 15
ENDMDL
MODEL 2
REMARK VINA RESULT:      -6.1      3.286      6.517
REMARK  Name = 
REMARK  16 active torsions:
REMARK  status: ('A' for Active; 'I' for Inactive)
REMARK    1  A    between atoms: C_1  and  C_2
REMARK    2  A    between atoms: C_2  and  C_3
REMARK    3  A    between atoms: C_3  and  C_4
REMARK    4  A    between atoms: C_4  and  C_5
REMARK    5  A    between atoms: C_5  and  C_6
REMARK    6  A    between atoms: C_6  and  C_7
REMARK    7  A    between atoms: C_7  and  C_8
REMARK    8  A    between atoms: C_8  and  C_9
REMARK    9  A    between atoms: C_9  and  C_10
REMARK   10  A    between atoms: C_11  and  C_12
REMARK   11  A    between atoms: C_12  and  C_13
REMARK   12  A    between atoms: C_13  and  C_14
REMARK   13  A    between atoms: C_14  and  O_15
REMARK   14  A    between atoms: O_15  and  C_16
REMARK   15  A    between atoms: C_19  and  C_20
REMARK   16  A    between atoms: C_20  and  O_22
REMARK                            x       y       z     vdW  Elec       q    Type
REMARK                         _______ _______ _______ _____ _____    ______ ____
ROOT
ATOM      1  C   UNL     1       1.042   2.804  19.318  0.00  0.00    +0.000 C 
ENDROOT
BRANCH   1   2
ATOM      2  C   UNL     1       1.203   3.615  20.599  0.00  0.00    +0.000 C 
BRANCH   2   4
ATOM      3  C   UNL     1       2.140   5.902  20.268  0.00  0.00    +0.000 C 
ATOM      4  C   UNL     1       1.072   5.085  20.346  0.00  0.00    +0.000 C 
BRANCH   3   5
ATOM      5  C   UNL     1       2.004   7.365  19.996  0.00  0.00    +0.000 C 
BRANCH   5   6
ATOM      6  C   UNL     1       1.282   8.062  21.140  0.00  0.00    +0.000 C 
BRANCH   6   7
ATOM      7  C   UNL     1       0.752   9.418  20.690  0.00  0.00    +0.000 C 
BRANCH   7   8
ATOM      8  C   UNL     1       0.941   9.589  19.190  0.00  0.00    +0.000 C 
BRANCH   8   9
ATOM      9  C   UNL     1       0.164  10.796  18.688  0.00  0.00    +0.000 C 
BRANCH   9  10
ATOM     10  C   UNL     1      -1.318  10.464  18.570  0.00  0.00    +0.000 C 
BRANCH  10  11
ATOM     11  C   UNL     1      -1.607   9.788  17.236  0.00  0.00    +0.000 C 
BRANCH  11  13
ATOM     12  C   UNL     1      -3.821  10.800  17.815  0.00  0.00    +0.000 C 
ATOM     13  C   UNL     1      -2.979  10.189  16.709  0.00  0.00    +0.000 C 
ENDBRANCH  11  13
ENDBRANCH  10  11
ENDBRANCH   9  10
ENDBRANCH   8   9
ENDBRANCH   7   8
ENDBRANCH   6   7
ENDBRANCH   5   6
ENDBRANCH   3   5
ENDBRANCH   2   4
ENDBRANCH   1   2
BRANCH   1  14
ATOM     14  C   UNL     1       2.311   2.025  18.999  0.00  0.00    +0.000 C 
BRANCH  14  15
ATOM     15  O   UNL     1       2.831   2.505  17.758  0.00  0.00    +0.000 OA
BRANCH  15  16
ATOM     16  C   UNL     1       3.840   3.425  17.868  0.00  0.00    +0.000 A 
ATOM     17  C   UNL     1       4.074   4.217  16.747  0.00  0.00    +0.000 A 
ATOM     18  C   UNL     1       5.120   5.149  16.750  0.00  0.00    +0.000 A 
ATOM     19  C   UNL     1       5.920   5.328  17.888  0.00  0.00    +0.000 A 
ATOM     20  C   UNL     1       5.673   4.539  19.015  0.00  0.00    +0.000 A 
ATOM     21  C   UNL     1       4.637   3.593  19.002  0.00  0.00    +0.000 A 
BRANCH  19  22
ATOM     22  C   UNL     1       6.965   6.395  17.830  0.00  0.00    +0.000 C 
ATOM     23  O   UNL     1       7.900   6.427  18.601  0.00  0.00    +0.000 OA
BRANCH  22  24
ATOM     24  O   UNL     1       6.787   7.350  16.886  0.00  0.00    +0.000 OA
ATOM     25  H   UNL     1       6.963   8.273  17.135  0.00  0.00    +0.000 HD
ENDBRANCH  22  24
ENDBRANCH  19  22
ENDBRANCH  15  16
ENDBRANCH  14  15
ENDBRANCH   1  14
TORSDOF 15
ENDMDL
MODEL 3
REMARK VINA RESULT:      -6.1      1.331      2.796
REMARK  Name = 
REMARK  16 active torsions:
REMARK  status: ('A' for Active; 'I' for Inactive)
REMARK    1  A    between atoms: C_1  and  C_2
REMARK    2  A    between atoms: C_2  and  C_3
REMARK    3  A    between atoms: C_3  and  C_4
REMARK    4  A    between atoms: C_4  and  C_5
REMARK    5  A    between atoms: C_5  and  C_6
REMARK    6  A    between atoms: C_6  and  C_7
REMARK    7  A    between atoms: C_7  and  C_8
REMARK    8  A    between atoms: C_8  and  C_9
REMARK    9  A    between atoms: C_9  and  C_10
REMARK   10  A    between atoms: C_11  and  C_12
REMARK   11  A    between atoms: C_12  and  C_13
REMARK   12  A    between atoms: C_13  and  C_14
REMARK   13  A    between atoms: C_14  and  O_15
REMARK   14  A    between atoms: O_15  and  C_16
REMARK   15  A    between atoms: C_19  and  C_20
REMARK   16  A    between atoms: C_20  and  O_22
REMARK                            x       y       z     vdW  Elec       q    Type
REMARK                         _______ _______ _______ _____ _____    ______ ____
ROOT
ATOM      1  C   UNL     1       7.581   5.782  18.346  0.00  0.00    +0.000 C 
ENDROOT
BRANCH   1   2
ATOM      2  C   UNL     1       7.351   7.144  17.698  0.00  0.00    +0.000 C 
BRANCH   2   4
ATOM      3  C   UNL     1       4.916   6.625  17.833  0.00  0.00    +0.000 C 
ATOM      4  C   UNL     1       5.924   7.328  17.284  0.00  0.00    +0.000 C 
BRANCH   3   5
ATOM      5  C   UNL     1       3.492   6.826  17.428  0.00  0.00    +0.000 C 
BRANCH   5   6
ATOM      6  C   UNL     1       2.546   6.282  18.489  0.00  0.00    +0.000 C 
BRANCH   6   7
ATOM      7  C   UNL     1       1.830   5.038  17.979  0.00  0.00    +0.000 C 
BRANCH   7   8
ATOM      8  C   UNL     1       2.836   4.035  17.432  0.00  0.00    +0.000 C 
BRANCH   8   9
ATOM      9  C   UNL     1       2.330   2.614  17.622  0.00  0.00    +0.000 C 
BRANCH   9  10
ATOM     10  C   UNL     1       1.170   2.588  18.608  0.00  0.00    +0.000 C 
BRANCH  10  11
ATOM     11  C   UNL     1       1.611   1.979  19.932  0.00  0.00    +0.000 C 
BRANCH  11  13
ATOM     12  C   UNL     1       2.259   3.947  21.335  0.00  0.00    +0.000 C 
ATOM     13  C   UNL     1       1.212   2.872  21.101  0.00  0.00    +0.000 C 
ENDBRANCH  11  13
ENDBRANCH  10  11
ENDBRANCH   9  10
ENDBRANCH   8   9
ENDBRANCH   7   8
ENDBRANCH   6   7
ENDBRANCH   5   6
ENDBRANCH   3   5
ENDBRANCH   2   4
ENDBRANCH   1   2
BRANCH   1  14
ATOM     14  C   UNL     1       7.647   4.680  17.297  0.00  0.00    +0.000 C 
BRANCH  14  15
ATOM     15  O   UNL     1       7.747   5.292  16.010  0.00  0.00    +0.000 OA
BRANCH  15  16
ATOM     16  C   UNL     1       7.008   4.694  15.024  0.00  0.00    +0.000 A 
ATOM     17  C   UNL     1       7.557   4.720  13.744  0.00  0.00    +0.000 A 
ATOM     18  C   UNL     1       6.848   4.178  12.663  0.00  0.00    +0.000 A 
ATOM     19  C   UNL     1       5.599   3.570  12.856  0.00  0.00    +0.000 A 
ATOM     20  C   UNL     1       5.058   3.536  14.144  0.00  0.00    +0.000 A 
ATOM     21  C   UNL     1       5.762   4.096  15.221  0.00  0.00    +0.000 A 
BRANCH  19  22
ATOM     22  C   UNL     1       4.947   2.952  11.661  0.00  0.00    +0.000 C 
ATOM     23  O   UNL     1       3.987   3.454  11.118  0.00  0.00    +0.000 OA
BRANCH  22  24
ATOM     24  O   UNL     1       5.470   1.776  11.241  0.00  0.00    +0.000 OA
ATOM     25  H   UNL     1       4.869   1.131  10.832  0.00  0.00    +0.000 HD
ENDBRANCH  22  24
ENDBRANCH  19  22
ENDBRANCH  15  16
ENDBRANCH  14  15
ENDBRANCH   1  14
TORSDOF 15
ENDMDL
MODEL 4
REMARK VINA RESULT:      -5.8      3.157      6.012
REMARK  Name = 
REMARK  16 active torsions:
REMARK  status: ('A' for Active; 'I' for Inactive)
REMARK    1  A    between atoms: C_1  and  C_2
REMARK    2  A    between atoms: C_2  and  C_3
REMARK    3  A    between atoms: C_3  and  C_4
REMARK    4  A    between atoms: C_4  and  C_5
REMARK    5  A    between atoms: C_5  and  C_6
REMARK    6  A    between atoms: C_6  and  C_7
REMARK    7  A    between atoms: C_7  and  C_8
REMARK    8  A    between atoms: C_8  and  C_9
REMARK    9  A    between atoms: C_9  and  C_10
REMARK   10  A    between atoms: C_11  and  C_12
REMARK   11  A    between atoms: C_12  and  C_13
REMARK   12  A    between atoms: C_13  and  C_14
REMARK   13  A    between atoms: C_14  and  O_15
REMARK   14  A    between atoms: O_15  and  C_16
REMARK   15  A    between atoms: C_19  and  C_20
REMARK   16  A    between atoms: C_20  and  O_22
REMARK                            x       y       z     vdW  Elec       q    Type
REMARK                         _______ _______ _______ _____ _____    ______ ____
ROOT
ATOM      1  C   UNL     1       1.072   4.182  19.928  0.00  0.00    +0.000 C 
ENDROOT
BRANCH   1   2
ATOM      2  C   UNL     1       1.997   5.125  20.691  0.00  0.00    +0.000 C 
BRANCH   2   4
ATOM      3  C   UNL     1       2.671   6.564  18.771  0.00  0.00    +0.000 C 
ATOM      4  C   UNL     1       2.136   6.446  20.000  0.00  0.00    +0.000 C 
BRANCH   3   5
ATOM      5  C   UNL     1       2.791   7.883  18.079  0.00  0.00    +0.000 C 
BRANCH   5   6
ATOM      6  C   UNL     1       1.632   8.796  18.453  0.00  0.00    +0.000 C 
BRANCH   6   7
ATOM      7  C   UNL     1       1.929  10.233  18.042  0.00  0.00    +0.000 C 
BRANCH   7   8
ATOM      8  C   UNL     1       0.997  11.194  18.765  0.00  0.00    +0.000 C 
BRANCH   8   9
ATOM      9  C   UNL     1      -0.352  10.538  19.021  0.00  0.00    +0.000 C 
BRANCH   9  10
ATOM     10  C   UNL     1      -1.049  11.196  20.204  0.00  0.00    +0.000 C 
BRANCH  10  11
ATOM     11  C   UNL     1      -0.092  11.323  21.382  0.00  0.00    +0.000 C 
BRANCH  11  13
ATOM     12  C   UNL     1      -0.411   9.699  23.258  0.00  0.00    +0.000 C 
ATOM     13  C   UNL     1      -0.811  11.052  22.698  0.00  0.00    +0.000 C 
ENDBRANCH  11  13
ENDBRANCH  10  11
ENDBRANCH   9  10
ENDBRANCH   8   9
ENDBRANCH   7   8
ENDBRANCH   6   7
ENDBRANCH   5   6
ENDBRANCH   3   5
ENDBRANCH   2   4
ENDBRANCH   1   2
BRANCH   1  14
ATOM     14  C   UNL     1       1.823   2.946  19.448  0.00  0.00    +0.000 C 
BRANCH  14  15
ATOM     15  O   UNL     1       3.181   3.053  19.877  0.00  0.00    +0.000 OA
BRANCH  15  16
ATOM     16  C   UNL     1       4.046   3.559  18.943  0.00  0.00    +0.000 A 
ATOM     17  C   UNL     1       3.679   3.388  17.610  0.00  0.00    +0.000 A 
ATOM     18  C   UNL     1       4.527   3.827  16.585  0.00  0.00    +0.000 A 
ATOM     19  C   UNL     1       5.734   4.477  16.879  0.00  0.00    +0.000 A 
ATOM     20  C   UNL     1       6.092   4.658  18.219  0.00  0.00    +0.000 A 
ATOM     21  C   UNL     1       5.250   4.200  19.243  0.00  0.00    +0.000 A 
BRANCH  19  22
ATOM     22  C   UNL     1       6.541   4.979  15.726  0.00  0.00    +0.000 C 
ATOM     23  O   UNL     1       6.065   5.684  14.862  0.00  0.00    +0.000 OA
BRANCH  22  24
ATOM     24  O   UNL     1       7.832   4.571  15.682  0.00  0.00    +0.000 OA
ATOM     25  H   UNL     1       8.004   3.621  15.570  0.00  0.00    +0.000 HD
ENDBRANCH  22  24
ENDBRANCH  19  22
ENDBRANCH  15  16
ENDBRANCH  14  15
ENDBRANCH   1  14
TORSDOF 15
ENDMDL
MODEL 5
REMARK VINA RESULT:      -5.8      4.902      7.740
REMARK  Name = 
REMARK  16 active torsions:
REMARK  status: ('A' for Active; 'I' for Inactive)
REMARK    1  A    between atoms: C_1  and  C_2
REMARK    2  A    between atoms: C_2  and  C_3
REMARK    3  A    between atoms: C_3  and  C_4
REMARK    4  A    between atoms: C_4  and  C_5
REMARK    5  A    between atoms: C_5  and  C_6
REMARK    6  A    between atoms: C_6  and  C_7
REMARK    7  A    between atoms: C_7  and  C_8
REMARK    8  A    between atoms: C_8  and  C_9
REMARK    9  A    between atoms: C_9  and  C_10
REMARK   10  A    between atoms: C_11  and  C_12
REMARK   11  A    between atoms: C_12  and  C_13
REMARK   12  A    between atoms: C_13  and  C_14
REMARK   13  A    between atoms: C_14  and  O_15
REMARK   14  A    between atoms: O_15  and  C_16
REMARK   15  A    between atoms: C_19  and  C_20
REMARK   16  A    between atoms: C_20  and  O_22
REMARK                            x       y       z     vdW  Elec       q    Type
REMARK                         _______ _______ _______ _____ _____    ______ ____
ROOT
ATOM      1  C   UNL     1       7.838   7.411  17.450  0.00  0.00    +0.000 C 
ENDROOT
BRANCH   1   2
ATOM      2  C   UNL     1       8.029   6.606  18.732  0.00  0.00    +0.000 C 
BRANCH   2   4
ATOM      3  C   UNL     1       6.275   5.111  17.782  0.00  0.00    +0.000 C 
ATOM      4  C   UNL     1       7.096   5.437  18.798  0.00  0.00    +0.000 C 
BRANCH   3   5
ATOM      5  C   UNL     1       5.359   3.932  17.848  0.00  0.00    +0.000 C 
BRANCH   5   6
ATOM      6  C   UNL     1       4.017   4.254  17.207  0.00  0.00    +0.000 C 
BRANCH   6   7
ATOM      7  C   UNL     1       3.390   5.477  17.864  0.00  0.00    +0.000 C 
BRANCH   7   8
ATOM      8  C   UNL     1       1.892   5.275  18.038  0.00  0.00    +0.000 C 
BRANCH   8   9
ATOM      9  C   UNL     1       1.522   3.815  17.825  0.00  0.00    +0.000 C 
BRANCH   9  10
ATOM     10  C   UNL     1       0.877   3.240  19.079  0.00  0.00    +0.000 C 
BRANCH  10  11
ATOM     11  C   UNL     1       1.858   2.335  19.814  0.00  0.00    +0.000 C 
BRANCH  11  13
ATOM     12  C   UNL     1       2.223   4.240  21.395  0.00  0.00    +0.000 C 
ATOM     13  C   UNL     1       1.986   2.745  21.276  0.00  0.00    +0.000 C 
ENDBRANCH  11  13
ENDBRANCH  10  11
ENDBRANCH   9  10
ENDBRANCH   8   9
ENDBRANCH   7   8
ENDBRANCH   6   7
ENDBRANCH   5   6
ENDBRANCH   3   5
ENDBRANCH   2   4
ENDBRANCH   1   2
BRANCH   1  14
ATOM     14  C   UNL     1       7.677   8.894  17.753  0.00  0.00    +0.000 C 
BRANCH  14  15
ATOM     15  O   UNL     1       8.781   9.310  18.559  0.00  0.00    +0.000 OA
BRANCH  15  16
ATOM     16  C   UNL     1       9.150  10.620  18.405  0.00  0.00    +0.000 A 
ATOM     17  C   UNL     1      10.309  11.014  19.072  0.00  0.00    +0.000 A 
ATOM     18  C   UNL     1      10.734  12.348  19.014  0.00  0.00    +0.000 A 
ATOM     19  C   UNL     1      10.028  13.296  18.260  0.00  0.00    +0.000 A 
ATOM     20  C   UNL     1       8.873  12.893  17.583  0.00  0.00    +0.000 A 
ATOM     21  C   UNL     1       8.439  11.561  17.658  0.00  0.00    +0.000 A 
BRANCH  19  22
ATOM     22  C   UNL     1      10.594  14.678  18.194  0.00  0.00    +0.000 C 
ATOM     23  O   UNL     1      11.187  15.178  19.125  0.00  0.00    +0.000 OA
BRANCH  22  24
ATOM     24  O   UNL     1      10.374  15.355  17.042  0.00  0.00    +0.000 OA
ATOM     25  H   UNL     1      10.943  16.118  16.848  0.00  0.00    +0.000 HD
ENDBRANCH  22  24
ENDBRANCH  19  22
ENDBRANCH  15  16
ENDBRANCH  14  15
ENDBRANCH   1  14
TORSDOF 15
ENDMDL
MODEL 6
REMARK VINA RESULT:      -5.8      5.360      8.664
REMARK  Name = 
REMARK  16 active torsions:
REMARK  status: ('A' for Active; 'I' for Inactive)
REMARK    1  A    between atoms: C_1  and  C_2
REMARK    2  A    between atoms: C_2  and  C_3
REMARK    3  A    between atoms: C_3  and  C_4
REMARK    4  A    between atoms: C_4  and  C_5
REMARK    5  A    between atoms: C_5  and  C_6
REMARK    6  A    between atoms: C_6  and  C_7
REMARK    7  A    between atoms: C_7  and  C_8
REMARK    8  A    between atoms: C_8  and  C_9
REMARK    9  A    between atoms: C_9  and  C_10
REMARK   10  A    between atoms: C_11  and  C_12
REMARK   11  A    between atoms: C_12  and  C_13
REMARK   12  A    between atoms: C_13  and  C_14
REMARK   13  A    between atoms: C_14  and  O_15
REMARK   14  A    between atoms: O_15  and  C_16
REMARK   15  A    between atoms: C_19  and  C_20
REMARK   16  A    between atoms: C_20  and  O_22
REMARK                            x       y       z     vdW  Elec       q    Type
REMARK                         _______ _______ _______ _____ _____    ______ ____
ROOT
ATOM      1  C   UNL     1       6.148   6.260  17.994  0.00  0.00    +0.000 C 
ENDROOT
BRANCH   1   2
ATOM      2  C   UNL     1       7.636   6.419  17.698  0.00  0.00    +0.000 C 
BRANCH   2   4
ATOM      3  C   UNL     1       8.261   8.812  18.017  0.00  0.00    +0.000 C 
ATOM      4  C   UNL     1       8.240   7.547  18.477  0.00  0.00    +0.000 C 
BRANCH   3   5
ATOM      5  C   UNL     1       8.848   9.936  18.808  0.00  0.00    +0.000 C 
BRANCH   5   6
ATOM      6  C   UNL     1       9.051  11.164  17.932  0.00  0.00    +0.000 C 
BRANCH   6   7
ATOM      7  C   UNL     1      10.497  11.636  18.001  0.00  0.00    +0.000 C 
BRANCH   7   8
ATOM      8  C   UNL     1      11.044  11.465  19.411  0.00  0.00    +0.000 C 
BRANCH   8   9
ATOM      9  C   UNL     1      12.091  12.526  19.711  0.00  0.00    +0.000 C 
BRANCH   9  10
ATOM     10  C   UNL     1      11.428  13.870  19.979  0.00  0.00    +0.000 C 
BRANCH  10  11
ATOM     11  C   UNL     1      10.337  13.724  21.032  0.00  0.00    +0.000 C 
BRANCH  11  13
ATOM     12  C   UNL     1       8.793  14.646  19.292  0.00  0.00    +0.000 C 
ATOM     13  C   UNL     1       9.185  14.684  20.758  0.00  0.00    +0.000 C 
ENDBRANCH  11  13
ENDBRANCH  10  11
ENDBRANCH   9  10
ENDBRANCH   8   9
ENDBRANCH   7   8
ENDBRANCH   6   7
ENDBRANCH   5   6
ENDBRANCH   3   5
ENDBRANCH   2   4
ENDBRANCH   1   2
BRANCH   1  14
ATOM     14  C   UNL     1       5.306   6.605  16.773  0.00  0.00    +0.000 C 
BRANCH  14  15
ATOM     15  O   UNL     1       4.645   5.417  16.334  0.00  0.00    +0.000 OA
BRANCH  15  16
ATOM     16  C   UNL     1       3.788   4.860  17.246  0.00  0.00    +0.000 A 
ATOM     17  C   UNL     1       3.930   3.491  17.465  0.00  0.00    +0.000 A 
ATOM     18  C   UNL     1       3.064   2.825  18.342  0.00  0.00    +0.000 A 
ATOM     19  C   UNL     1       2.070   3.526  19.040  0.00  0.00    +0.000 A 
ATOM     20  C   UNL     1       1.939   4.901  18.826  0.00  0.00    +0.000 A 
ATOM     21  C   UNL     1       2.796   5.562  17.933  0.00  0.00    +0.000 A 
BRANCH  19  22
ATOM     22  C   UNL     1       1.238   2.751  20.011  0.00  0.00    +0.000 C 
ATOM     23  O   UNL     1       1.694   2.313  21.045  0.00  0.00    +0.000 OA
BRANCH  22  24
ATOM     24  O   UNL     1      -0.049   2.535  19.651  0.00  0.00    +0.000 OA
ATOM     25  H   UNL     1      -0.737   3.071  20.081  0.00  0.00    +0.000 HD
ENDBRANCH  22  24
ENDBRANCH  19  22
ENDBRANCH  15  16
ENDBRANCH  14  15
ENDBRANCH   1  14
TORSDOF 15
ENDMDL
MODEL 7
REMARK VINA RESULT:      -5.8      3.436      6.415
REMARK  Name = 
REMARK  16 active torsions:
REMARK  status: ('A' for Active; 'I' for Inactive)
REMARK    1  A    between atoms: C_1  and  C_2
REMARK    2  A    between atoms: C_2  and  C_3
REMARK    3  A    between atoms: C_3  and  C_4
REMARK    4  A    between atoms: C_4  and  C_5
REMARK    5  A    between atoms: C_5  and  C_6
REMARK    6  A    between atoms: C_6  and  C_7
REMARK    7  A    between atoms: C_7  and  C_8
REMARK    8  A    between atoms: C_8  and  C_9
REMARK    9  A    between atoms: C_9  and  C_10
REMARK   10  A    between atoms: C_11  and  C_12
REMARK   11  A    between atoms: C_12  and  C_13
REMARK   12  A    between atoms: C_13  and  C_14
REMARK   13  A    between atoms: C_14  and  O_15
REMARK   14  A    between atoms: O_15  and  C_16
REMARK   15  A    between atoms: C_19  and  C_20
REMARK   16  A    between atoms: C_20  and  O_22
REMARK                            x       y       z     vdW  Elec       q    Type
REMARK                         _______ _______ _______ _____ _____    ______ ____
ROOT
ATOM      1  C   UNL     1       2.968   3.807  17.907  0.00  0.00    +0.000 C 
ENDROOT
BRANCH   1   2
ATOM      2  C   UNL     1       3.057   4.112  19.399  0.00  0.00    +0.000 C 
BRANCH   2   4
ATOM      3  C   UNL     1       2.525   6.450  18.718  0.00  0.00    +0.000 C 
ATOM      4  C   UNL     1       2.754   5.549  19.691  0.00  0.00    +0.000 C 
BRANCH   3   5
ATOM      5  C   UNL     1       2.206   7.879  19.017  0.00  0.00    +0.000 C 
BRANCH   5   6
ATOM      6  C   UNL     1       2.633   8.781  17.868  0.00  0.00    +0.000 C 
BRANCH   6   7
ATOM      7  C   UNL     1       1.777  10.040  17.829  0.00  0.00    +0.000 C 
BRANCH   7   8
ATOM      8  C   UNL     1       0.535   9.862  18.690  0.00  0.00    +0.000 C 
BRANCH   8   9
ATOM      9  C   UNL     1      -0.718   9.870  17.827  0.00  0.00    +0.000 C 
BRANCH   9  10
ATOM     10  C   UNL     1      -1.683  10.950  18.299  0.00  0.00    +0.000 C 
BRANCH  10  11
ATOM     11  C   UNL     1      -3.072  10.711  17.721  0.00  0.00    +0.000 C 
BRANCH  11  13
ATOM     12  C   UNL     1      -3.142  10.695  15.220  0.00  0.00    +0.000 C 
ATOM     13  C   UNL     1      -2.999   9.845  16.470  0.00  0.00    +0.000 C 
ENDBRANCH  11  13
ENDBRANCH  10  11
ENDBRANCH   9  10
ENDBRANCH   8   9
ENDBRANCH   7   8
ENDBRANCH   6   7
ENDBRANCH   5   6
ENDBRANCH   3   5
ENDBRANCH   2   4
ENDBRANCH   1   2
BRANCH   1  14
ATOM     14  C   UNL     1       4.148   2.960  17.450  0.00  0.00    +0.000 C 
BRANCH  14  15
ATOM     15  O   UNL     1       4.802   3.643  16.379  0.00  0.00    +0.000 OA
BRANCH  15  16
ATOM     16  C   UNL     1       5.499   4.764  16.745  0.00  0.00    +0.000 A 
ATOM     17  C   UNL     1       6.663   4.549  17.482  0.00  0.00    +0.000 A 
ATOM     18  C   UNL     1       7.413   5.638  17.945  0.00  0.00    +0.000 A 
ATOM     19  C   UNL     1       7.031   6.953  17.645  0.00  0.00    +0.000 A 
ATOM     20  C   UNL     1       5.870   7.163  16.895  0.00  0.00    +0.000 A 
ATOM     21  C   UNL     1       5.110   6.071  16.449  0.00  0.00    +0.000 A 
BRANCH  19  22
ATOM     22  C   UNL     1       7.930   8.052  18.115  0.00  0.00    +0.000 C 
ATOM     23  O   UNL     1       7.888   9.167  17.642  0.00  0.00    +0.000 OA
BRANCH  22  24
ATOM     24  O   UNL     1       8.821   7.719  19.079  0.00  0.00    +0.000 OA
ATOM     25  H   UNL     1       8.492   7.233  19.853  0.00  0.00    +0.000 HD
ENDBRANCH  22  24
ENDBRANCH  19  22
ENDBRANCH  15  16
ENDBRANCH  14  15
ENDBRANCH   1  14
TORSDOF 15
ENDMDL
MODEL 8
REMARK VINA RESULT:      -5.7      3.957      6.318
REMARK  Name = 
REMARK  16 active torsions:
REMARK  status: ('A' for Active; 'I' for Inactive)
REMARK    1  A    between atoms: C_1  and  C_2
REMARK    2  A    between atoms: C_2  and  C_3
REMARK    3  A    between atoms: C_3  and  C_4
REMARK    4  A    between atoms: C_4  and  C_5
REMARK    5  A    between atoms: C_5  and  C_6
REMARK    6  A    between atoms: C_6  and  C_7
REMARK    7  A    between atoms: C_7  and  C_8
REMARK    8  A    between atoms: C_8  and  C_9
REMARK    9  A    between atoms: C_9  and  C_10
REMARK   10  A    between atoms: C_11  and  C_12
REMARK   11  A    between atoms: C_12  and  C_13
REMARK   12  A    between atoms: C_13  and  C_14
REMARK   13  A    between atoms: C_14  and  O_15
REMARK   14  A    between atoms: O_15  and  C_16
REMARK   15  A    between atoms: C_19  and  C_20
REMARK   16  A    between atoms: C_20  and  O_22
REMARK                            x       y       z     vdW  Elec       q    Type
REMARK                         _______ _______ _______ _____ _____    ______ ____
ROOT
ATOM      1  C   UNL     1       6.673   6.613  17.524  0.00  0.00    +0.000 C 
ENDROOT
BRANCH   1   2
ATOM      2  C   UNL     1       5.465   6.656  16.593  0.00  0.00    +0.000 C 
BRANCH   2   4
ATOM      3  C   UNL     1       3.388   6.959  17.937  0.00  0.00    +0.000 C 
ATOM      4  C   UNL     1       4.355   7.484  17.162  0.00  0.00    +0.000 C 
BRANCH   3   5
ATOM      5  C   UNL     1       2.293   7.794  18.517  0.00  0.00    +0.000 C 
BRANCH   5   6
ATOM      6  C   UNL     1       2.054   9.036  17.671  0.00  0.00    +0.000 C 
BRANCH   6   7
ATOM      7  C   UNL     1       0.772   9.737  18.100  0.00  0.00    +0.000 C 
BRANCH   7   8
ATOM      8  C   UNL     1       0.793  10.010  19.597  0.00  0.00    +0.000 C 
BRANCH   8   9
ATOM      9  C   UNL     1       0.580  11.490  19.873  0.00  0.00    +0.000 C 
BRANCH   9  10
ATOM     10  C   UNL     1      -0.145  11.687  21.198  0.00  0.00    +0.000 C 
BRANCH  10  11
ATOM     11  C   UNL     1       0.118  10.509  22.127  0.00  0.00    +0.000 C 
BRANCH  11  13
ATOM     12  C   UNL     1      -1.893  11.597  23.145  0.00  0.00    +0.000 C 
ATOM     13  C   UNL     1      -0.995  10.373  23.159  0.00  0.00    +0.000 C 
ENDBRANCH  11  13
ENDBRANCH  10  11
ENDBRANCH   9  10
ENDBRANCH   8   9
ENDBRANCH   7   8
ENDBRANCH   6   7
ENDBRANCH   5   6
ENDBRANCH   3   5
ENDBRANCH   2   4
ENDBRANCH   1   2
BRANCH   1  14
ATOM     14  C   UNL     1       6.677   5.338  18.357  0.00  0.00    +0.000 C 
BRANCH  14  15
ATOM     15  O   UNL     1       6.157   4.277  17.555  0.00  0.00    +0.000 OA
BRANCH  15  16
ATOM     16  C   UNL     1       4.879   3.890  17.862  0.00  0.00    +0.000 A 
ATOM     17  C   UNL     1       4.558   3.853  19.217  0.00  0.00    +0.000 A 
ATOM     18  C   UNL     1       3.290   3.420  19.628  0.00  0.00    +0.000 A 
ATOM     19  C   UNL     1       2.316   3.054  18.688  0.00  0.00    +0.000 A 
ATOM     20  C   UNL     1       2.639   3.104  17.329  0.00  0.00    +0.000 A 
ATOM     21  C   UNL     1       3.915   3.521  16.921  0.00  0.00    +0.000 A 
BRANCH  19  22
ATOM     22  C   UNL     1       0.968   2.676  19.211  0.00  0.00    +0.000 C 
ATOM     23  O   UNL     1       0.174   2.042  18.550  0.00  0.00    +0.000 OA
BRANCH  22  24
ATOM     24  O   UNL     1       0.669   3.115  20.456  0.00  0.00    +0.000 OA
ATOM     25  H   UNL     1       1.352   3.608  20.940  0.00  0.00    +0.000 HD
ENDBRANCH  22  24
ENDBRANCH  19  22
ENDBRANCH  15  16
ENDBRANCH  14  15
ENDBRANCH   1  14
TORSDOF 15
ENDMDL
MODEL 9
REMARK VINA RESULT:      -5.7      3.004      5.855
REMARK  Name = 
REMARK  16 active torsions:
REMARK  status: ('A' for Active; 'I' for Inactive)
REMARK    1  A    between atoms: C_1  and  C_2
REMARK    2  A    between atoms: C_2  and  C_3
REMARK    3  A    between atoms: C_3  and  C_4
REMARK    4  A    between atoms: C_4  and  C_5
REMARK    5  A    between atoms: C_5  and  C_6
REMARK    6  A    between atoms: C_6  and  C_7
REMARK    7  A    between atoms: C_7  and  C_8
REMARK    8  A    between atoms: C_8  and  C_9
REMARK    9  A    between atoms: C_9  and  C_10
REMARK   10  A    between atoms: C_11  and  C_12
REMARK   11  A    between atoms: C_12  and  C_13
REMARK   12  A    between atoms: C_13  and  C_14
REMARK   13  A    between atoms: C_14  and  O_15
REMARK   14  A    between atoms: O_15  and  C_16
REMARK   15  A    between atoms: C_19  and  C_20
REMARK   16  A    between atoms: C_20  and  O_22
REMARK                            x       y       z     vdW  Elec       q    Type
REMARK                         _______ _______ _______ _____ _____    ______ ____
ROOT
ATOM      1  C   UNL     1       1.859   2.353  21.133  0.00  0.00    +0.000 C 
ENDROOT
BRANCH   1   2
ATOM      2  C   UNL     1       0.874   2.955  20.135  0.00  0.00    +0.000 C 
BRANCH   2   4
ATOM      3  C   UNL     1       1.487   4.686  18.449  0.00  0.00    +0.000 C 
ATOM      4  C   UNL     1       1.270   4.342  19.732  0.00  0.00    +0.000 C 
BRANCH   3   5
ATOM      5  C   UNL     1       1.864   6.076  18.052  0.00  0.00    +0.000 C 
BRANCH   5   6
ATOM      6  C   UNL     1       2.528   6.808  19.210  0.00  0.00    +0.000 C 
BRANCH   6   7
ATOM      7  C   UNL     1       1.964   8.216  19.347  0.00  0.00    +0.000 C 
BRANCH   7   8
ATOM      8  C   UNL     1       2.167   8.995  18.055  0.00  0.00    +0.000 C 
BRANCH   8   9
ATOM      9  C   UNL     1       1.465  10.343  18.129  0.00  0.00    +0.000 C 
BRANCH   9  10
ATOM     10  C   UNL     1       0.101  10.198  18.791  0.00  0.00    +0.000 C 
BRANCH  10  11
ATOM     11  C   UNL     1      -0.257  11.466  19.555  0.00  0.00    +0.000 C 
BRANCH  11  13
ATOM     12  C   UNL     1      -0.232  13.736  18.503  0.00  0.00    +0.000 C 
ATOM     13  C   UNL     1      -1.012  12.444  18.663  0.00  0.00    +0.000 C 
ENDBRANCH  11  13
ENDBRANCH  10  11
ENDBRANCH   9  10
ENDBRANCH   8   9
ENDBRANCH   7   8
ENDBRANCH   6   7
ENDBRANCH   5   6
ENDBRANCH   3   5
ENDBRANCH   2   4
ENDBRANCH   1   2
BRANCH   1  14
ATOM     14  C   UNL     1       3.243   2.970  20.977  0.00  0.00    +0.000 C 
BRANCH  14  15
ATOM     15  O   UNL     1       3.880   2.363  19.852  0.00  0.00    +0.000 OA
BRANCH  15  16
ATOM     16  C   UNL     1       4.442   3.239  18.962  0.00  0.00    +0.000 A 
ATOM     17  C   UNL     1       4.167   3.007  17.616  0.00  0.00    +0.000 A 
ATOM     18  C   UNL     1       4.740   3.822  16.630  0.00  0.00    +0.000 A 
ATOM     19  C   UNL     1       5.565   4.900  16.979  0.00  0.00    +0.000 A 
ATOM     20  C   UNL     1       5.828   5.137  18.332  0.00  0.00    +0.000 A 
ATOM     21  C   UNL     1       5.268   4.308  19.316  0.00  0.00    +0.000 A 
BRANCH  19  22
ATOM     22  C   UNL     1       6.074   5.762  15.869  0.00  0.00    +0.000 C 
ATOM     23  O   UNL     1       5.363   6.552  15.287  0.00  0.00    +0.000 OA
BRANCH  22  24
ATOM     24  O   UNL     1       7.371   5.582  15.524  0.00  0.00    +0.000 OA
ATOM     25  H   UNL     1       7.980   5.250  16.205  0.00  0.00    +0.000 HD
ENDBRANCH  22  24
ENDBRANCH  19  22
ENDBRANCH  15  16
ENDBRANCH  14  15
ENDBRANCH   1  14
TORSDOF 15
ENDMDL
