MODEL 1
REMARK VINA RESULT:      -8.0      0.000      0.000
REMARK  Name = 
REMARK  6 active torsions:
REMARK  status: ('A' for Active; 'I' for Inactive)
REMARK    1  A    between atoms: C_1  and  O_2
REMARK    2  A    between atoms: O_2  and  C_3
REMARK    3  A    between atoms: C_6  and  N_7
REMARK    4  A    between atoms: C_10  and  C_11
REMARK    5  A    between atoms: C_22  and  O_23
REMARK    6  A    between atoms: O_23  and  C_24
REMARK                            x       y       z     vdW  Elec       q    Type
REMARK                         _______ _______ _______ _____ _____    ______ ____
ROOT
ATOM      1  N   UNL     1       3.699   6.103  18.560  0.00  0.00    +0.000 N 
ATOM      2  C   UNL     1       3.061   7.334  18.641  0.00  0.00    +0.000 A 
ATOM      3  O   UNL     1       3.353   8.320  17.974  0.00  0.00    +0.000 OA
ATOM      4  C   UNL     1       1.964   7.459  19.711  0.00  0.00    +0.000 A 
ATOM      5  N   UNL     1       1.684   6.483  20.531  0.00  0.00    +0.000 NA
ATOM      6  C   UNL     1       2.381   5.272  20.385  0.00  0.00    +0.000 A 
ATOM      7  C   UNL     1       2.096   4.190  21.196  0.00  0.00    +0.000 A 
ATOM      8  N   UNL     1       2.695   2.980  21.104  0.00  0.00    +0.000 NA
ATOM      9  C   UNL     1       3.618   2.867  20.139  0.00  0.00    +0.000 A 
ATOM     10  N   UNL     1       3.974   3.840  19.300  0.00  0.00    +0.000 NA
ATOM     11  C   UNL     1       3.367   5.040  19.438  0.00  0.00    +0.000 A 
ENDROOT
BRANCH   4  12
ATOM     12  C   UNL     1       1.228   8.754  19.846  0.00  0.00    +0.000 A 
ATOM     13  C   UNL     1       0.822   9.492  18.724  0.00  0.00    +0.000 A 
ATOM     14  C   UNL     1       0.204  10.735  18.881  0.00  0.00    +0.000 A 
ATOM     15  C   UNL     1      -0.036  11.225  20.158  0.00  0.00    +0.000 A 
ATOM     16  F   UNL     1      -0.616  12.422  20.306  0.00  0.00    +0.000 F 
ATOM     17  C   UNL     1       0.316  10.488  21.283  0.00  0.00    +0.000 A 
ATOM     18  C   UNL     1       0.946   9.248  21.130  0.00  0.00    +0.000 A 
ENDBRANCH   4  12
BRANCH   1  22
ATOM     19  C   UNL     1       6.797   5.472  15.744  0.00  0.00    +0.000 A 
ATOM     20  C   UNL     1       5.504   5.027  15.477  0.00  0.00    +0.000 A 
ATOM     21  C   UNL     1       4.474   5.249  16.392  0.00  0.00    +0.000 A 
ATOM     22  C   UNL     1       4.732   5.897  17.605  0.00  0.00    +0.000 A 
ATOM     23  C   UNL     1       6.044   6.299  17.890  0.00  0.00    +0.000 A 
ATOM     24  C   UNL     1       7.069   6.103  16.957  0.00  0.00    +0.000 A 
BRANCH  19  26
ATOM     25  C   UNL     1       7.185   4.794  13.519  0.00  0.00    +0.000 C 
ATOM     26  O   UNL     1       7.720   5.197  14.774  0.00  0.00    +0.000 OA
ENDBRANCH  19  26
ENDBRANCH   1  22
BRANCH   9  27
ATOM     27  O   UNL     1       4.294   1.684  19.948  0.00  0.00    +0.000 OA
ATOM     28  C   UNL     1       4.004   1.058  18.709  0.00  0.00    +0.000 C 
ENDBRANCH   9  27
TORSDOF 4
ENDMDL
MODEL 2
REMARK VINA RESULT:      -8.0      4.138      6.230
REMARK  Name = 
REMARK  6 active torsions:
REMARK  status: ('A' for Active; 'I' for Inactive)
REMARK    1  A    between atoms: C_1  and  O_2
REMARK    2  A    between atoms: O_2  and  C_3
REMARK    3  A    between atoms: C_6  and  N_7
REMARK    4  A    between atoms: C_10  and  C_11
REMARK    5  A    between atoms: C_22  and  O_23
REMARK    6  A    between atoms: O_23  and  C_24
REMARK                            x       y       z     vdW  Elec       q    Type
REMARK                         _______ _______ _______ _____ _____    ______ ____
ROOT
ATOM      1  N   UNL     1       6.063   5.847  17.641  0.00  0.00    +0.000 N 
ATOM      2  C   UNL     1       5.162   5.419  18.607  0.00  0.00    +0.000 A 
ATOM      3  O   UNL     1       5.040   5.915  19.722  0.00  0.00    +0.000 OA
ATOM      4  C   UNL     1       4.324   4.180  18.251  0.00  0.00    +0.000 A 
ATOM      5  N   UNL     1       4.487   3.536  17.126  0.00  0.00    +0.000 NA
ATOM      6  C   UNL     1       5.424   4.032  16.206  0.00  0.00    +0.000 A 
ATOM      7  C   UNL     1       5.608   3.417  14.982  0.00  0.00    +0.000 A 
ATOM      8  N   UNL     1       6.465   3.845  14.027  0.00  0.00    +0.000 NA
ATOM      9  C   UNL     1       7.158   4.952  14.329  0.00  0.00    +0.000 A 
ATOM     10  N   UNL     1       7.064   5.627  15.475  0.00  0.00    +0.000 NA
ATOM     11  C   UNL     1       6.211   5.155  16.412  0.00  0.00    +0.000 A 
ENDROOT
BRANCH   4  12
ATOM     12  C   UNL     1       3.326   3.671  19.241  0.00  0.00    +0.000 A 
ATOM     13  C   UNL     1       1.974   4.039  19.181  0.00  0.00    +0.000 A 
ATOM     14  C   UNL     1       1.079   3.608  20.164  0.00  0.00    +0.000 A 
ATOM     15  C   UNL     1       1.529   2.785  21.187  0.00  0.00    +0.000 A 
ATOM     16  F   UNL     1       0.673   2.386  22.136  0.00  0.00    +0.000 F 
ATOM     17  C   UNL     1       2.855   2.371  21.239  0.00  0.00    +0.000 A 
ATOM     18  C   UNL     1       3.757   2.809  20.263  0.00  0.00    +0.000 A 
ENDBRANCH   4  12
BRANCH   1  22
ATOM     19  C   UNL     1       8.544   9.201  18.360  0.00  0.00    +0.000 A 
ATOM     20  C   UNL     1       7.461   9.303  17.491  0.00  0.00    +0.000 A 
ATOM     21  C   UNL     1       6.626   8.207  17.264  0.00  0.00    +0.000 A 
ATOM     22  C   UNL     1       6.886   6.980  17.886  0.00  0.00    +0.000 A 
ATOM     23  C   UNL     1       8.006   6.870  18.721  0.00  0.00    +0.000 A 
ATOM     24  C   UNL     1       8.822   7.979  18.971  0.00  0.00    +0.000 A 
BRANCH  19  26
ATOM     25  C   UNL     1       9.519  10.753  19.843  0.00  0.00    +0.000 C 
ATOM     26  O   UNL     1       9.287  10.340  18.502  0.00  0.00    +0.000 OA
ENDBRANCH  19  26
ENDBRANCH   1  22
BRANCH   9  27
ATOM     27  O   UNL     1       8.059   5.483  13.435  0.00  0.00    +0.000 OA
ATOM     28  C   UNL     1       7.707   5.266  12.078  0.00  0.00    +0.000 C 
ENDBRANCH   9  27
TORSDOF 4
ENDMDL
MODEL 3
REMARK VINA RESULT:      -8.0      0.139      1.297
REMARK  Name = 
REMARK  6 active torsions:
REMARK  status: ('A' for Active; 'I' for Inactive)
REMARK    1  A    between atoms: C_1  and  O_2
REMARK    2  A    between atoms: O_2  and  C_3
REMARK    3  A    between atoms: C_6  and  N_7
REMARK    4  A    between atoms: C_10  and  C_11
REMARK    5  A    between atoms: C_22  and  O_23
REMARK    6  A    between atoms: O_23  and  C_24
REMARK                            x       y       z     vdW  Elec       q    Type
REMARK                         _______ _______ _______ _____ _____    ______ ____
ROOT
ATOM      1  N   UNL     1       3.715   6.060  18.534  0.00  0.00    +0.000 N 
ATOM      2  C   UNL     1       3.088   7.297  18.603  0.00  0.00    +0.000 A 
ATOM      3  O   UNL     1       3.385   8.272  17.922  0.00  0.00    +0.000 OA
ATOM      4  C   UNL     1       1.998   7.446  19.677  0.00  0.00    +0.000 A 
ATOM      5  N   UNL     1       1.714   6.482  20.511  0.00  0.00    +0.000 NA
ATOM      6  C   UNL     1       2.400   5.263  20.378  0.00  0.00    +0.000 A 
ATOM      7  C   UNL     1       2.110   4.194  21.203  0.00  0.00    +0.000 A 
ATOM      8  N   UNL     1       2.699   2.979  21.124  0.00  0.00    +0.000 NA
ATOM      9  C   UNL     1       3.616   2.845  20.155  0.00  0.00    +0.000 A 
ATOM     10  N   UNL     1       3.975   3.805  19.302  0.00  0.00    +0.000 NA
ATOM     11  C   UNL     1       3.379   5.011  19.428  0.00  0.00    +0.000 A 
ENDROOT
BRANCH   4  12
ATOM     12  C   UNL     1       1.274   8.749  19.799  0.00  0.00    +0.000 A 
ATOM     13  C   UNL     1       0.978   9.313  21.049  0.00  0.00    +0.000 A 
ATOM     14  C   UNL     1       0.235  10.493  21.134  0.00  0.00    +0.000 A 
ATOM     15  C   UNL     1      -0.185  11.123  19.970  0.00  0.00    +0.000 A 
ATOM     16  F   UNL     1      -0.910  12.246  20.054  0.00  0.00    +0.000 F 
ATOM     17  C   UNL     1       0.138  10.605  18.721  0.00  0.00    +0.000 A 
ATOM     18  C   UNL     1       0.872   9.418  18.632  0.00  0.00    +0.000 A 
ENDBRANCH   4  12
BRANCH   1  22
ATOM     19  C   UNL     1       6.750   5.401  15.657  0.00  0.00    +0.000 A 
ATOM     20  C   UNL     1       7.041   6.068  16.844  0.00  0.00    +0.000 A 
ATOM     21  C   UNL     1       6.050   6.271  17.807  0.00  0.00    +0.000 A 
ATOM     22  C   UNL     1       4.741   5.833  17.577  0.00  0.00    +0.000 A 
ATOM     23  C   UNL     1       4.443   5.206  16.360  0.00  0.00    +0.000 A 
ATOM     24  C   UNL     1       5.445   4.976  15.410  0.00  0.00    +0.000 A 
BRANCH  19  26
ATOM     25  C   UNL     1       7.450   4.935  13.454  0.00  0.00    +0.000 C 
ATOM     26  O   UNL     1       7.800   5.261  14.793  0.00  0.00    +0.000 OA
ENDBRANCH  19  26
ENDBRANCH   1  22
BRANCH   9  27
ATOM     27  O   UNL     1       4.280   1.654  19.976  0.00  0.00    +0.000 OA
ATOM     28  C   UNL     1       4.024   1.044  18.721  0.00  0.00    +0.000 C 
ENDBRANCH   9  27
TORSDOF 4
ENDMDL
MODEL 4
REMARK VINA RESULT:      -7.6      4.075      6.278
REMARK  Name = 
REMARK  6 active torsions:
REMARK  status: ('A' for Active; 'I' for Inactive)
REMARK    1  A    between atoms: C_1  and  O_2
REMARK    2  A    between atoms: O_2  and  C_3
REMARK    3  A    between atoms: C_6  and  N_7
REMARK    4  A    between atoms: C_10  and  C_11
REMARK    5  A    between atoms: C_22  and  O_23
REMARK    6  A    between atoms: O_23  and  C_24
REMARK                            x       y       z     vdW  Elec       q    Type
REMARK                         _______ _______ _______ _____ _____    ______ ____
ROOT
ATOM      1  N   UNL     1       6.106   5.890  17.667  0.00  0.00    +0.000 N 
ATOM      2  C   UNL     1       5.229   5.483  18.664  0.00  0.00    +0.000 A 
ATOM      3  O   UNL     1       5.144   5.993  19.775  0.00  0.00    +0.000 OA
ATOM      4  C   UNL     1       4.370   4.248  18.346  0.00  0.00    +0.000 A 
ATOM      5  N   UNL     1       4.494   3.589  17.226  0.00  0.00    +0.000 NA
ATOM      6  C   UNL     1       5.410   4.064  16.273  0.00  0.00    +0.000 A 
ATOM      7  C   UNL     1       5.553   3.434  15.052  0.00  0.00    +0.000 A 
ATOM      8  N   UNL     1       6.386   3.842  14.068  0.00  0.00    +0.000 NA
ATOM      9  C   UNL     1       7.098   4.945  14.337  0.00  0.00    +0.000 A 
ATOM     10  N   UNL     1       7.043   5.635  15.476  0.00  0.00    +0.000 NA
ATOM     11  C   UNL     1       6.213   5.182  16.443  0.00  0.00    +0.000 A 
ENDROOT
BRANCH   4  12
ATOM     12  C   UNL     1       3.395   3.761  19.371  0.00  0.00    +0.000 A 
ATOM     13  C   UNL     1       3.767   2.845  20.366  0.00  0.00    +0.000 A 
ATOM     14  C   UNL     1       2.817   2.350  21.263  0.00  0.00    +0.000 A 
ATOM     15  C   UNL     1       1.504   2.793  21.184  0.00  0.00    +0.000 A 
ATOM     16  F   UNL     1       0.593   2.306  22.035  0.00  0.00    +0.000 F 
ATOM     17  C   UNL     1       1.124   3.736  20.235  0.00  0.00    +0.000 A 
ATOM     18  C   UNL     1       2.070   4.226  19.328  0.00  0.00    +0.000 A 
ENDBRANCH   4  12
BRANCH   1  22
ATOM     19  C   UNL     1       8.578   9.269  18.297  0.00  0.00    +0.000 A 
ATOM     20  C   UNL     1       8.860   8.064  18.936  0.00  0.00    +0.000 A 
ATOM     21  C   UNL     1       8.061   6.940  18.718  0.00  0.00    +0.000 A 
ATOM     22  C   UNL     1       6.946   7.018  17.875  0.00  0.00    +0.000 A 
ATOM     23  C   UNL     1       6.639   8.246  17.273  0.00  0.00    +0.000 A 
ATOM     24  C   UNL     1       7.460   9.362  17.469  0.00  0.00    +0.000 A 
BRANCH  19  26
ATOM     25  C   UNL     1       9.357  10.793  19.919  0.00  0.00    +0.000 C 
ATOM     26  O   UNL     1       9.431  10.297  18.588  0.00  0.00    +0.000 OA
ENDBRANCH  19  26
ENDBRANCH   1  22
BRANCH   9  27
ATOM     27  O   UNL     1       7.978   5.456  13.411  0.00  0.00    +0.000 OA
ATOM     28  C   UNL     1       7.665   5.101  12.074  0.00  0.00    +0.000 C 
ENDBRANCH   9  27
TORSDOF 4
ENDMDL
MODEL 5
REMARK VINA RESULT:      -7.3      3.235      7.074
REMARK  Name = 
REMARK  6 active torsions:
REMARK  status: ('A' for Active; 'I' for Inactive)
REMARK    1  A    between atoms: C_1  and  O_2
REMARK    2  A    between atoms: O_2  and  C_3
REMARK    3  A    between atoms: C_6  and  N_7
REMARK    4  A    between atoms: C_10  and  C_11
REMARK    5  A    between atoms: C_22  and  O_23
REMARK    6  A    between atoms: O_23  and  C_24
REMARK                            x       y       z     vdW  Elec       q    Type
REMARK                         _______ _______ _______ _____ _____    ______ ____
ROOT
ATOM      1  N   UNL     1       3.210   5.615  18.017  0.00  0.00    +0.000 N 
ATOM      2  C   UNL     1       4.133   5.788  16.994  0.00  0.00    +0.000 A 
ATOM      3  O   UNL     1       4.449   6.869  16.510  0.00  0.00    +0.000 OA
ATOM      4  C   UNL     1       4.727   4.504  16.393  0.00  0.00    +0.000 A 
ATOM      5  N   UNL     1       4.346   3.317  16.784  0.00  0.00    +0.000 NA
ATOM      6  C   UNL     1       3.403   3.230  17.821  0.00  0.00    +0.000 A 
ATOM      7  C   UNL     1       2.995   2.003  18.306  0.00  0.00    +0.000 A 
ATOM      8  N   UNL     1       2.117   1.828  19.320  0.00  0.00    +0.000 NA
ATOM      9  C   UNL     1       1.639   2.955  19.867  0.00  0.00    +0.000 A 
ATOM     10  N   UNL     1       1.959   4.190  19.483  0.00  0.00    +0.000 NA
ATOM     11  C   UNL     1       2.825   4.321  18.453  0.00  0.00    +0.000 A 
ENDROOT
BRANCH   4  12
ATOM     12  C   UNL     1       5.736   4.617  15.295  0.00  0.00    +0.000 A 
ATOM     13  C   UNL     1       6.947   5.301  15.474  0.00  0.00    +0.000 A 
ATOM     14  C   UNL     1       7.837   5.455  14.408  0.00  0.00    +0.000 A 
ATOM     15  C   UNL     1       7.531   4.899  13.174  0.00  0.00    +0.000 A 
ATOM     16  F   UNL     1       8.378   5.060  12.150  0.00  0.00    +0.000 F 
ATOM     17  C   UNL     1       6.357   4.176  12.988  0.00  0.00    +0.000 A 
ATOM     18  C   UNL     1       5.458   4.029  14.049  0.00  0.00    +0.000 A 
ENDBRANCH   4  12
BRANCH   1  22
ATOM     19  C   UNL     1       1.371   8.980  19.811  0.00  0.00    +0.000 A 
ATOM     20  C   UNL     1       1.733   7.881  20.587  0.00  0.00    +0.000 A 
ATOM     21  C   UNL     1       2.357   6.776  20.005  0.00  0.00    +0.000 A 
ATOM     22  C   UNL     1       2.603   6.746  18.627  0.00  0.00    +0.000 A 
ATOM     23  C   UNL     1       2.192   7.833  17.845  0.00  0.00    +0.000 A 
ATOM     24  C   UNL     1       1.595   8.953  18.435  0.00  0.00    +0.000 A 
BRANCH  19  26
ATOM     25  C   UNL     1       0.607   9.791  21.889  0.00  0.00    +0.000 C 
ATOM     26  O   UNL     1       0.768  10.001  20.492  0.00  0.00    +0.000 OA
ENDBRANCH  19  26
ENDBRANCH   1  22
BRANCH   9  27
ATOM     27  O   UNL     1       0.739   2.904  20.906  0.00  0.00    +0.000 OA
ATOM     28  C   UNL     1       1.328   2.566  22.152  0.00  0.00    +0.000 C 
ENDBRANCH   9  27
TORSDOF 4
ENDMDL
MODEL 6
REMARK VINA RESULT:      -7.2      3.210      7.026
REMARK  Name = 
REMARK  6 active torsions:
REMARK  status: ('A' for Active; 'I' for Inactive)
REMARK    1  A    between atoms: C_1  and  O_2
REMARK    2  A    between atoms: O_2  and  C_3
REMARK    3  A    between atoms: C_6  and  N_7
REMARK    4  A    between atoms: C_10  and  C_11
REMARK    5  A    between atoms: C_22  and  O_23
REMARK    6  A    between atoms: O_23  and  C_24
REMARK                            x       y       z     vdW  Elec       q    Type
REMARK                         _______ _______ _______ _____ _____    ______ ____
ROOT
ATOM      1  N   UNL     1       3.193   5.594  17.987  0.00  0.00    +0.000 N 
ATOM      2  C   UNL     1       4.119   5.773  16.968  0.00  0.00    +0.000 A 
ATOM      3  O   UNL     1       4.425   6.856  16.481  0.00  0.00    +0.000 OA
ATOM      4  C   UNL     1       4.730   4.493  16.374  0.00  0.00    +0.000 A 
ATOM      5  N   UNL     1       4.360   3.304  16.769  0.00  0.00    +0.000 NA
ATOM      6  C   UNL     1       3.413   3.210  17.801  0.00  0.00    +0.000 A 
ATOM      7  C   UNL     1       3.017   1.980  18.289  0.00  0.00    +0.000 A 
ATOM      8  N   UNL     1       2.136   1.800  19.299  0.00  0.00    +0.000 NA
ATOM      9  C   UNL     1       1.642   2.923  19.840  0.00  0.00    +0.000 A 
ATOM     10  N   UNL     1       1.951   4.161  19.452  0.00  0.00    +0.000 NA
ATOM     11  C   UNL     1       2.820   4.297  18.426  0.00  0.00    +0.000 A 
ENDROOT
BRANCH   4  12
ATOM     12  C   UNL     1       5.743   4.613  15.281  0.00  0.00    +0.000 A 
ATOM     13  C   UNL     1       6.951   5.300  15.467  0.00  0.00    +0.000 A 
ATOM     14  C   UNL     1       7.845   5.461  14.405  0.00  0.00    +0.000 A 
ATOM     15  C   UNL     1       7.545   4.908  13.168  0.00  0.00    +0.000 A 
ATOM     16  F   UNL     1       8.395   5.076  12.147  0.00  0.00    +0.000 F 
ATOM     17  C   UNL     1       6.374   4.183  12.974  0.00  0.00    +0.000 A 
ATOM     18  C   UNL     1       5.471   4.030  14.032  0.00  0.00    +0.000 A 
ENDBRANCH   4  12
BRANCH   1  22
ATOM     19  C   UNL     1       1.367   8.951  19.808  0.00  0.00    +0.000 A 
ATOM     20  C   UNL     1       1.612   8.943  18.437  0.00  0.00    +0.000 A 
ATOM     21  C   UNL     1       2.196   7.832  17.826  0.00  0.00    +0.000 A 
ATOM     22  C   UNL     1       2.570   6.720  18.590  0.00  0.00    +0.000 A 
ATOM     23  C   UNL     1       2.365   6.753  19.976  0.00  0.00    +0.000 A 
ATOM     24  C   UNL     1       1.752   7.856  20.581  0.00  0.00    +0.000 A 
BRANCH  19  26
ATOM     25  C   UNL     1      -0.451  10.449  19.697  0.00  0.00    +0.000 C 
ATOM     26  O   UNL     1       0.792  10.093  20.291  0.00  0.00    +0.000 OA
ENDBRANCH  19  26
ENDBRANCH   1  22
BRANCH   9  27
ATOM     27  O   UNL     1       0.738   2.866  20.875  0.00  0.00    +0.000 OA
ATOM     28  C   UNL     1       1.336   2.625  22.139  0.00  0.00    +0.000 C 
ENDBRANCH   9  27
TORSDOF 4
ENDMDL
MODEL 7
REMARK VINA RESULT:      -7.1      1.160      1.362
REMARK  Name = 
REMARK  6 active torsions:
REMARK  status: ('A' for Active; 'I' for Inactive)
REMARK    1  A    between atoms: C_1  and  O_2
REMARK    2  A    between atoms: O_2  and  C_3
REMARK    3  A    between atoms: C_6  and  N_7
REMARK    4  A    between atoms: C_10  and  C_11
REMARK    5  A    between atoms: C_22  and  O_23
REMARK    6  A    between atoms: O_23  and  C_24
REMARK                            x       y       z     vdW  Elec       q    Type
REMARK                         _______ _______ _______ _____ _____    ______ ____
ROOT
ATOM      1  N   UNL     1       3.507   6.668  18.215  0.00  0.00    +0.000 N 
ATOM      2  C   UNL     1       2.925   7.911  18.003  0.00  0.00    +0.000 A 
ATOM      3  O   UNL     1       3.302   8.729  17.171  0.00  0.00    +0.000 OA
ATOM      4  C   UNL     1       1.774   8.290  18.949  0.00  0.00    +0.000 A 
ATOM      5  N   UNL     1       1.400   7.513  19.929  0.00  0.00    +0.000 NA
ATOM      6  C   UNL     1       2.046   6.275  20.079  0.00  0.00    +0.000 A 
ATOM      7  C   UNL     1       1.663   5.392  21.070  0.00  0.00    +0.000 A 
ATOM      8  N   UNL     1       2.208   4.170  21.265  0.00  0.00    +0.000 NA
ATOM      9  C   UNL     1       3.181   3.829  20.407  0.00  0.00    +0.000 A 
ATOM     10  N   UNL     1       3.631   4.598  19.415  0.00  0.00    +0.000 NA
ATOM     11  C   UNL     1       3.074   5.820  19.266  0.00  0.00    +0.000 A 
ENDROOT
BRANCH   4  12
ATOM     12  C   UNL     1       1.093   9.610  18.769  0.00  0.00    +0.000 A 
ATOM     13  C   UNL     1       1.692  10.811  19.178  0.00  0.00    +0.000 A 
ATOM     14  C   UNL     1       1.001  12.020  19.067  0.00  0.00    +0.000 A 
ATOM     15  C   UNL     1      -0.274  12.033  18.519  0.00  0.00    +0.000 A 
ATOM     16  F   UNL     1      -0.939  13.190  18.427  0.00  0.00    +0.000 F 
ATOM     17  C   UNL     1      -0.867  10.860  18.064  0.00  0.00    +0.000 A 
ATOM     18  C   UNL     1      -0.183   9.646  18.184  0.00  0.00    +0.000 A 
ENDBRANCH   4  12
BRANCH   1  22
ATOM     19  C   UNL     1       6.734   5.371  15.801  0.00  0.00    +0.000 A 
ATOM     20  C   UNL     1       5.456   4.855  15.601  0.00  0.00    +0.000 A 
ATOM     21  C   UNL     1       4.383   5.292  16.380  0.00  0.00    +0.000 A 
ATOM     22  C   UNL     1       4.584   6.236  17.394  0.00  0.00    +0.000 A 
ATOM     23  C   UNL     1       5.881   6.715  17.623  0.00  0.00    +0.000 A 
ATOM     24  C   UNL     1       6.948   6.298  16.820  0.00  0.00    +0.000 A 
BRANCH  19  26
ATOM     25  C   UNL     1       7.396   4.894  13.589  0.00  0.00    +0.000 C 
ATOM     26  O   UNL     1       7.702   4.867  14.978  0.00  0.00    +0.000 OA
ENDBRANCH  19  26
ENDBRANCH   1  22
BRANCH   9  27
ATOM     27  O   UNL     1       3.810   2.610  20.506  0.00  0.00    +0.000 OA
ATOM     28  C   UNL     1       4.036   1.985  19.252  0.00  0.00    +0.000 C 
ENDBRANCH   9  27
TORSDOF 4
ENDMDL
MODEL 8
REMARK VINA RESULT:      -7.0      3.176      7.008
REMARK  Name = 
REMARK  6 active torsions:
REMARK  status: ('A' for Active; 'I' for Inactive)
REMARK    1  A    between atoms: C_1  and  O_2
REMARK    2  A    between atoms: O_2  and  C_3
REMARK    3  A    between atoms: C_6  and  N_7
REMARK    4  A    between atoms: C_10  and  C_11
REMARK    5  A    between atoms: C_22  and  O_23
REMARK    6  A    between atoms: O_23  and  C_24
REMARK                            x       y       z     vdW  Elec       q    Type
REMARK                         _______ _______ _______ _____ _____    ______ ____
ROOT
ATOM      1  N   UNL     1       3.569   5.739  18.152  0.00  0.00    +0.000 N 
ATOM      2  C   UNL     1       4.259   5.788  16.947  0.00  0.00    +0.000 A 
ATOM      3  O   UNL     1       4.268   6.747  16.183  0.00  0.00    +0.000 OA
ATOM      4  C   UNL     1       4.991   4.502  16.533  0.00  0.00    +0.000 A 
ATOM      5  N   UNL     1       4.926   3.409  17.245  0.00  0.00    +0.000 NA
ATOM      6  C   UNL     1       4.201   3.442  18.447  0.00  0.00    +0.000 A 
ATOM      7  C   UNL     1       4.134   2.330  19.264  0.00  0.00    +0.000 A 
ATOM      8  N   UNL     1       3.486   2.284  20.450  0.00  0.00    +0.000 NA
ATOM      9  C   UNL     1       2.888   3.424  20.825  0.00  0.00    +0.000 A 
ATOM     10  N   UNL     1       2.887   4.556  20.121  0.00  0.00    +0.000 NA
ATOM     11  C   UNL     1       3.528   4.555  18.931  0.00  0.00    +0.000 A 
ENDROOT
BRANCH   4  12
ATOM     12  C   UNL     1       5.764   4.488  15.252  0.00  0.00    +0.000 A 
ATOM     13  C   UNL     1       6.981   5.172  15.117  0.00  0.00    +0.000 A 
ATOM     14  C   UNL     1       7.642   5.204  13.887  0.00  0.00    +0.000 A 
ATOM     15  C   UNL     1       7.103   4.528  12.801  0.00  0.00    +0.000 A 
ATOM     16  F   UNL     1       7.730   4.572  11.620  0.00  0.00    +0.000 F 
ATOM     17  C   UNL     1       5.921   3.805  12.926  0.00  0.00    +0.000 A 
ATOM     18  C   UNL     1       5.250   3.780  14.153  0.00  0.00    +0.000 A 
ENDBRANCH   4  12
BRANCH   1  22
ATOM     19  C   UNL     1       1.419   9.130  19.493  0.00  0.00    +0.000 A 
ATOM     20  C   UNL     1       1.659   8.064  20.357  0.00  0.00    +0.000 A 
ATOM     21  C   UNL     1       2.384   6.951  19.928  0.00  0.00    +0.000 A 
ATOM     22  C   UNL     1       2.856   6.879  18.612  0.00  0.00    +0.000 A 
ATOM     23  C   UNL     1       2.570   7.933  17.733  0.00  0.00    +0.000 A 
ATOM     24  C   UNL     1       1.870   9.061  18.176  0.00  0.00    +0.000 A 
BRANCH  19  26
ATOM     25  C   UNL     1       0.754  11.384  19.300  0.00  0.00    +0.000 C 
ATOM     26  O   UNL     1       0.700  10.163  20.027  0.00  0.00    +0.000 OA
ENDBRANCH  19  26
ENDBRANCH   1  22
BRANCH   9  27
ATOM     27  O   UNL     1       2.200   3.499  22.013  0.00  0.00    +0.000 OA
ATOM     28  C   UNL     1       1.163   2.537  22.130  0.00  0.00    +0.000 C 
ENDBRANCH   9  27
TORSDOF 4
ENDMDL
MODEL 9
REMARK VINA RESULT:      -6.9      8.741     11.844
REMARK  Name = 
REMARK  6 active torsions:
REMARK  status: ('A' for Active; 'I' for Inactive)
REMARK    1  A    between atoms: C_1  and  O_2
REMARK    2  A    between atoms: O_2  and  C_3
REMARK    3  A    between atoms: C_6  and  N_7
REMARK    4  A    between atoms: C_10  and  C_11
REMARK    5  A    between atoms: C_22  and  O_23
REMARK    6  A    between atoms: O_23  and  C_24
REMARK                            x       y       z     vdW  Elec       q    Type
REMARK                         _______ _______ _______ _____ _____    ______ ____
ROOT
ATOM      1  N   UNL     1      -3.948  12.737  20.954  0.00  0.00    +0.000 N 
ATOM      2  C   UNL     1      -3.435  12.290  19.743  0.00  0.00    +0.000 A 
ATOM      3  O   UNL     1      -2.297  12.507  19.341  0.00  0.00    +0.000 OA
ATOM      4  C   UNL     1      -4.414  11.537  18.828  0.00  0.00    +0.000 A 
ATOM      5  N   UNL     1      -5.670  11.374  19.146  0.00  0.00    +0.000 NA
ATOM      6  C   UNL     1      -6.111  11.862  20.387  0.00  0.00    +0.000 A 
ATOM      7  C   UNL     1      -7.417  11.679  20.796  0.00  0.00    +0.000 A 
ATOM      8  N   UNL     1      -7.916  12.089  21.985  0.00  0.00    +0.000 NA
ATOM      9  C   UNL     1      -7.043  12.704  22.795  0.00  0.00    +0.000 A 
ATOM     10  N   UNL     1      -5.762  12.935  22.507  0.00  0.00    +0.000 NA
ATOM     11  C   UNL     1      -5.308  12.529  21.301  0.00  0.00    +0.000 A 
ENDROOT
BRANCH   4  12
ATOM     12  C   UNL     1      -3.924  11.018  17.513  0.00  0.00    +0.000 A 
ATOM     13  C   UNL     1      -2.949  10.013  17.434  0.00  0.00    +0.000 A 
ATOM     14  C   UNL     1      -2.457   9.602  16.193  0.00  0.00    +0.000 A 
ATOM     15  C   UNL     1      -2.961  10.172  15.033  0.00  0.00    +0.000 A 
ATOM     16  F   UNL     1      -2.477   9.786  13.845  0.00  0.00    +0.000 F 
ATOM     17  C   UNL     1      -3.961  11.136  15.087  0.00  0.00    +0.000 A 
ATOM     18  C   UNL     1      -4.449  11.560  16.328  0.00  0.00    +0.000 A 
ENDBRANCH   4  12
BRANCH   1  22
ATOM     19  C   UNL     1      -1.445  14.836  23.646  0.00  0.00    +0.000 A 
ATOM     20  C   UNL     1      -2.139  15.523  22.652  0.00  0.00    +0.000 A 
ATOM     21  C   UNL     1      -2.981  14.840  21.773  0.00  0.00    +0.000 A 
ATOM     22  C   UNL     1      -3.118  13.449  21.861  0.00  0.00    +0.000 A 
ATOM     23  C   UNL     1      -2.380  12.759  22.831  0.00  0.00    +0.000 A 
ATOM     24  C   UNL     1      -1.560  13.450  23.731  0.00  0.00    +0.000 A 
BRANCH  19  26
ATOM     25  C   UNL     1      -0.588  16.988  24.090  0.00  0.00    +0.000 C 
ATOM     26  O   UNL     1      -0.652  15.612  24.445  0.00  0.00    +0.000 OA
ENDBRANCH  19  26
ENDBRANCH   1  22
BRANCH   9  27
ATOM     27  O   UNL     1      -7.435  13.164  24.030  0.00  0.00    +0.000 OA
ATOM     28  C   UNL     1      -7.873  14.513  24.021  0.00  0.00    +0.000 C 
ENDBRANCH   9  27
TORSDOF 4
ENDMDL
