MODEL 1
REMARK VINA RESULT:      -9.0      0.000      0.000
REMARK  Name = 
REMARK  4 active torsions:
REMARK  status: ('A' for Active; 'I' for Inactive)
REMARK    1  A    between atoms: C_6  and  N_7
REMARK    2  A    between atoms: C_11  and  C_12
REMARK    3  A    between atoms: N_14  and  C_15
REMARK    4  A    between atoms: C_15  and  C_16
REMARK                            x       y       z     vdW  Elec       q    Type
REMARK                         _______ _______ _______ _____ _____    ______ ____
ROOT
ATOM      1  N   UNL     1       2.319   7.638  19.273  0.00  0.00    +0.000 N 
ATOM      2  C   UNL     1       1.560   8.725  18.903  0.00  0.00    +0.000 C 
ATOM      3  O   UNL     1       1.383   9.080  17.743  0.00  0.00    +0.000 OA
ATOM      4  N   UNL     1       1.061   9.459  19.975  0.00  0.00    +0.000 N 
ATOM      5  C   UNL     1       0.126  10.614  19.811  0.00  0.00    +0.000 C 
ATOM      6  C   UNL     1      -0.160  11.070  21.272  0.00  0.00    +0.000 C 
ATOM      7  C   UNL     1       0.093   9.877  22.140  0.00  0.00    +0.000 C 
ATOM      8  C   UNL     1      -0.454   8.514  21.835  0.00  0.00    +0.000 C 
ATOM      9  C   UNL     1       0.906   8.928  21.319  0.00  0.00    +0.000 C 
ATOM     10  H   UNL     1       2.340   7.402  20.254  0.00  0.00    +0.000 HD
ENDROOT
BRANCH   1  16
ATOM     11  N   UNL     1       6.646   6.383  16.408  0.00  0.00    +0.000 N 
ATOM     12  C   UNL     1       5.485   5.801  15.992  0.00  0.00    +0.000 C 
ATOM     13  O   UNL     1       5.339   5.151  14.968  0.00  0.00    +0.000 OA
ATOM     14  N   UNL     1       4.459   5.913  16.946  0.00  0.00    +0.000 N 
ATOM     15  C   UNL     1       4.144   7.041  17.693  0.00  0.00    +0.000 A 
ATOM     16  C   UNL     1       3.033   6.776  18.457  0.00  0.00    +0.000 A 
ATOM     17  C   UNL     1       2.728   5.390  18.286  0.00  0.00    +0.000 A 
ATOM     18  C   UNL     1       1.782   4.515  18.867  0.00  0.00    +0.000 A 
ATOM     19  C   UNL     1       1.763   3.166  18.497  0.00  0.00    +0.000 A 
ATOM     20  C   UNL     1       2.653   2.681  17.546  0.00  0.00    +0.000 A 
ATOM     21  C   UNL     1       3.581   3.528  16.939  0.00  0.00    +0.000 A 
ATOM     22  C   UNL     1       3.604   4.881  17.325  0.00  0.00    +0.000 A 
ATOM     23  H   UNL     1       7.462   6.163  15.850  0.00  0.00    +0.000 HD
ATOM     24  H   UNL     1       6.805   6.535  17.397  0.00  0.00    +0.000 HD
ENDBRANCH   1  16
BRANCH   5  25
ATOM     25  C   UNL     1       0.493  11.879  19.008  0.00  0.00    +0.000 C 
ATOM     26  O   UNL     1      -0.366  12.511  18.386  0.00  0.00    +0.000 OA
ATOM     27  N   UNL     1       1.823  12.151  18.841  0.00  0.00    +0.000 N 
ATOM     28  H   UNL     1       2.513  11.594  19.344  0.00  0.00    +0.000 HD
BRANCH  27  29
ATOM     29  C   UNL     1       2.269  13.255  18.026  0.00  0.00    +0.000 C 
BRANCH  29  30
ATOM     30  C   UNL     1       3.318  14.116  18.682  0.00  0.00    +0.000 A 
ATOM     31  C   UNL     1       4.217  14.899  17.943  0.00  0.00    +0.000 A 
ATOM     32  C   UNL     1       5.134  15.731  18.588  0.00  0.00    +0.000 A 
ATOM     33  C   UNL     1       5.152  15.805  19.979  0.00  0.00    +0.000 A 
ATOM     34  C   UNL     1       4.250  15.051  20.726  0.00  0.00    +0.000 A 
ATOM     35  C   UNL     1       3.335  14.217  20.081  0.00  0.00    +0.000 A 
ENDBRANCH  29  30
ENDBRANCH  27  29
ENDBRANCH   5  25
TORSDOF 4
ENDMDL
MODEL 2
REMARK VINA RESULT:      -8.9      2.861      8.800
REMARK  Name = 
REMARK  4 active torsions:
REMARK  status: ('A' for Active; 'I' for Inactive)
REMARK    1  A    between atoms: C_6  and  N_7
REMARK    2  A    between atoms: C_11  and  C_12
REMARK    3  A    between atoms: N_14  and  C_15
REMARK    4  A    between atoms: C_15  and  C_16
REMARK                            x       y       z     vdW  Elec       q    Type
REMARK                         _______ _______ _______ _____ _____    ______ ____
ROOT
ATOM      1  N   UNL     1       1.673   6.200  19.633  0.00  0.00    +0.000 N 
ATOM      2  C   UNL     1       2.938   5.673  19.501  0.00  0.00    +0.000 C 
ATOM      3  O   UNL     1       3.962   6.234  19.874  0.00  0.00    +0.000 OA
ATOM      4  N   UNL     1       2.977   4.459  18.820  0.00  0.00    +0.000 N 
ATOM      5  C   UNL     1       4.227   3.655  18.653  0.00  0.00    +0.000 C 
ATOM      6  C   UNL     1       3.755   2.398  17.866  0.00  0.00    +0.000 C 
ATOM      7  C   UNL     1       2.293   2.251  18.147  0.00  0.00    +0.000 C 
ATOM      8  C   UNL     1       1.715   2.326  19.529  0.00  0.00    +0.000 C 
ATOM      9  C   UNL     1       1.835   3.571  18.680  0.00  0.00    +0.000 C 
ATOM     10  H   UNL     1       0.899   5.619  19.349  0.00  0.00    +0.000 HD
ENDROOT
BRANCH   1  16
ATOM     11  N   UNL     1       0.314   9.325  23.742  0.00  0.00    +0.000 N 
ATOM     12  C   UNL     1      -0.174   9.716  22.530  0.00  0.00    +0.000 C 
ATOM     13  O   UNL     1      -0.982  10.610  22.340  0.00  0.00    +0.000 OA
ATOM     14  N   UNL     1       0.457   9.054  21.462  0.00  0.00    +0.000 N 
ATOM     15  C   UNL     1       0.771   7.702  21.397  0.00  0.00    +0.000 A 
ATOM     16  C   UNL     1       1.310   7.427  20.163  0.00  0.00    +0.000 A 
ATOM     17  C   UNL     1       1.466   8.676  19.486  0.00  0.00    +0.000 A 
ATOM     18  C   UNL     1       2.039   9.058  18.252  0.00  0.00    +0.000 A 
ATOM     19  C   UNL     1       2.063  10.407  17.883  0.00  0.00    +0.000 A 
ATOM     20  C   UNL     1       1.508  11.376  18.712  0.00  0.00    +0.000 A 
ATOM     21  C   UNL     1       0.915  11.024  19.924  0.00  0.00    +0.000 A 
ATOM     22  C   UNL     1       0.906   9.667  20.295  0.00  0.00    +0.000 A 
ATOM     23  H   UNL     1       0.037   9.906  24.525  0.00  0.00    +0.000 HD
ATOM     24  H   UNL     1       1.232   8.899  23.801  0.00  0.00    +0.000 HD
ENDBRANCH   1  16
BRANCH   5  25
ATOM     25  C   UNL     1       5.479   4.196  17.931  0.00  0.00    +0.000 C 
ATOM     26  O   UNL     1       6.542   4.359  18.536  0.00  0.00    +0.000 OA
ATOM     27  N   UNL     1       5.310   4.678  16.663  0.00  0.00    +0.000 N 
ATOM     28  H   UNL     1       4.411   4.557  16.197  0.00  0.00    +0.000 HD
BRANCH  27  29
ATOM     29  C   UNL     1       6.398   5.294  15.941  0.00  0.00    +0.000 C 
BRANCH  29  30
ATOM     30  C   UNL     1       6.578   4.767  14.540  0.00  0.00    +0.000 A 
ATOM     31  C   UNL     1       5.716   3.812  13.980  0.00  0.00    +0.000 A 
ATOM     32  C   UNL     1       5.879   3.393  12.658  0.00  0.00    +0.000 A 
ATOM     33  C   UNL     1       6.893   3.938  11.873  0.00  0.00    +0.000 A 
ATOM     34  C   UNL     1       7.742   4.904  12.408  0.00  0.00    +0.000 A 
ATOM     35  C   UNL     1       7.581   5.320  13.730  0.00  0.00    +0.000 A 
ENDBRANCH  29  30
ENDBRANCH  27  29
ENDBRANCH   5  25
TORSDOF 4
ENDMDL
MODEL 3
REMARK VINA RESULT:      -8.8      1.825      2.224
REMARK  Name = 
REMARK  4 active torsions:
REMARK  status: ('A' for Active; 'I' for Inactive)
REMARK    1  A    between atoms: C_6  and  N_7
REMARK    2  A    between atoms: C_11  and  C_12
REMARK    3  A    between atoms: N_14  and  C_15
REMARK    4  A    between atoms: C_15  and  C_16
REMARK                            x       y       z     vdW  Elec       q    Type
REMARK                         _______ _______ _______ _____ _____    ______ ____
ROOT
ATOM      1  N   UNL     1       2.478   6.842  19.866  0.00  0.00    +0.000 N 
ATOM      2  C   UNL     1       2.019   8.011  19.303  0.00  0.00    +0.000 C 
ATOM      3  O   UNL     1       2.102   8.281  18.110  0.00  0.00    +0.000 OA
ATOM      4  N   UNL     1       1.512   8.922  20.225  0.00  0.00    +0.000 N 
ATOM      5  C   UNL     1       0.864  10.211  19.830  0.00  0.00    +0.000 C 
ATOM      6  C   UNL     1       0.448  10.848  21.187  0.00  0.00    +0.000 C 
ATOM      7  C   UNL     1       0.318   9.716  22.158  0.00  0.00    +0.000 C 
ATOM      8  C   UNL     1      -0.434   8.456  21.849  0.00  0.00    +0.000 C 
ATOM      9  C   UNL     1       1.044   8.559  21.552  0.00  0.00    +0.000 C 
ATOM     10  H   UNL     1       2.296   6.699  20.848  0.00  0.00    +0.000 HD
ENDROOT
BRANCH   1  16
ATOM     11  N   UNL     1       6.905   4.416  18.126  0.00  0.00    +0.000 N 
ATOM     12  C   UNL     1       5.767   4.112  17.437  0.00  0.00    +0.000 C 
ATOM     13  O   UNL     1       5.710   3.464  16.404  0.00  0.00    +0.000 OA
ATOM     14  N   UNL     1       4.606   4.523  18.115  0.00  0.00    +0.000 N 
ATOM     15  C   UNL     1       4.416   5.733  18.771  0.00  0.00    +0.000 A 
ATOM     16  C   UNL     1       3.126   5.788  19.241  0.00  0.00    +0.000 A 
ATOM     17  C   UNL     1       2.534   4.511  18.992  0.00  0.00    +0.000 A 
ATOM     18  C   UNL     1       1.290   3.926  19.320  0.00  0.00    +0.000 A 
ATOM     19  C   UNL     1       1.022   2.604  18.948  0.00  0.00    +0.000 A 
ATOM     20  C   UNL     1       1.962   1.867  18.237  0.00  0.00    +0.000 A 
ATOM     21  C   UNL     1       3.188   2.428  17.879  0.00  0.00    +0.000 A 
ATOM     22  C   UNL     1       3.456   3.753  18.269  0.00  0.00    +0.000 A 
ATOM     23  H   UNL     1       7.748   3.973  17.781  0.00  0.00    +0.000 HD
ATOM     24  H   UNL     1       6.859   4.578  19.125  0.00  0.00    +0.000 HD
ENDBRANCH   1  16
BRANCH   5  25
ATOM     25  C   UNL     1       1.598  11.304  19.025  0.00  0.00    +0.000 C 
ATOM     26  O   UNL     1       2.150  11.043  17.952  0.00  0.00    +0.000 OA
ATOM     27  N   UNL     1       1.789  12.511  19.639  0.00  0.00    +0.000 N 
ATOM     28  H   UNL     1       1.345  12.689  20.540  0.00  0.00    +0.000 HD
BRANCH  27  29
ATOM     29  C   UNL     1       2.547  13.565  19.008  0.00  0.00    +0.000 C 
BRANCH  29  30
ATOM     30  C   UNL     1       1.742  14.803  18.709  0.00  0.00    +0.000 A 
ATOM     31  C   UNL     1       0.358  14.869  18.925  0.00  0.00    +0.000 A 
ATOM     32  C   UNL     1      -0.344  16.054  18.694  0.00  0.00    +0.000 A 
ATOM     33  C   UNL     1       0.332  17.193  18.264  0.00  0.00    +0.000 A 
ATOM     34  C   UNL     1       1.711  17.150  18.069  0.00  0.00    +0.000 A 
ATOM     35  C   UNL     1       2.411  15.965  18.297  0.00  0.00    +0.000 A 
ENDBRANCH  29  30
ENDBRANCH  27  29
ENDBRANCH   5  25
TORSDOF 4
ENDMDL
MODEL 4
REMARK VINA RESULT:      -8.6      2.323      8.512
REMARK  Name = 
REMARK  4 active torsions:
REMARK  status: ('A' for Active; 'I' for Inactive)
REMARK    1  A    between atoms: C_6  and  N_7
REMARK    2  A    between atoms: C_11  and  C_12
REMARK    3  A    between atoms: N_14  and  C_15
REMARK    4  A    between atoms: C_15  and  C_16
REMARK                            x       y       z     vdW  Elec       q    Type
REMARK                         _______ _______ _______ _____ _____    ______ ____
ROOT
ATOM      1  N   UNL     1       1.686   7.166  18.932  0.00  0.00    +0.000 N 
ATOM      2  C   UNL     1       2.854   6.443  19.026  0.00  0.00    +0.000 C 
ATOM      3  O   UNL     1       3.905   6.885  19.475  0.00  0.00    +0.000 OA
ATOM      4  N   UNL     1       2.771   5.163  18.485  0.00  0.00    +0.000 N 
ATOM      5  C   UNL     1       3.883   4.166  18.570  0.00  0.00    +0.000 C 
ATOM      6  C   UNL     1       3.306   2.907  17.859  0.00  0.00    +0.000 C 
ATOM      7  C   UNL     1       1.817   3.018  17.954  0.00  0.00    +0.000 C 
ATOM      8  C   UNL     1       1.102   3.347  19.231  0.00  0.00    +0.000 C 
ATOM      9  C   UNL     1       1.523   4.446  18.283  0.00  0.00    +0.000 C 
ATOM     10  H   UNL     1       0.865   6.678  18.608  0.00  0.00    +0.000 HD
ENDROOT
BRANCH   1  16
ATOM     11  N   UNL     1       1.487  12.365  17.736  0.00  0.00    +0.000 N 
ATOM     12  C   UNL     1       1.773  12.080  19.039  0.00  0.00    +0.000 C 
ATOM     13  O   UNL     1       2.113  12.888  19.889  0.00  0.00    +0.000 OA
ATOM     14  N   UNL     1       1.509  10.738  19.362  0.00  0.00    +0.000 N 
ATOM     15  C   UNL     1       1.817   9.625  18.589  0.00  0.00    +0.000 A 
ATOM     16  C   UNL     1       1.470   8.490  19.281  0.00  0.00    +0.000 A 
ATOM     17  C   UNL     1       0.795   8.912  20.467  0.00  0.00    +0.000 A 
ATOM     18  C   UNL     1       0.130   8.231  21.512  0.00  0.00    +0.000 A 
ATOM     19  C   UNL     1      -0.475   8.958  22.543  0.00  0.00    +0.000 A 
ATOM     20  C   UNL     1      -0.410  10.347  22.560  0.00  0.00    +0.000 A 
ATOM     21  C   UNL     1       0.260  11.043  21.554  0.00  0.00    +0.000 A 
ATOM     22  C   UNL     1       0.855  10.306  20.513  0.00  0.00    +0.000 A 
ATOM     23  H   UNL     1       1.472  13.351  17.505  0.00  0.00    +0.000 HD
ATOM     24  H   UNL     1       0.846  11.773  17.221  0.00  0.00    +0.000 HD
ENDBRANCH   1  16
BRANCH   5  25
ATOM     25  C   UNL     1       5.282   4.420  17.973  0.00  0.00    +0.000 C 
ATOM     26  O   UNL     1       6.290   4.421  18.686  0.00  0.00    +0.000 OA
ATOM     27  N   UNL     1       5.341   4.846  16.674  0.00  0.00    +0.000 N 
ATOM     28  H   UNL     1       4.487   4.864  16.115  0.00  0.00    +0.000 HD
BRANCH  27  29
ATOM     29  C   UNL     1       6.594   5.203  16.054  0.00  0.00    +0.000 C 
BRANCH  29  30
ATOM     30  C   UNL     1       6.718   4.755  14.621  0.00  0.00    +0.000 A 
ATOM     31  C   UNL     1       5.858   3.801  14.056  0.00  0.00    +0.000 A 
ATOM     32  C   UNL     1       5.966   3.456  12.707  0.00  0.00    +0.000 A 
ATOM     33  C   UNL     1       6.920   4.074  11.902  0.00  0.00    +0.000 A 
ATOM     34  C   UNL     1       7.764   5.040  12.443  0.00  0.00    +0.000 A 
ATOM     35  C   UNL     1       7.659   5.383  13.792  0.00  0.00    +0.000 A 
ENDBRANCH  29  30
ENDBRANCH  27  29
ENDBRANCH   5  25
TORSDOF 4
ENDMDL
MODEL 5
REMARK VINA RESULT:      -8.6      1.276      1.305
REMARK  Name = 
REMARK  4 active torsions:
REMARK  status: ('A' for Active; 'I' for Inactive)
REMARK    1  A    between atoms: C_6  and  N_7
REMARK    2  A    between atoms: C_11  and  C_12
REMARK    3  A    between atoms: N_14  and  C_15
REMARK    4  A    between atoms: C_15  and  C_16
REMARK                            x       y       z     vdW  Elec       q    Type
REMARK                         _______ _______ _______ _____ _____    ______ ____
ROOT
ATOM      1  N   UNL     1       2.464   6.847  19.835  0.00  0.00    +0.000 N 
ATOM      2  C   UNL     1       1.926   7.973  19.254  0.00  0.00    +0.000 C 
ATOM      3  O   UNL     1       1.918   8.189  18.047  0.00  0.00    +0.000 OA
ATOM      4  N   UNL     1       1.454   8.911  20.167  0.00  0.00    +0.000 N 
ATOM      5  C   UNL     1       0.736  10.159  19.761  0.00  0.00    +0.000 C 
ATOM      6  C   UNL     1       0.393  10.846  21.115  0.00  0.00    +0.000 C 
ATOM      7  C   UNL     1       0.369   9.758  22.143  0.00  0.00    +0.000 C 
ATOM      8  C   UNL     1      -0.359   8.462  21.943  0.00  0.00    +0.000 C 
ATOM      9  C   UNL     1       1.091   8.597  21.539  0.00  0.00    +0.000 C 
ATOM     10  H   UNL     1       2.355   6.746  20.833  0.00  0.00    +0.000 HD
ENDROOT
BRANCH   1  16
ATOM     11  N   UNL     1       6.864   4.401  18.059  0.00  0.00    +0.000 N 
ATOM     12  C   UNL     1       5.717   4.088  17.391  0.00  0.00    +0.000 C 
ATOM     13  O   UNL     1       5.644   3.426  16.369  0.00  0.00    +0.000 OA
ATOM     14  N   UNL     1       4.566   4.506  18.082  0.00  0.00    +0.000 N 
ATOM     15  C   UNL     1       4.385   5.725  18.725  0.00  0.00    +0.000 A 
ATOM     16  C   UNL     1       3.102   5.785  19.214  0.00  0.00    +0.000 A 
ATOM     17  C   UNL     1       2.507   4.505  18.991  0.00  0.00    +0.000 A 
ATOM     18  C   UNL     1       1.269   3.924  19.346  0.00  0.00    +0.000 A 
ATOM     19  C   UNL     1       0.997   2.597  18.995  0.00  0.00    +0.000 A 
ATOM     20  C   UNL     1       1.926   1.851  18.280  0.00  0.00    +0.000 A 
ATOM     21  C   UNL     1       3.146   2.408  17.896  0.00  0.00    +0.000 A 
ATOM     22  C   UNL     1       3.419   3.738  18.264  0.00  0.00    +0.000 A 
ATOM     23  H   UNL     1       7.702   3.954  17.707  0.00  0.00    +0.000 HD
ATOM     24  H   UNL     1       6.834   4.576  19.057  0.00  0.00    +0.000 HD
ENDBRANCH   1  16
BRANCH   5  25
ATOM     25  C   UNL     1       1.375  11.235  18.858  0.00  0.00    +0.000 C 
ATOM     26  O   UNL     1       2.247  10.941  18.036  0.00  0.00    +0.000 OA
ATOM     27  N   UNL     1       1.091  12.542  19.146  0.00  0.00    +0.000 N 
ATOM     28  H   UNL     1       0.387  12.757  19.852  0.00  0.00    +0.000 HD
BRANCH  27  29
ATOM     29  C   UNL     1       1.714  13.624  18.422  0.00  0.00    +0.000 C 
BRANCH  29  30
ATOM     30  C   UNL     1       3.012  14.096  19.025  0.00  0.00    +0.000 A 
ATOM     31  C   UNL     1       4.079  14.560  18.242  0.00  0.00    +0.000 A 
ATOM     32  C   UNL     1       5.243  15.047  18.840  0.00  0.00    +0.000 A 
ATOM     33  C   UNL     1       5.347  15.094  20.228  0.00  0.00    +0.000 A 
ATOM     34  C   UNL     1       4.287  14.659  21.019  0.00  0.00    +0.000 A 
ATOM     35  C   UNL     1       3.125  14.170  20.421  0.00  0.00    +0.000 A 
ENDBRANCH  29  30
ENDBRANCH  27  29
ENDBRANCH   5  25
TORSDOF 4
ENDMDL
MODEL 6
REMARK VINA RESULT:      -8.6      2.309      2.784
REMARK  Name = 
REMARK  4 active torsions:
REMARK  status: ('A' for Active; 'I' for Inactive)
REMARK    1  A    between atoms: C_6  and  N_7
REMARK    2  A    between atoms: C_11  and  C_12
REMARK    3  A    between atoms: N_14  and  C_15
REMARK    4  A    between atoms: C_15  and  C_16
REMARK                            x       y       z     vdW  Elec       q    Type
REMARK                         _______ _______ _______ _____ _____    ______ ____
ROOT
ATOM      1  N   UNL     1       2.340   7.526  19.315  0.00  0.00    +0.000 N 
ATOM      2  C   UNL     1       1.690   8.689  18.969  0.00  0.00    +0.000 C 
ATOM      3  O   UNL     1       1.604   9.117  17.824  0.00  0.00    +0.000 OA
ATOM      4  N   UNL     1       1.193   9.404  20.056  0.00  0.00    +0.000 N 
ATOM      5  C   UNL     1       0.363  10.639  19.912  0.00  0.00    +0.000 C 
ATOM      6  C   UNL     1       0.037  11.040  21.380  0.00  0.00    +0.000 C 
ATOM      7  C   UNL     1       0.148   9.786  22.190  0.00  0.00    +0.000 C 
ATOM      8  C   UNL     1      -0.489   8.491  21.782  0.00  0.00    +0.000 C 
ATOM      9  C   UNL     1       0.925   8.818  21.358  0.00  0.00    +0.000 C 
ATOM     10  H   UNL     1       2.289   7.238  20.280  0.00  0.00    +0.000 HD
ENDROOT
BRANCH   1  16
ATOM     11  N   UNL     1       6.604   6.193  16.392  0.00  0.00    +0.000 N 
ATOM     12  C   UNL     1       5.427   5.635  15.988  0.00  0.00    +0.000 C 
ATOM     13  O   UNL     1       5.255   4.992  14.965  0.00  0.00    +0.000 OA
ATOM     14  N   UNL     1       4.415   5.765  16.956  0.00  0.00    +0.000 N 
ATOM     15  C   UNL     1       4.132   6.897  17.710  0.00  0.00    +0.000 A 
ATOM     16  C   UNL     1       3.025   6.651  18.487  0.00  0.00    +0.000 A 
ATOM     17  C   UNL     1       2.691   5.273  18.316  0.00  0.00    +0.000 A 
ATOM     18  C   UNL     1       1.735   4.415  18.906  0.00  0.00    +0.000 A 
ATOM     19  C   UNL     1       1.684   3.068  18.533  0.00  0.00    +0.000 A 
ATOM     20  C   UNL     1       2.552   2.569  17.569  0.00  0.00    +0.000 A 
ATOM     21  C   UNL     1       3.489   3.399  16.953  0.00  0.00    +0.000 A 
ATOM     22  C   UNL     1       3.544   4.749  17.343  0.00  0.00    +0.000 A 
ATOM     23  H   UNL     1       7.409   5.958  15.823  0.00  0.00    +0.000 HD
ATOM     24  H   UNL     1       6.779   6.339  17.379  0.00  0.00    +0.000 HD
ENDBRANCH   1  16
BRANCH   5  25
ATOM     25  C   UNL     1       0.871  11.910  19.200  0.00  0.00    +0.000 C 
ATOM     26  O   UNL     1       2.044  12.006  18.826  0.00  0.00    +0.000 OA
ATOM     27  N   UNL     1       0.038  12.995  19.186  0.00  0.00    +0.000 N 
ATOM     28  H   UNL     1      -0.917  12.896  19.529  0.00  0.00    +0.000 HD
BRANCH  27  29
ATOM     29  C   UNL     1       0.458  14.260  18.630  0.00  0.00    +0.000 C 
BRANCH  29  30
ATOM     30  C   UNL     1      -0.440  15.415  18.992  0.00  0.00    +0.000 A 
ATOM     31  C   UNL     1      -1.259  15.402  20.130  0.00  0.00    +0.000 A 
ATOM     32  C   UNL     1      -2.031  16.516  20.465  0.00  0.00    +0.000 A 
ATOM     33  C   UNL     1      -1.979  17.663  19.678  0.00  0.00    +0.000 A 
ATOM     34  C   UNL     1      -1.152  17.700  18.558  0.00  0.00    +0.000 A 
ATOM     35  C   UNL     1      -0.383  16.585  18.221  0.00  0.00    +0.000 A 
ENDBRANCH  29  30
ENDBRANCH  27  29
ENDBRANCH   5  25
TORSDOF 4
ENDMDL
MODEL 7
REMARK VINA RESULT:      -8.5      1.053      1.186
REMARK  Name = 
REMARK  4 active torsions:
REMARK  status: ('A' for Active; 'I' for Inactive)
REMARK    1  A    between atoms: C_6  and  N_7
REMARK    2  A    between atoms: C_11  and  C_12
REMARK    3  A    between atoms: N_14  and  C_15
REMARK    4  A    between atoms: C_15  and  C_16
REMARK                            x       y       z     vdW  Elec       q    Type
REMARK                         _______ _______ _______ _____ _____    ______ ____
ROOT
ATOM      1  N   UNL     1       2.022   7.503  20.160  0.00  0.00    +0.000 N 
ATOM      2  C   UNL     1       1.371   8.586  19.613  0.00  0.00    +0.000 C 
ATOM      3  O   UNL     1       1.211   8.758  18.410  0.00  0.00    +0.000 OA
ATOM      4  N   UNL     1       0.969   9.535  20.547  0.00  0.00    +0.000 N 
ATOM      5  C   UNL     1       0.154  10.738  20.193  0.00  0.00    +0.000 C 
ATOM      6  C   UNL     1      -0.057  11.458  21.556  0.00  0.00    +0.000 C 
ATOM      7  C   UNL     1       0.088  10.407  22.612  0.00  0.00    +0.000 C 
ATOM      8  C   UNL     1      -0.601   9.076  22.540  0.00  0.00    +0.000 C 
ATOM      9  C   UNL     1       0.784   9.255  21.961  0.00  0.00    +0.000 C 
ATOM     10  H   UNL     1       2.036   7.433  21.166  0.00  0.00    +0.000 HD
ENDROOT
BRANCH   1  16
ATOM     11  N   UNL     1       6.089   5.391  17.421  0.00  0.00    +0.000 N 
ATOM     12  C   UNL     1       4.870   4.830  17.174  0.00  0.00    +0.000 C 
ATOM     13  O   UNL     1       4.624   4.010  16.304  0.00  0.00    +0.000 OA
ATOM     14  N   UNL     1       3.908   5.202  18.129  0.00  0.00    +0.000 N 
ATOM     15  C   UNL     1       3.712   6.474  18.653  0.00  0.00    +0.000 A 
ATOM     16  C   UNL     1       2.629   6.447  19.499  0.00  0.00    +0.000 A 
ATOM     17  C   UNL     1       2.222   5.082  19.615  0.00  0.00    +0.000 A 
ATOM     18  C   UNL     1       1.252   4.411  20.394  0.00  0.00    +0.000 A 
ATOM     19  C   UNL     1       1.121   3.021  20.296  0.00  0.00    +0.000 A 
ATOM     20  C   UNL     1       1.922   2.296  19.422  0.00  0.00    +0.000 A 
ATOM     21  C   UNL     1       2.871   2.936  18.624  0.00  0.00    +0.000 A 
ATOM     22  C   UNL     1       3.007   4.332  18.737  0.00  0.00    +0.000 A 
ATOM     23  H   UNL     1       6.856   5.004  16.884  0.00  0.00    +0.000 HD
ATOM     24  H   UNL     1       6.312   5.717  18.353  0.00  0.00    +0.000 HD
ENDBRANCH   1  16
BRANCH   5  25
ATOM     25  C   UNL     1       0.633  11.806  19.188  0.00  0.00    +0.000 C 
ATOM     26  O   UNL     1      -0.168  12.411  18.469  0.00  0.00    +0.000 OA
ATOM     27  N   UNL     1       1.981  11.908  18.978  0.00  0.00    +0.000 N 
ATOM     28  H   UNL     1       2.620  11.373  19.566  0.00  0.00    +0.000 HD
BRANCH  27  29
ATOM     29  C   UNL     1       2.523  12.808  17.988  0.00  0.00    +0.000 C 
BRANCH  29  30
ATOM     30  C   UNL     1       3.066  14.092  18.561  0.00  0.00    +0.000 A 
ATOM     31  C   UNL     1       3.345  15.211  17.763  0.00  0.00    +0.000 A 
ATOM     32  C   UNL     1       3.789  16.403  18.338  0.00  0.00    +0.000 A 
ATOM     33  C   UNL     1       3.940  16.498  19.720  0.00  0.00    +0.000 A 
ATOM     34  C   UNL     1       3.644  15.403  20.527  0.00  0.00    +0.000 A 
ATOM     35  C   UNL     1       3.203  14.210  19.952  0.00  0.00    +0.000 A 
ENDBRANCH  29  30
ENDBRANCH  27  29
ENDBRANCH   5  25
TORSDOF 4
ENDMDL
MODEL 8
REMARK VINA RESULT:      -8.5      1.565      1.846
REMARK  Name = 
REMARK  4 active torsions:
REMARK  status: ('A' for Active; 'I' for Inactive)
REMARK    1  A    between atoms: C_6  and  N_7
REMARK    2  A    between atoms: C_11  and  C_12
REMARK    3  A    between atoms: N_14  and  C_15
REMARK    4  A    between atoms: C_15  and  C_16
REMARK                            x       y       z     vdW  Elec       q    Type
REMARK                         _______ _______ _______ _____ _____    ______ ____
ROOT
ATOM      1  N   UNL     1       2.302   7.709  19.342  0.00  0.00    +0.000 N 
ATOM      2  C   UNL     1       1.457   8.736  18.985  0.00  0.00    +0.000 C 
ATOM      3  O   UNL     1       1.192   9.041  17.828  0.00  0.00    +0.000 OA
ATOM      4  N   UNL     1       0.978   9.475  20.063  0.00  0.00    +0.000 N 
ATOM      5  C   UNL     1      -0.034  10.567  19.921  0.00  0.00    +0.000 C 
ATOM      6  C   UNL     1      -0.261  11.054  21.382  0.00  0.00    +0.000 C 
ATOM      7  C   UNL     1       0.114   9.908  22.269  0.00  0.00    +0.000 C 
ATOM      8  C   UNL     1      -0.366   8.506  22.038  0.00  0.00    +0.000 C 
ATOM      9  C   UNL     1       0.933   8.981  21.429  0.00  0.00    +0.000 C 
ATOM     10  H   UNL     1       2.393   7.507  20.326  0.00  0.00    +0.000 HD
ENDROOT
BRANCH   1  16
ATOM     11  N   UNL     1       6.620   6.529  16.434  0.00  0.00    +0.000 N 
ATOM     12  C   UNL     1       5.462   5.941  16.017  0.00  0.00    +0.000 C 
ATOM     13  O   UNL     1       5.315   5.303  14.988  0.00  0.00    +0.000 OA
ATOM     14  N   UNL     1       4.441   6.032  16.980  0.00  0.00    +0.000 N 
ATOM     15  C   UNL     1       4.121   7.148  17.743  0.00  0.00    +0.000 A 
ATOM     16  C   UNL     1       3.017   6.863  18.511  0.00  0.00    +0.000 A 
ATOM     17  C   UNL     1       2.724   5.477  18.325  0.00  0.00    +0.000 A 
ATOM     18  C   UNL     1       1.790   4.586  18.901  0.00  0.00    +0.000 A 
ATOM     19  C   UNL     1       1.781   3.241  18.515  0.00  0.00    +0.000 A 
ATOM     20  C   UNL     1       2.669   2.777  17.552  0.00  0.00    +0.000 A 
ATOM     21  C   UNL     1       3.585   3.640  16.950  0.00  0.00    +0.000 A 
ATOM     22  C   UNL     1       3.599   4.988  17.352  0.00  0.00    +0.000 A 
ATOM     23  H   UNL     1       7.434   6.323  15.868  0.00  0.00    +0.000 HD
ATOM     24  H   UNL     1       6.785   6.670  17.423  0.00  0.00    +0.000 HD
ENDBRANCH   1  16
BRANCH   5  25
ATOM     25  C   UNL     1       0.208  11.824  19.059  0.00  0.00    +0.000 C 
ATOM     26  O   UNL     1      -0.473  12.049  18.055  0.00  0.00    +0.000 OA
ATOM     27  N   UNL     1       1.329  12.561  19.328  0.00  0.00    +0.000 N 
ATOM     28  H   UNL     1       1.891  12.334  20.148  0.00  0.00    +0.000 HD
BRANCH  27  29
ATOM     29  C   UNL     1       1.695  13.697  18.517  0.00  0.00    +0.000 C 
BRANCH  29  30
ATOM     30  C   UNL     1       1.152  15.010  19.022  0.00  0.00    +0.000 A 
ATOM     31  C   UNL     1      -0.136  15.462  18.702  0.00  0.00    +0.000 A 
ATOM     32  C   UNL     1      -0.626  16.655  19.239  0.00  0.00    +0.000 A 
ATOM     33  C   UNL     1       0.158  17.399  20.117  0.00  0.00    +0.000 A 
ATOM     34  C   UNL     1       1.430  16.950  20.464  0.00  0.00    +0.000 A 
ATOM     35  C   UNL     1       1.921  15.760  19.924  0.00  0.00    +0.000 A 
ENDBRANCH  29  30
ENDBRANCH  27  29
ENDBRANCH   5  25
TORSDOF 4
ENDMDL
MODEL 9
REMARK VINA RESULT:      -8.4      2.002      2.274
REMARK  Name = 
REMARK  4 active torsions:
REMARK  status: ('A' for Active; 'I' for Inactive)
REMARK    1  A    between atoms: C_6  and  N_7
REMARK    2  A    between atoms: C_11  and  C_12
REMARK    3  A    between atoms: N_14  and  C_15
REMARK    4  A    between atoms: C_15  and  C_16
REMARK                            x       y       z     vdW  Elec       q    Type
REMARK                         _______ _______ _______ _____ _____    ______ ____
ROOT
ATOM      1  N   UNL     1       2.320   7.533  19.334  0.00  0.00    +0.000 N 
ATOM      2  C   UNL     1       1.575   8.637  18.985  0.00  0.00    +0.000 C 
ATOM      3  O   UNL     1       1.406   9.019  17.833  0.00  0.00    +0.000 OA
ATOM      4  N   UNL     1       1.083   9.353  20.072  0.00  0.00    +0.000 N 
ATOM      5  C   UNL     1       0.163  10.524  19.931  0.00  0.00    +0.000 C 
ATOM      6  C   UNL     1      -0.121  10.951  21.400  0.00  0.00    +0.000 C 
ATOM      7  C   UNL     1       0.114   9.737  22.243  0.00  0.00    +0.000 C 
ATOM      8  C   UNL     1      -0.449   8.388  21.907  0.00  0.00    +0.000 C 
ATOM      9  C   UNL     1       0.917   8.795  21.404  0.00  0.00    +0.000 C 
ATOM     10  H   UNL     1       2.335   7.275  20.309  0.00  0.00    +0.000 HD
ENDROOT
BRANCH   1  16
ATOM     11  N   UNL     1       6.625   6.301  16.427  0.00  0.00    +0.000 N 
ATOM     12  C   UNL     1       5.459   5.730  16.008  0.00  0.00    +0.000 C 
ATOM     13  O   UNL     1       5.304   5.097  14.976  0.00  0.00    +0.000 OA
ATOM     14  N   UNL     1       4.439   5.833  16.970  0.00  0.00    +0.000 N 
ATOM     15  C   UNL     1       4.133   6.951  17.735  0.00  0.00    +0.000 A 
ATOM     16  C   UNL     1       3.025   6.679  18.501  0.00  0.00    +0.000 A 
ATOM     17  C   UNL     1       2.713   5.298  18.311  0.00  0.00    +0.000 A 
ATOM     18  C   UNL     1       1.766   4.419  18.884  0.00  0.00    +0.000 A 
ATOM     19  C   UNL     1       1.739   3.075  18.494  0.00  0.00    +0.000 A 
ATOM     20  C   UNL     1       2.621   2.601  17.531  0.00  0.00    +0.000 A 
ATOM     21  C   UNL     1       3.550   3.453  16.932  0.00  0.00    +0.000 A 
ATOM     22  C   UNL     1       3.582   4.799  17.338  0.00  0.00    +0.000 A 
ATOM     23  H   UNL     1       7.437   6.085  15.861  0.00  0.00    +0.000 HD
ATOM     24  H   UNL     1       6.791   6.437  17.417  0.00  0.00    +0.000 HD
ENDBRANCH   1  16
BRANCH   5  25
ATOM     25  C   UNL     1       0.547  11.802  19.156  0.00  0.00    +0.000 C 
ATOM     26  O   UNL     1       1.729  12.119  18.997  0.00  0.00    +0.000 OA
ATOM     27  N   UNL     1      -0.462  12.667  18.836  0.00  0.00    +0.000 N 
ATOM     28  H   UNL     1      -1.429  12.391  19.005  0.00  0.00    +0.000 HD
BRANCH  27  29
ATOM     29  C   UNL     1      -0.194  13.933  18.197  0.00  0.00    +0.000 C 
BRANCH  29  30
ATOM     30  C   UNL     1      -0.229  15.112  19.137  0.00  0.00    +0.000 A 
ATOM     31  C   UNL     1       0.494  16.289  18.892  0.00  0.00    +0.000 A 
ATOM     32  C   UNL     1       0.388  17.382  19.754  0.00  0.00    +0.000 A 
ATOM     33  C   UNL     1      -0.456  17.320  20.860  0.00  0.00    +0.000 A 
ATOM     34  C   UNL     1      -1.198  16.166  21.103  0.00  0.00    +0.000 A 
ATOM     35  C   UNL     1      -1.090  15.072  20.243  0.00  0.00    +0.000 A 
ENDBRANCH  29  30
ENDBRANCH  27  29
ENDBRANCH   5  25
TORSDOF 4
ENDMDL
