MODEL 1
REMARK VINA RESULT:      -8.5      0.000      0.000
REMARK  Name = 
REMARK  3 active torsions:
REMARK  status: ('A' for Active; 'I' for Inactive)
REMARK    1  A    between atoms: C_6  and  C_7
REMARK    2  A    between atoms: C_14  and  O_15
REMARK    3  A    between atoms: O_15  and  C_16
REMARK                            x       y       z     vdW  Elec       q    Type
REMARK                         _______ _______ _______ _____ _____    ______ ____
ROOT
ATOM      1  C   UNL     1       3.794   6.991  17.592  0.00  0.00    +0.000 A 
ATOM      2  C   UNL     1       5.021   7.519  17.183  0.00  0.00    +0.000 A 
ATOM      3  N   UNL     1       6.027   6.804  16.631  0.00  0.00    +0.000 NA
ATOM      4  C   UNL     1       5.796   5.487  16.456  0.00  0.00    +0.000 A 
ATOM      5  C   UNL     1       4.620   4.833  16.823  0.00  0.00    +0.000 A 
ATOM      6  C   UNL     1       4.453   3.457  16.596  0.00  0.00    +0.000 A 
ATOM      7  C   UNL     1       3.291   2.798  16.998  0.00  0.00    +0.000 A 
ATOM      8  C   UNL     1       2.295   3.502  17.663  0.00  0.00    +0.000 A 
ATOM      9  C   UNL     1       2.436   4.881  17.846  0.00  0.00    +0.000 A 
ATOM     10  C   UNL     1       3.591   5.591  17.429  0.00  0.00    +0.000 A 
ENDROOT
BRANCH   1  16
ATOM     11  C   UNL     1      -0.324  10.740  19.602  0.00  0.00    +0.000 A 
ATOM     12  C   UNL     1      -0.146   9.986  20.769  0.00  0.00    +0.000 A 
ATOM     13  C   UNL     1       0.763   8.921  20.821  0.00  0.00    +0.000 A 
ATOM     14  C   UNL     1       1.463   8.671  19.649  0.00  0.00    +0.000 A 
ATOM     15  O   UNL     1       2.401   7.706  19.428  0.00  0.00    +0.000 OA
ATOM     16  C   UNL     1       2.769   7.891  18.115  0.00  0.00    +0.000 A 
ATOM     17  N   UNL     1       2.146   8.888  17.514  0.00  0.00    +0.000 NA
ATOM     18  C   UNL     1       1.314   9.392  18.475  0.00  0.00    +0.000 A 
ATOM     19  C   UNL     1       0.404  10.453  18.438  0.00  0.00    +0.000 A 
ENDBRANCH   1  16
BRANCH   8  20
ATOM     20  O   UNL     1       1.150   2.959  18.178  0.00  0.00    +0.000 OA
BRANCH  20  21
ATOM     21  C   UNL     1       1.128   2.704  19.582  0.00  0.00    +0.000 C 
ATOM     22  C   UNL     1       2.465   2.209  20.117  0.00  0.00    +0.000 C 
ATOM     23  C   UNL     1       2.426   2.660  21.559  0.00  0.00    +0.000 C 
ATOM     24  N   UNL     1       1.874   4.018  21.495  0.00  0.00    +0.000 NA
ATOM     25  C   UNL     1       0.931   4.017  20.356  0.00  0.00    +0.000 C 
ATOM     26  H   UNL     1       2.635   4.661  21.267  0.00  0.00    +0.000 HD
ENDBRANCH  20  21
ENDBRANCH   8  20
TORSDOF 3
ENDMDL
MODEL 2
REMARK VINA RESULT:      -8.2      1.795      4.575
REMARK  Name = 
REMARK  3 active torsions:
REMARK  status: ('A' for Active; 'I' for Inactive)
REMARK    1  A    between atoms: C_6  and  C_7
REMARK    2  A    between atoms: C_14  and  O_15
REMARK    3  A    between atoms: O_15  and  C_16
REMARK                            x       y       z     vdW  Elec       q    Type
REMARK                         _______ _______ _______ _____ _____    ______ ____
ROOT
ATOM      1  C   UNL     1       2.324   5.180  20.208  0.00  0.00    +0.000 A 
ATOM      2  C   UNL     1       1.934   4.691  21.456  0.00  0.00    +0.000 A 
ATOM      3  N   UNL     1       2.179   3.440  21.910  0.00  0.00    +0.000 NA
ATOM      4  C   UNL     1       2.869   2.631  21.081  0.00  0.00    +0.000 A 
ATOM      5  C   UNL     1       3.314   2.992  19.809  0.00  0.00    +0.000 A 
ATOM      6  C   UNL     1       4.038   2.092  19.011  0.00  0.00    +0.000 A 
ATOM      7  C   UNL     1       4.449   2.441  17.724  0.00  0.00    +0.000 A 
ATOM      8  C   UNL     1       4.110   3.686  17.208  0.00  0.00    +0.000 A 
ATOM      9  C   UNL     1       3.433   4.603  18.017  0.00  0.00    +0.000 A 
ATOM     10  C   UNL     1       3.020   4.293  19.339  0.00  0.00    +0.000 A 
ENDROOT
BRANCH   1  16
ATOM     11  C   UNL     1       1.318  10.826  18.737  0.00  0.00    +0.000 A 
ATOM     12  C   UNL     1       0.799  10.858  20.038  0.00  0.00    +0.000 A 
ATOM     13  C   UNL     1       0.798   9.718  20.854  0.00  0.00    +0.000 A 
ATOM     14  C   UNL     1       1.337   8.573  20.285  0.00  0.00    +0.000 A 
ATOM     15  O   UNL     1       1.461   7.339  20.854  0.00  0.00    +0.000 OA
ATOM     16  C   UNL     1       2.049   6.576  19.872  0.00  0.00    +0.000 A 
ATOM     17  N   UNL     1       2.304   7.233  18.755  0.00  0.00    +0.000 NA
ATOM     18  C   UNL     1       1.858   8.501  19.003  0.00  0.00    +0.000 A 
ATOM     19  C   UNL     1       1.854   9.647  18.201  0.00  0.00    +0.000 A 
ENDBRANCH   1  16
BRANCH   8  20
ATOM     20  O   UNL     1       4.381   4.118  15.939  0.00  0.00    +0.000 OA
BRANCH  20  21
ATOM     21  C   UNL     1       5.720   3.960  15.471  0.00  0.00    +0.000 C 
ATOM     22  C   UNL     1       5.855   4.172  13.969  0.00  0.00    +0.000 C 
ATOM     23  C   UNL     1       7.287   4.635  13.832  0.00  0.00    +0.000 C 
ATOM     24  N   UNL     1       7.467   5.576  14.943  0.00  0.00    +0.000 NA
ATOM     25  C   UNL     1       6.614   5.075  16.041  0.00  0.00    +0.000 C 
ATOM     26  H   UNL     1       7.099   6.485  14.654  0.00  0.00    +0.000 HD
ENDBRANCH  20  21
ENDBRANCH   8  20
TORSDOF 3
ENDMDL
MODEL 3
REMARK VINA RESULT:      -8.1      0.710      1.203
REMARK  Name = 
REMARK  3 active torsions:
REMARK  status: ('A' for Active; 'I' for Inactive)
REMARK    1  A    between atoms: C_6  and  C_7
REMARK    2  A    between atoms: C_14  and  O_15
REMARK    3  A    between atoms: O_15  and  C_16
REMARK                            x       y       z     vdW  Elec       q    Type
REMARK                         _______ _______ _______ _____ _____    ______ ____
ROOT
ATOM      1  C   UNL     1       3.655   7.030  17.708  0.00  0.00    +0.000 A 
ATOM      2  C   UNL     1       4.859   7.591  17.277  0.00  0.00    +0.000 A 
ATOM      3  N   UNL     1       5.852   6.914  16.657  0.00  0.00    +0.000 NA
ATOM      4  C   UNL     1       5.630   5.603  16.434  0.00  0.00    +0.000 A 
ATOM      5  C   UNL     1       4.476   4.919  16.816  0.00  0.00    +0.000 A 
ATOM      6  C   UNL     1       4.317   3.551  16.536  0.00  0.00    +0.000 A 
ATOM      7  C   UNL     1       3.179   2.860  16.953  0.00  0.00    +0.000 A 
ATOM      8  C   UNL     1       2.201   3.522  17.684  0.00  0.00    +0.000 A 
ATOM      9  C   UNL     1       2.332   4.893  17.921  0.00  0.00    +0.000 A 
ATOM     10  C   UNL     1       3.462   5.636  17.493  0.00  0.00    +0.000 A 
ENDROOT
BRANCH   1  16
ATOM     11  C   UNL     1      -0.473  10.428  20.252  0.00  0.00    +0.000 A 
ATOM     12  C   UNL     1      -0.565  10.934  18.949  0.00  0.00    +0.000 A 
ATOM     13  C   UNL     1       0.242  10.443  17.913  0.00  0.00    +0.000 A 
ATOM     14  C   UNL     1       1.127   9.435  18.269  0.00  0.00    +0.000 A 
ATOM     15  O   UNL     1       2.015   8.784  17.464  0.00  0.00    +0.000 OA
ATOM     16  C   UNL     1       2.640   7.894  18.308  0.00  0.00    +0.000 A 
ATOM     17  N   UNL     1       2.209   7.936  19.555  0.00  0.00    +0.000 NA
ATOM     18  C   UNL     1       1.248   8.909  19.545  0.00  0.00    +0.000 A 
ATOM     19  C   UNL     1       0.436   9.408  20.569  0.00  0.00    +0.000 A 
ENDBRANCH   1  16
BRANCH   8  20
ATOM     20  O   UNL     1       1.082   2.942  18.218  0.00  0.00    +0.000 OA
BRANCH  20  21
ATOM     21  C   UNL     1       1.093   2.683  19.621  0.00  0.00    +0.000 C 
ATOM     22  C   UNL     1       2.437   2.171  20.121  0.00  0.00    +0.000 C 
ATOM     23  C   UNL     1       2.440   2.618  21.564  0.00  0.00    +0.000 C 
ATOM     24  N   UNL     1       1.903   3.983  21.517  0.00  0.00    +0.000 NA
ATOM     25  C   UNL     1       0.931   3.996  20.403  0.00  0.00    +0.000 C 
ATOM     26  H   UNL     1       2.665   4.618  21.272  0.00  0.00    +0.000 HD
ENDBRANCH  20  21
ENDBRANCH   8  20
TORSDOF 3
ENDMDL
MODEL 4
REMARK VINA RESULT:      -8.1      1.897      4.736
REMARK  Name = 
REMARK  3 active torsions:
REMARK  status: ('A' for Active; 'I' for Inactive)
REMARK    1  A    between atoms: C_6  and  C_7
REMARK    2  A    between atoms: C_14  and  O_15
REMARK    3  A    between atoms: O_15  and  C_16
REMARK                            x       y       z     vdW  Elec       q    Type
REMARK                         _______ _______ _______ _____ _____    ______ ____
ROOT
ATOM      1  C   UNL     1       2.301   5.082  20.345  0.00  0.00    +0.000 A 
ATOM      2  C   UNL     1       1.913   4.523  21.564  0.00  0.00    +0.000 A 
ATOM      3  N   UNL     1       2.168   3.252  21.951  0.00  0.00    +0.000 NA
ATOM      4  C   UNL     1       2.867   2.495  21.081  0.00  0.00    +0.000 A 
ATOM      5  C   UNL     1       3.310   2.927  19.832  0.00  0.00    +0.000 A 
ATOM      6  C   UNL     1       4.044   2.077  18.988  0.00  0.00    +0.000 A 
ATOM      7  C   UNL     1       4.454   2.499  17.723  0.00  0.00    +0.000 A 
ATOM      8  C   UNL     1       4.106   3.767  17.274  0.00  0.00    +0.000 A 
ATOM      9  C   UNL     1       3.418   4.633  18.129  0.00  0.00    +0.000 A 
ATOM     10  C   UNL     1       3.006   4.249  19.431  0.00  0.00    +0.000 A 
ENDROOT
BRANCH   1  16
ATOM     11  C   UNL     1       1.032  10.787  19.395  0.00  0.00    +0.000 A 
ATOM     12  C   UNL     1       1.655  10.509  18.172  0.00  0.00    +0.000 A 
ATOM     13  C   UNL     1       2.162   9.235  17.881  0.00  0.00    +0.000 A 
ATOM     14  C   UNL     1       2.006   8.285  18.880  0.00  0.00    +0.000 A 
ATOM     15  O   UNL     1       2.402   6.979  18.857  0.00  0.00    +0.000 OA
ATOM     16  C   UNL     1       2.015   6.492  20.084  0.00  0.00    +0.000 A 
ATOM     17  N   UNL     1       1.411   7.378  20.854  0.00  0.00    +0.000 NA
ATOM     18  C   UNL     1       1.398   8.521  20.102  0.00  0.00    +0.000 A 
ATOM     19  C   UNL     1       0.895   9.796  20.379  0.00  0.00    +0.000 A 
ENDBRANCH   1  16
BRANCH   8  20
ATOM     20  O   UNL     1       4.374   4.268  16.029  0.00  0.00    +0.000 OA
BRANCH  20  21
ATOM     21  C   UNL     1       5.660   3.985  15.480  0.00  0.00    +0.000 C 
ATOM     22  C   UNL     1       5.713   4.163  13.968  0.00  0.00    +0.000 C 
ATOM     23  C   UNL     1       7.169   4.492  13.729  0.00  0.00    +0.000 C 
ATOM     24  N   UNL     1       7.505   5.430  14.807  0.00  0.00    +0.000 NA
ATOM     25  C   UNL     1       6.685   5.022  15.968  0.00  0.00    +0.000 C 
ATOM     26  H   UNL     1       7.200   6.364  14.524  0.00  0.00    +0.000 HD
ENDBRANCH  20  21
ENDBRANCH   8  20
TORSDOF 3
ENDMDL
MODEL 5
REMARK VINA RESULT:      -7.7      2.050      6.823
REMARK  Name = 
REMARK  3 active torsions:
REMARK  status: ('A' for Active; 'I' for Inactive)
REMARK    1  A    between atoms: C_6  and  C_7
REMARK    2  A    between atoms: C_14  and  O_15
REMARK    3  A    between atoms: O_15  and  C_16
REMARK                            x       y       z     vdW  Elec       q    Type
REMARK                         _______ _______ _______ _____ _____    ______ ____
ROOT
ATOM      1  C   UNL     1       4.235   3.841  18.886  0.00  0.00    +0.000 A 
ATOM      2  C   UNL     1       4.320   2.585  19.492  0.00  0.00    +0.000 A 
ATOM      3  N   UNL     1       3.600   2.192  20.567  0.00  0.00    +0.000 NA
ATOM      4  C   UNL     1       2.729   3.095  21.062  0.00  0.00    +0.000 A 
ATOM      5  C   UNL     1       2.549   4.383  20.556  0.00  0.00    +0.000 A 
ATOM      6  C   UNL     1       1.610   5.260  21.123  0.00  0.00    +0.000 A 
ATOM      7  C   UNL     1       1.458   6.560  20.640  0.00  0.00    +0.000 A 
ATOM      8  C   UNL     1       2.268   7.008  19.604  0.00  0.00    +0.000 A 
ATOM      9  C   UNL     1       3.168   6.123  19.005  0.00  0.00    +0.000 A 
ATOM     10  C   UNL     1       3.334   4.786  19.452  0.00  0.00    +0.000 A 
ENDROOT
BRANCH   1  16
ATOM     11  C   UNL     1       7.518   5.036  14.106  0.00  0.00    +0.000 A 
ATOM     12  C   UNL     1       6.437   4.418  13.463  0.00  0.00    +0.000 A 
ATOM     13  C   UNL     1       5.340   3.927  14.184  0.00  0.00    +0.000 A 
ATOM     14  C   UNL     1       5.402   4.095  15.560  0.00  0.00    +0.000 A 
ATOM     15  O   UNL     1       4.477   3.716  16.489  0.00  0.00    +0.000 OA
ATOM     16  C   UNL     1       5.027   4.109  17.687  0.00  0.00    +0.000 A 
ATOM     17  N   UNL     1       6.202   4.701  17.577  0.00  0.00    +0.000 NA
ATOM     18  C   UNL     1       6.453   4.699  16.232  0.00  0.00    +0.000 A 
ATOM     19  C   UNL     1       7.541   5.185  15.501  0.00  0.00    +0.000 A 
ENDBRANCH   1  16
BRANCH   8  20
ATOM     20  O   UNL     1       2.275   8.279  19.097  0.00  0.00    +0.000 OA
BRANCH  20  21
ATOM     21  C   UNL     1       1.057   9.017  19.180  0.00  0.00    +0.000 C 
ATOM     22  C   UNL     1       1.115  10.149  20.198  0.00  0.00    +0.000 C 
ATOM     23  C   UNL     1       0.107  11.132  19.651  0.00  0.00    +0.000 C 
ATOM     24  N   UNL     1       0.364  11.142  18.207  0.00  0.00    +0.000 NA
ATOM     25  C   UNL     1       0.805   9.773  17.865  0.00  0.00    +0.000 C 
ATOM     26  H   UNL     1       1.146  11.775  18.026  0.00  0.00    +0.000 HD
ENDBRANCH  20  21
ENDBRANCH   8  20
TORSDOF 3
ENDMDL
MODEL 6
REMARK VINA RESULT:      -7.7      2.082      4.656
REMARK  Name = 
REMARK  3 active torsions:
REMARK  status: ('A' for Active; 'I' for Inactive)
REMARK    1  A    between atoms: C_6  and  C_7
REMARK    2  A    between atoms: C_14  and  O_15
REMARK    3  A    between atoms: O_15  and  C_16
REMARK                            x       y       z     vdW  Elec       q    Type
REMARK                         _______ _______ _______ _____ _____    ______ ____
ROOT
ATOM      1  C   UNL     1       2.286   5.182  18.688  0.00  0.00    +0.000 A 
ATOM      2  C   UNL     1       1.484   4.060  18.910  0.00  0.00    +0.000 A 
ATOM      3  N   UNL     1       1.707   2.832  18.389  0.00  0.00    +0.000 NA
ATOM      4  C   UNL     1       2.804   2.705  17.614  0.00  0.00    +0.000 A 
ATOM      5  C   UNL     1       3.684   3.743  17.309  0.00  0.00    +0.000 A 
ATOM      6  C   UNL     1       4.812   3.524  16.502  0.00  0.00    +0.000 A 
ATOM      7  C   UNL     1       5.670   4.572  16.167  0.00  0.00    +0.000 A 
ATOM      8  C   UNL     1       5.391   5.859  16.609  0.00  0.00    +0.000 A 
ATOM      9  C   UNL     1       4.297   6.072  17.454  0.00  0.00    +0.000 A 
ATOM     10  C   UNL     1       3.416   5.028  17.837  0.00  0.00    +0.000 A 
ENDROOT
BRANCH   1  16
ATOM     11  C   UNL     1       0.920  10.177  21.559  0.00  0.00    +0.000 A 
ATOM     12  C   UNL     1       0.980  10.697  20.260  0.00  0.00    +0.000 A 
ATOM     13  C   UNL     1       1.284   9.885  19.159  0.00  0.00    +0.000 A 
ATOM     14  C   UNL     1       1.520   8.548  19.447  0.00  0.00    +0.000 A 
ATOM     15  O   UNL     1       1.830   7.549  18.571  0.00  0.00    +0.000 OA
ATOM     16  C   UNL     1       1.962   6.435  19.368  0.00  0.00    +0.000 A 
ATOM     17  N   UNL     1       1.753   6.659  20.652  0.00  0.00    +0.000 NA
ATOM     18  C   UNL     1       1.471   7.996  20.717  0.00  0.00    +0.000 A 
ATOM     19  C   UNL     1       1.165   8.818  21.807  0.00  0.00    +0.000 A 
ENDBRANCH   1  16
BRANCH   8  20
ATOM     20  O   UNL     1       6.103   6.981  16.285  0.00  0.00    +0.000 OA
BRANCH  20  21
ATOM     21  C   UNL     1       7.392   7.125  16.880  0.00  0.00    +0.000 C 
ATOM     22  C   UNL     1       7.566   8.450  17.610  0.00  0.00    +0.000 C 
ATOM     23  C   UNL     1       8.601   8.112  18.658  0.00  0.00    +0.000 C 
ATOM     24  N   UNL     1       8.185   6.799  19.162  0.00  0.00    +0.000 NA
ATOM     25  C   UNL     1       7.570   6.101  18.013  0.00  0.00    +0.000 C 
ATOM     26  H   UNL     1       7.456   6.943  19.864  0.00  0.00    +0.000 HD
ENDBRANCH  20  21
ENDBRANCH   8  20
TORSDOF 3
ENDMDL
MODEL 7
REMARK VINA RESULT:      -7.6      1.622      4.282
REMARK  Name = 
REMARK  3 active torsions:
REMARK  status: ('A' for Active; 'I' for Inactive)
REMARK    1  A    between atoms: C_6  and  C_7
REMARK    2  A    between atoms: C_14  and  O_15
REMARK    3  A    between atoms: O_15  and  C_16
REMARK                            x       y       z     vdW  Elec       q    Type
REMARK                         _______ _______ _______ _____ _____    ______ ____
ROOT
ATOM      1  C   UNL     1       2.303   5.176  20.189  0.00  0.00    +0.000 A 
ATOM      2  C   UNL     1       1.938   4.689  21.446  0.00  0.00    +0.000 A 
ATOM      3  N   UNL     1       2.182   3.435  21.892  0.00  0.00    +0.000 NA
ATOM      4  C   UNL     1       2.844   2.621  21.046  0.00  0.00    +0.000 A 
ATOM      5  C   UNL     1       3.261   2.979  19.764  0.00  0.00    +0.000 A 
ATOM      6  C   UNL     1       3.958   2.073  18.948  0.00  0.00    +0.000 A 
ATOM      7  C   UNL     1       4.341   2.420  17.652  0.00  0.00    +0.000 A 
ATOM      8  C   UNL     1       4.002   3.668  17.146  0.00  0.00    +0.000 A 
ATOM      9  C   UNL     1       3.352   4.591  17.972  0.00  0.00    +0.000 A 
ATOM     10  C   UNL     1       2.969   4.283  19.303  0.00  0.00    +0.000 A 
ENDROOT
BRANCH   1  16
ATOM     11  C   UNL     1       1.318  10.834  18.751  0.00  0.00    +0.000 A 
ATOM     12  C   UNL     1       0.802  10.861  20.053  0.00  0.00    +0.000 A 
ATOM     13  C   UNL     1       0.797   9.717  20.862  0.00  0.00    +0.000 A 
ATOM     14  C   UNL     1       1.331   8.572  20.287  0.00  0.00    +0.000 A 
ATOM     15  O   UNL     1       1.450   7.335  20.848  0.00  0.00    +0.000 OA
ATOM     16  C   UNL     1       2.033   6.575  19.861  0.00  0.00    +0.000 A 
ATOM     17  N   UNL     1       2.289   7.236  18.748  0.00  0.00    +0.000 NA
ATOM     18  C   UNL     1       1.849   8.506  19.003  0.00  0.00    +0.000 A 
ATOM     19  C   UNL     1       1.848   9.656  18.207  0.00  0.00    +0.000 A 
ENDBRANCH   1  16
BRANCH   8  20
ATOM     20  O   UNL     1       4.245   4.099  15.870  0.00  0.00    +0.000 OA
BRANCH  20  21
ATOM     21  C   UNL     1       5.407   4.902  15.668  0.00  0.00    +0.000 C 
ATOM     22  C   UNL     1       5.723   5.802  16.855  0.00  0.00    +0.000 C 
ATOM     23  C   UNL     1       7.219   5.985  16.736  0.00  0.00    +0.000 C 
ATOM     24  N   UNL     1       7.718   4.647  16.401  0.00  0.00    +0.000 NA
ATOM     25  C   UNL     1       6.659   4.012  15.589  0.00  0.00    +0.000 C 
ATOM     26  H   UNL     1       7.808   4.113  17.268  0.00  0.00    +0.000 HD
ENDBRANCH  20  21
ENDBRANCH   8  20
TORSDOF 3
ENDMDL
MODEL 8
REMARK VINA RESULT:      -7.6      2.475      5.064
REMARK  Name = 
REMARK  3 active torsions:
REMARK  status: ('A' for Active; 'I' for Inactive)
REMARK    1  A    between atoms: C_6  and  C_7
REMARK    2  A    between atoms: C_14  and  O_15
REMARK    3  A    between atoms: O_15  and  C_16
REMARK                            x       y       z     vdW  Elec       q    Type
REMARK                         _______ _______ _______ _____ _____    ______ ____
ROOT
ATOM      1  C   UNL     1       3.134   5.792  18.033  0.00  0.00    +0.000 A 
ATOM      2  C   UNL     1       2.391   4.612  18.106  0.00  0.00    +0.000 A 
ATOM      3  N   UNL     1       2.861   3.380  17.807  0.00  0.00    +0.000 NA
ATOM      4  C   UNL     1       4.154   3.312  17.428  0.00  0.00    +0.000 A 
ATOM      5  C   UNL     1       5.004   4.412  17.310  0.00  0.00    +0.000 A 
ATOM      6  C   UNL     1       6.344   4.254  16.920  0.00  0.00    +0.000 A 
ATOM      7  C   UNL     1       7.182   5.359  16.765  0.00  0.00    +0.000 A 
ATOM      8  C   UNL     1       6.679   6.638  16.967  0.00  0.00    +0.000 A 
ATOM      9  C   UNL     1       5.360   6.796  17.403  0.00  0.00    +0.000 A 
ATOM     10  C   UNL     1       4.485   5.696  17.596  0.00  0.00    +0.000 A 
ENDROOT
BRANCH   1  16
ATOM     11  C   UNL     1       0.697  10.957  19.597  0.00  0.00    +0.000 A 
ATOM     12  C   UNL     1       0.641  10.318  20.843  0.00  0.00    +0.000 A 
ATOM     13  C   UNL     1       1.114   9.011  21.017  0.00  0.00    +0.000 A 
ATOM     14  C   UNL     1       1.633   8.404  19.882  0.00  0.00    +0.000 A 
ATOM     15  O   UNL     1       2.158   7.150  19.774  0.00  0.00    +0.000 OA
ATOM     16  C   UNL     1       2.516   7.050  18.449  0.00  0.00    +0.000 A 
ATOM     17  N   UNL     1       2.265   8.133  17.737  0.00  0.00    +0.000 NA
ATOM     18  C   UNL     1       1.704   9.001  18.634  0.00  0.00    +0.000 A 
ATOM     19  C   UNL     1       1.229  10.307  18.474  0.00  0.00    +0.000 A 
ENDBRANCH   1  16
BRANCH   8  20
ATOM     20  O   UNL     1       7.370   7.802  16.769  0.00  0.00    +0.000 OA
BRANCH  20  21
ATOM     21  C   UNL     1       7.519   8.667  17.895  0.00  0.00    +0.000 C 
ATOM     22  C   UNL     1       8.734   8.329  18.748  0.00  0.00    +0.000 C 
ATOM     23  C   UNL     1       9.072   9.661  19.376  0.00  0.00    +0.000 C 
ATOM     24  N   UNL     1       8.922  10.623  18.279  0.00  0.00    +0.000 NA
ATOM     25  C   UNL     1       7.836  10.096  17.425  0.00  0.00    +0.000 C 
ATOM     26  H   UNL     1       9.783  10.614  17.727  0.00  0.00    +0.000 HD
ENDBRANCH  20  21
ENDBRANCH   8  20
TORSDOF 3
ENDMDL
MODEL 9
REMARK VINA RESULT:      -7.6      2.015      4.609
REMARK  Name = 
REMARK  3 active torsions:
REMARK  status: ('A' for Active; 'I' for Inactive)
REMARK    1  A    between atoms: C_6  and  C_7
REMARK    2  A    between atoms: C_14  and  O_15
REMARK    3  A    between atoms: O_15  and  C_16
REMARK                            x       y       z     vdW  Elec       q    Type
REMARK                         _______ _______ _______ _____ _____    ______ ____
ROOT
ATOM      1  C   UNL     1       2.016   5.620  20.077  0.00  0.00    +0.000 A 
ATOM      2  C   UNL     1       1.052   4.715  20.524  0.00  0.00    +0.000 A 
ATOM      3  N   UNL     1       1.223   3.376  20.605  0.00  0.00    +0.000 NA
ATOM      4  C   UNL     1       2.433   2.907  20.236  0.00  0.00    +0.000 A 
ATOM      5  C   UNL     1       3.480   3.699  19.767  0.00  0.00    +0.000 A 
ATOM      6  C   UNL     1       4.716   3.133  19.414  0.00  0.00    +0.000 A 
ATOM      7  C   UNL     1       5.750   3.923  18.909  0.00  0.00    +0.000 A 
ATOM      8  C   UNL     1       5.548   5.284  18.722  0.00  0.00    +0.000 A 
ATOM      9  C   UNL     1       4.337   5.859  19.119  0.00  0.00    +0.000 A 
ATOM     10  C   UNL     1       3.271   5.094  19.659  0.00  0.00    +0.000 A 
ENDROOT
BRANCH   1  16
ATOM     11  C   UNL     1       0.721  11.393  20.305  0.00  0.00    +0.000 A 
ATOM     12  C   UNL     1       1.091  11.319  18.956  0.00  0.00    +0.000 A 
ATOM     13  C   UNL     1       1.503  10.112  18.374  0.00  0.00    +0.000 A 
ATOM     14  C   UNL     1       1.520   9.013  19.222  0.00  0.00    +0.000 A 
ATOM     15  O   UNL     1       1.874   7.731  18.917  0.00  0.00    +0.000 OA
ATOM     16  C   UNL     1       1.718   7.050  20.102  0.00  0.00    +0.000 A 
ATOM     17  N   UNL     1       1.294   7.798  21.104  0.00  0.00    +0.000 NA
ATOM     18  C   UNL     1       1.163   9.046  20.560  0.00  0.00    +0.000 A 
ATOM     19  C   UNL     1       0.752  10.257  21.127  0.00  0.00    +0.000 A 
ENDBRANCH   1  16
BRANCH   8  20
ATOM     20  O   UNL     1       6.448   6.150  18.162  0.00  0.00    +0.000 OA
BRANCH  20  21
ATOM     21  C   UNL     1       6.694   6.015  16.763  0.00  0.00    +0.000 C 
ATOM     22  C   UNL     1       7.237   4.644  16.383  0.00  0.00    +0.000 C 
ATOM     23  C   UNL     1       6.775   4.496  14.952  0.00  0.00    +0.000 C 
ATOM     24  N   UNL     1       5.397   4.999  14.966  0.00  0.00    +0.000 NA
ATOM     25  C   UNL     1       5.368   6.069  15.985  0.00  0.00    +0.000 C 
ATOM     26  H   UNL     1       4.786   4.246  15.289  0.00  0.00    +0.000 HD
ENDBRANCH  20  21
ENDBRANCH   8  20
TORSDOF 3
ENDMDL
