MODEL 1
REMARK VINA RESULT:      -8.6      0.000      0.000
REMARK  Name = 
REMARK  5 active torsions:
REMARK  status: ('A' for Active; 'I' for Inactive)
REMARK    1  A    between atoms: C_1  and  C_2
REMARK    2  A    between atoms: C_6  and  N_7
REMARK    3  A    between atoms: C_8  and  C_10
REMARK    4  A    between atoms: C_11  and  C_12
REMARK    5  A    between atoms: C_22  and  C_23
REMARK                            x       y       z     vdW  Elec       q    Type
REMARK                         _______ _______ _______ _____ _____    ______ ____
ROOT
ATOM      1  C   UNL     1       3.276   4.006  19.821  0.00  0.00    +0.000 A 
ATOM      2  C   UNL     1       4.488   3.602  19.159  0.00  0.00    +0.000 A 
ATOM      3  N   UNL     1       5.015   2.539  19.788  0.00  0.00    +0.000 NA
ATOM      4  O   UNL     1       4.156   2.216  20.814  0.00  0.00    +0.000 OA
ATOM      5  C   UNL     1       3.126   3.098  20.847  0.00  0.00    +0.000 A 
ATOM      6  C   UNL     1       2.110   2.874  21.892  0.00  0.00    +0.000 C 
ENDROOT
BRANCH   2   7
ATOM      7  C   UNL     1       5.155   4.212  17.994  0.00  0.00    +0.000 A 
ATOM      8  C   UNL     1       4.678   4.000  16.681  0.00  0.00    +0.000 A 
ATOM      9 CL   UNL     1       3.156   3.240  16.331  0.00  0.00    +0.000 Cl
ATOM     10  C   UNL     1       5.374   4.481  15.563  0.00  0.00    +0.000 A 
ATOM     11  C   UNL     1       6.510   5.264  15.724  0.00  0.00    +0.000 A 
ATOM     12  C   UNL     1       6.954   5.561  17.008  0.00  0.00    +0.000 A 
ATOM     13  C   UNL     1       6.300   5.028  18.132  0.00  0.00    +0.000 A 
ATOM     14 CL   UNL     1       7.010   5.431  19.662  0.00  0.00    +0.000 Cl
ENDBRANCH   2   7
BRANCH   1  16
ATOM     15  N   UNL     1       2.778   6.346  19.857  0.00  0.00    +0.000 N 
ATOM     16  C   UNL     1       2.374   5.080  19.447  0.00  0.00    +0.000 C 
ATOM     17  O   UNL     1       1.393   4.815  18.763  0.00  0.00    +0.000 OA
ATOM     18  H   UNL     1       3.667   6.418  20.328  0.00  0.00    +0.000 HD
BRANCH  15  24
ATOM     19  C   UNL     1       0.036  10.273  21.129  0.00  0.00    +0.000 C 
ATOM     20  C   UNL     1       0.838   9.522  20.107  0.00  0.00    +0.000 A 
ATOM     21  C   UNL     1       1.030  10.064  18.833  0.00  0.00    +0.000 A 
ATOM     22  C   UNL     1       1.772   9.370  17.884  0.00  0.00    +0.000 A 
ATOM     23  C   UNL     1       2.338   8.138  18.202  0.00  0.00    +0.000 A 
ATOM     24  C   UNL     1       2.179   7.575  19.469  0.00  0.00    +0.000 A 
ATOM     25  C   UNL     1       1.414   8.273  20.418  0.00  0.00    +0.000 A 
ENDBRANCH  15  24
ENDBRANCH   1  16
TORSDOF 3
ENDMDL
MODEL 2
REMARK VINA RESULT:      -8.2      0.196      1.887
REMARK  Name = 
REMARK  5 active torsions:
REMARK  status: ('A' for Active; 'I' for Inactive)
REMARK    1  A    between atoms: C_1  and  C_2
REMARK    2  A    between atoms: C_6  and  N_7
REMARK    3  A    between atoms: C_8  and  C_10
REMARK    4  A    between atoms: C_11  and  C_12
REMARK    5  A    between atoms: C_22  and  C_23
REMARK                            x       y       z     vdW  Elec       q    Type
REMARK                         _______ _______ _______ _____ _____    ______ ____
ROOT
ATOM      1  C   UNL     1       3.291   4.077  19.837  0.00  0.00    +0.000 A 
ATOM      2  C   UNL     1       4.525   3.715  19.192  0.00  0.00    +0.000 A 
ATOM      3  N   UNL     1       5.063   2.651  19.810  0.00  0.00    +0.000 NA
ATOM      4  O   UNL     1       4.190   2.285  20.809  0.00  0.00    +0.000 OA
ATOM      5  C   UNL     1       3.139   3.143  20.839  0.00  0.00    +0.000 A 
ATOM      6  C   UNL     1       2.106   2.872  21.856  0.00  0.00    +0.000 C 
ENDROOT
BRANCH   2   7
ATOM      7  C   UNL     1       5.203   4.366  18.056  0.00  0.00    +0.000 A 
ATOM      8  C   UNL     1       6.325   5.202  18.252  0.00  0.00    +0.000 A 
ATOM      9 CL   UNL     1       7.156   5.341  19.771  0.00  0.00    +0.000 Cl
ATOM     10  C   UNL     1       6.902   5.914  17.190  0.00  0.00    +0.000 A 
ATOM     11  C   UNL     1       6.438   5.741  15.892  0.00  0.00    +0.000 A 
ATOM     12  C   UNL     1       5.391   4.858  15.658  0.00  0.00    +0.000 A 
ATOM     13  C   UNL     1       4.764   4.191  16.725  0.00  0.00    +0.000 A 
ATOM     14 CL   UNL     1       3.429   3.176  16.283  0.00  0.00    +0.000 Cl
ENDBRANCH   2   7
BRANCH   1  16
ATOM     15  N   UNL     1       2.759   6.409  19.879  0.00  0.00    +0.000 N 
ATOM     16  C   UNL     1       2.372   5.138  19.467  0.00  0.00    +0.000 C 
ATOM     17  O   UNL     1       1.394   4.861  18.783  0.00  0.00    +0.000 OA
ATOM     18  H   UNL     1       3.647   6.493  20.350  0.00  0.00    +0.000 HD
BRANCH  15  24
ATOM     19  C   UNL     1      -0.026  10.300  21.169  0.00  0.00    +0.000 C 
ATOM     20  C   UNL     1       0.779   9.560  20.142  0.00  0.00    +0.000 A 
ATOM     21  C   UNL     1       0.956  10.104  18.867  0.00  0.00    +0.000 A 
ATOM     22  C   UNL     1       1.701   9.420  17.914  0.00  0.00    +0.000 A 
ATOM     23  C   UNL     1       2.284   8.195  18.227  0.00  0.00    +0.000 A 
ATOM     24  C   UNL     1       2.141   7.630  19.496  0.00  0.00    +0.000 A 
ATOM     25  C   UNL     1       1.373   8.319  20.450  0.00  0.00    +0.000 A 
ENDBRANCH  15  24
ENDBRANCH   1  16
TORSDOF 3
ENDMDL
MODEL 3
REMARK VINA RESULT:      -7.9      0.517      1.378
REMARK  Name = 
REMARK  5 active torsions:
REMARK  status: ('A' for Active; 'I' for Inactive)
REMARK    1  A    between atoms: C_1  and  C_2
REMARK    2  A    between atoms: C_6  and  N_7
REMARK    3  A    between atoms: C_8  and  C_10
REMARK    4  A    between atoms: C_11  and  C_12
REMARK    5  A    between atoms: C_22  and  C_23
REMARK                            x       y       z     vdW  Elec       q    Type
REMARK                         _______ _______ _______ _____ _____    ______ ____
ROOT
ATOM      1  C   UNL     1       3.225   3.938  19.906  0.00  0.00    +0.000 A 
ATOM      2  C   UNL     1       4.402   3.552  19.175  0.00  0.00    +0.000 A 
ATOM      3  N   UNL     1       4.937   2.450  19.727  0.00  0.00    +0.000 NA
ATOM      4  O   UNL     1       4.114   2.087  20.769  0.00  0.00    +0.000 OA
ATOM      5  C   UNL     1       3.101   2.981  20.889  0.00  0.00    +0.000 A 
ATOM      6  C   UNL     1       2.124   2.717  21.962  0.00  0.00    +0.000 C 
ENDROOT
BRANCH   2   7
ATOM      7  C   UNL     1       5.033   4.211  18.016  0.00  0.00    +0.000 A 
ATOM      8  C   UNL     1       4.545   4.014  16.705  0.00  0.00    +0.000 A 
ATOM      9 CL   UNL     1       3.045   3.211  16.357  0.00  0.00    +0.000 Cl
ATOM     10  C   UNL     1       5.210   4.546  15.590  0.00  0.00    +0.000 A 
ATOM     11  C   UNL     1       6.320   5.363  15.755  0.00  0.00    +0.000 A 
ATOM     12  C   UNL     1       6.771   5.644  17.040  0.00  0.00    +0.000 A 
ATOM     13  C   UNL     1       6.151   5.062  18.160  0.00  0.00    +0.000 A 
ATOM     14 CL   UNL     1       6.869   5.453  19.690  0.00  0.00    +0.000 Cl
ENDBRANCH   2   7
BRANCH   1  16
ATOM     15  N   UNL     1       2.435   6.117  20.502  0.00  0.00    +0.000 N 
ATOM     16  C   UNL     1       2.326   5.043  19.624  0.00  0.00    +0.000 C 
ATOM     17  O   UNL     1       1.612   4.984  18.631  0.00  0.00    +0.000 OA
ATOM     18  H   UNL     1       3.145   6.060  21.216  0.00  0.00    +0.000 HD
BRANCH  15  24
ATOM     19  C   UNL     1       1.746  10.152  17.710  0.00  0.00    +0.000 C 
ATOM     20  C   UNL     1       1.457   9.368  18.955  0.00  0.00    +0.000 A 
ATOM     21  C   UNL     1       0.546   9.857  19.895  0.00  0.00    +0.000 A 
ATOM     22  C   UNL     1       0.278   9.132  21.050  0.00  0.00    +0.000 A 
ATOM     23  C   UNL     1       0.906   7.909  21.272  0.00  0.00    +0.000 A 
ATOM     24  C   UNL     1       1.809   7.383  20.346  0.00  0.00    +0.000 A 
ATOM     25  C   UNL     1       2.089   8.128  19.188  0.00  0.00    +0.000 A 
ENDBRANCH  15  24
ENDBRANCH   1  16
TORSDOF 3
ENDMDL
MODEL 4
REMARK VINA RESULT:      -7.6      0.581      2.342
REMARK  Name = 
REMARK  5 active torsions:
REMARK  status: ('A' for Active; 'I' for Inactive)
REMARK    1  A    between atoms: C_1  and  C_2
REMARK    2  A    between atoms: C_6  and  N_7
REMARK    3  A    between atoms: C_8  and  C_10
REMARK    4  A    between atoms: C_11  and  C_12
REMARK    5  A    between atoms: C_22  and  C_23
REMARK                            x       y       z     vdW  Elec       q    Type
REMARK                         _______ _______ _______ _____ _____    ______ ____
ROOT
ATOM      1  C   UNL     1       3.230   4.032  19.915  0.00  0.00    +0.000 A 
ATOM      2  C   UNL     1       4.434   3.715  19.193  0.00  0.00    +0.000 A 
ATOM      3  N   UNL     1       4.997   2.612  19.713  0.00  0.00    +0.000 NA
ATOM      4  O   UNL     1       4.169   2.180  20.724  0.00  0.00    +0.000 OA
ATOM      5  C   UNL     1       3.122   3.033  20.858  0.00  0.00    +0.000 A 
ATOM      6  C   UNL     1       2.136   2.693  21.901  0.00  0.00    +0.000 C 
ENDROOT
BRANCH   2   7
ATOM      7  C   UNL     1       5.061   4.441  18.073  0.00  0.00    +0.000 A 
ATOM      8  C   UNL     1       6.160   5.304  18.283  0.00  0.00    +0.000 A 
ATOM      9 CL   UNL     1       7.025   5.399  19.786  0.00  0.00    +0.000 Cl
ATOM     10  C   UNL     1       6.686   6.085  17.243  0.00  0.00    +0.000 A 
ATOM     11  C   UNL     1       6.195   5.958  15.950  0.00  0.00    +0.000 A 
ATOM     12  C   UNL     1       5.171   5.052  15.698  0.00  0.00    +0.000 A 
ATOM     13  C   UNL     1       4.594   4.314  16.747  0.00  0.00    +0.000 A 
ATOM     14 CL   UNL     1       3.281   3.278  16.288  0.00  0.00    +0.000 Cl
ENDBRANCH   2   7
BRANCH   1  16
ATOM     15  N   UNL     1       2.412   6.195  20.528  0.00  0.00    +0.000 N 
ATOM     16  C   UNL     1       2.298   5.114  19.659  0.00  0.00    +0.000 C 
ATOM     17  O   UNL     1       1.553   5.034  18.690  0.00  0.00    +0.000 OA
ATOM     18  H   UNL     1       3.146   6.158  21.218  0.00  0.00    +0.000 HD
BRANCH  15  24
ATOM     19  C   UNL     1       1.645  10.262  17.802  0.00  0.00    +0.000 C 
ATOM     20  C   UNL     1       1.363   9.446  19.029  0.00  0.00    +0.000 A 
ATOM     21  C   UNL     1       0.427   9.892  19.966  0.00  0.00    +0.000 A 
ATOM     22  C   UNL     1       0.164   9.138  21.104  0.00  0.00    +0.000 A 
ATOM     23  C   UNL     1       0.823   7.929  21.310  0.00  0.00    +0.000 A 
ATOM     24  C   UNL     1       1.752   7.446  20.387  0.00  0.00    +0.000 A 
ATOM     25  C   UNL     1       2.026   8.220  19.247  0.00  0.00    +0.000 A 
ENDBRANCH  15  24
ENDBRANCH   1  16
TORSDOF 3
ENDMDL
MODEL 5
REMARK VINA RESULT:      -7.6      3.411      6.656
REMARK  Name = 
REMARK  5 active torsions:
REMARK  status: ('A' for Active; 'I' for Inactive)
REMARK    1  A    between atoms: C_1  and  C_2
REMARK    2  A    between atoms: C_6  and  N_7
REMARK    3  A    between atoms: C_8  and  C_10
REMARK    4  A    between atoms: C_11  and  C_12
REMARK    5  A    between atoms: C_22  and  C_23
REMARK                            x       y       z     vdW  Elec       q    Type
REMARK                         _______ _______ _______ _____ _____    ______ ____
ROOT
ATOM      1  C   UNL     1       6.040   5.317  17.972  0.00  0.00    +0.000 A 
ATOM      2  C   UNL     1       5.038   4.770  18.849  0.00  0.00    +0.000 A 
ATOM      3  N   UNL     1       5.466   4.835  20.121  0.00  0.00    +0.000 NA
ATOM      4  O   UNL     1       6.698   5.448  20.097  0.00  0.00    +0.000 OA
ATOM      5  C   UNL     1       7.051   5.723  18.816  0.00  0.00    +0.000 A 
ATOM      6  C   UNL     1       8.350   6.395  18.630  0.00  0.00    +0.000 C 
ENDROOT
BRANCH   2   7
ATOM      7  C   UNL     1       3.735   4.171  18.508  0.00  0.00    +0.000 A 
ATOM      8  C   UNL     1       3.539   2.772  18.545  0.00  0.00    +0.000 A 
ATOM      9 CL   UNL     1       4.692   1.666  19.224  0.00  0.00    +0.000 Cl
ATOM     10  C   UNL     1       2.339   2.190  18.111  0.00  0.00    +0.000 A 
ATOM     11  C   UNL     1       1.271   2.987  17.718  0.00  0.00    +0.000 A 
ATOM     12  C   UNL     1       1.407   4.370  17.754  0.00  0.00    +0.000 A 
ATOM     13  C   UNL     1       2.629   4.960  18.124  0.00  0.00    +0.000 A 
ATOM     14 CL   UNL     1       2.665   6.693  18.053  0.00  0.00    +0.000 Cl
ENDBRANCH   2   7
BRANCH   1  16
ATOM     15  N   UNL     1       6.979   4.829  15.827  0.00  0.00    +0.000 N 
ATOM     16  C   UNL     1       5.969   5.476  16.532  0.00  0.00    +0.000 C 
ATOM     17  O   UNL     1       5.022   6.087  16.051  0.00  0.00    +0.000 OA
ATOM     18  H   UNL     1       7.634   4.277  16.359  0.00  0.00    +0.000 HD
BRANCH  15  24
ATOM     19  C   UNL     1       5.305   2.520  11.774  0.00  0.00    +0.000 C 
ATOM     20  C   UNL     1       6.196   3.544  12.413  0.00  0.00    +0.000 A 
ATOM     21  C   UNL     1       7.009   4.357  11.619  0.00  0.00    +0.000 A 
ATOM     22  C   UNL     1       7.836   5.306  12.209  0.00  0.00    +0.000 A 
ATOM     23  C   UNL     1       7.850   5.459  13.594  0.00  0.00    +0.000 A 
ATOM     24  C   UNL     1       7.039   4.675  14.415  0.00  0.00    +0.000 A 
ATOM     25  C   UNL     1       6.217   3.707  13.814  0.00  0.00    +0.000 A 
ENDBRANCH  15  24
ENDBRANCH   1  16
TORSDOF 3
ENDMDL
MODEL 6
REMARK VINA RESULT:      -7.3      3.366      6.663
REMARK  Name = 
REMARK  5 active torsions:
REMARK  status: ('A' for Active; 'I' for Inactive)
REMARK    1  A    between atoms: C_1  and  C_2
REMARK    2  A    between atoms: C_6  and  N_7
REMARK    3  A    between atoms: C_8  and  C_10
REMARK    4  A    between atoms: C_11  and  C_12
REMARK    5  A    between atoms: C_22  and  C_23
REMARK                            x       y       z     vdW  Elec       q    Type
REMARK                         _______ _______ _______ _____ _____    ______ ____
ROOT
ATOM      1  C   UNL     1       5.971   5.266  17.966  0.00  0.00    +0.000 A 
ATOM      2  C   UNL     1       4.941   4.736  18.820  0.00  0.00    +0.000 A 
ATOM      3  N   UNL     1       5.351   4.770  20.099  0.00  0.00    +0.000 NA
ATOM      4  O   UNL     1       6.600   5.347  20.102  0.00  0.00    +0.000 OA
ATOM      5  C   UNL     1       6.981   5.630  18.831  0.00  0.00    +0.000 A 
ATOM      6  C   UNL     1       8.302   6.267  18.673  0.00  0.00    +0.000 C 
ENDROOT
BRANCH   2   7
ATOM      7  C   UNL     1       3.626   4.180  18.451  0.00  0.00    +0.000 A 
ATOM      8  C   UNL     1       2.533   5.022  18.146  0.00  0.00    +0.000 A 
ATOM      9 CL   UNL     1       2.685   6.738  17.927  0.00  0.00    +0.000 Cl
ATOM     10  C   UNL     1       1.253   4.502  17.908  0.00  0.00    +0.000 A 
ATOM     11  C   UNL     1       1.046   3.129  17.874  0.00  0.00    +0.000 A 
ATOM     12  C   UNL     1       2.122   2.275  18.086  0.00  0.00    +0.000 A 
ATOM     13  C   UNL     1       3.395   2.788  18.391  0.00  0.00    +0.000 A 
ATOM     14 CL   UNL     1       4.620   1.599  18.696  0.00  0.00    +0.000 Cl
ENDBRANCH   2   7
BRANCH   1  16
ATOM     15  N   UNL     1       6.908   4.755  15.825  0.00  0.00    +0.000 N 
ATOM     16  C   UNL     1       5.927   5.448  16.527  0.00  0.00    +0.000 C 
ATOM     17  O   UNL     1       5.021   6.117  16.045  0.00  0.00    +0.000 OA
ATOM     18  H   UNL     1       7.525   4.161  16.357  0.00  0.00    +0.000 HD
BRANCH  15  24
ATOM     19  C   UNL     1       5.242   2.508  11.735  0.00  0.00    +0.000 C 
ATOM     20  C   UNL     1       6.137   3.516  12.392  0.00  0.00    +0.000 A 
ATOM     21  C   UNL     1       6.963   4.331  11.613  0.00  0.00    +0.000 A 
ATOM     22  C   UNL     1       7.794   5.266  12.219  0.00  0.00    +0.000 A 
ATOM     23  C   UNL     1       7.800   5.404  13.605  0.00  0.00    +0.000 A 
ATOM     24  C   UNL     1       6.976   4.617  14.412  0.00  0.00    +0.000 A 
ATOM     25  C   UNL     1       6.150   3.663  13.794  0.00  0.00    +0.000 A 
ENDBRANCH  15  24
ENDBRANCH   1  16
TORSDOF 3
ENDMDL
MODEL 7
REMARK VINA RESULT:      -7.2      2.040      3.987
REMARK  Name = 
REMARK  5 active torsions:
REMARK  status: ('A' for Active; 'I' for Inactive)
REMARK    1  A    between atoms: C_1  and  C_2
REMARK    2  A    between atoms: C_6  and  N_7
REMARK    3  A    between atoms: C_8  and  C_10
REMARK    4  A    between atoms: C_11  and  C_12
REMARK    5  A    between atoms: C_22  and  C_23
REMARK                            x       y       z     vdW  Elec       q    Type
REMARK                         _______ _______ _______ _____ _____    ______ ____
ROOT
ATOM      1  C   UNL     1       4.382   4.871  17.439  0.00  0.00    +0.000 A 
ATOM      2  C   UNL     1       3.917   3.599  17.924  0.00  0.00    +0.000 A 
ATOM      3  N   UNL     1       4.428   2.612  17.169  0.00  0.00    +0.000 NA
ATOM      4  O   UNL     1       5.246   3.207  16.235  0.00  0.00    +0.000 OA
ATOM      5  C   UNL     1       5.209   4.556  16.383  0.00  0.00    +0.000 A 
ATOM      6  C   UNL     1       6.049   5.335  15.455  0.00  0.00    +0.000 C 
ENDROOT
BRANCH   2   7
ATOM      7  C   UNL     1       2.994   3.312  19.037  0.00  0.00    +0.000 A 
ATOM      8  C   UNL     1       1.626   3.657  18.962  0.00  0.00    +0.000 A 
ATOM      9 CL   UNL     1       0.858   4.199  17.502  0.00  0.00    +0.000 Cl
ATOM     10  C   UNL     1       0.768   3.492  20.060  0.00  0.00    +0.000 A 
ATOM     11  C   UNL     1       1.226   2.894  21.228  0.00  0.00    +0.000 A 
ATOM     12  C   UNL     1       2.547   2.466  21.298  0.00  0.00    +0.000 A 
ATOM     13  C   UNL     1       3.430   2.688  20.226  0.00  0.00    +0.000 A 
ATOM     14 CL   UNL     1       5.061   2.160  20.490  0.00  0.00    +0.000 Cl
ENDBRANCH   2   7
BRANCH   1  16
ATOM     15  N   UNL     1       2.793   6.618  17.823  0.00  0.00    +0.000 N 
ATOM     16  C   UNL     1       4.106   6.186  17.987  0.00  0.00    +0.000 C 
ATOM     17  O   UNL     1       4.994   6.772  18.595  0.00  0.00    +0.000 OA
ATOM     18  H   UNL     1       2.147   5.978  17.388  0.00  0.00    +0.000 HD
BRANCH  15  24
ATOM     19  C   UNL     1       0.987   8.797  21.890  0.00  0.00    +0.000 C 
ATOM     20  C   UNL     1       1.343   8.853  20.434  0.00  0.00    +0.000 A 
ATOM     21  C   UNL     1       1.166  10.038  19.715  0.00  0.00    +0.000 A 
ATOM     22  C   UNL     1       1.495  10.092  18.366  0.00  0.00    +0.000 A 
ATOM     23  C   UNL     1       2.014   8.969  17.726  0.00  0.00    +0.000 A 
ATOM     24  C   UNL     1       2.219   7.774  18.418  0.00  0.00    +0.000 A 
ATOM     25  C   UNL     1       1.869   7.721  19.777  0.00  0.00    +0.000 A 
ENDBRANCH  15  24
ENDBRANCH   1  16
TORSDOF 3
ENDMDL
MODEL 8
REMARK VINA RESULT:      -6.9      1.984      3.979
REMARK  Name = 
REMARK  5 active torsions:
REMARK  status: ('A' for Active; 'I' for Inactive)
REMARK    1  A    between atoms: C_1  and  C_2
REMARK    2  A    between atoms: C_6  and  N_7
REMARK    3  A    between atoms: C_8  and  C_10
REMARK    4  A    between atoms: C_11  and  C_12
REMARK    5  A    between atoms: C_22  and  C_23
REMARK                            x       y       z     vdW  Elec       q    Type
REMARK                         _______ _______ _______ _____ _____    ______ ____
ROOT
ATOM      1  C   UNL     1       4.681   5.516  18.543  0.00  0.00    +0.000 A 
ATOM      2  C   UNL     1       4.312   4.208  19.016  0.00  0.00    +0.000 A 
ATOM      3  N   UNL     1       5.418   3.497  19.291  0.00  0.00    +0.000 NA
ATOM      4  O   UNL     1       6.493   4.322  19.051  0.00  0.00    +0.000 OA
ATOM      5  C   UNL     1       6.058   5.522  18.590  0.00  0.00    +0.000 A 
ATOM      6  C   UNL     1       7.101   6.523  18.298  0.00  0.00    +0.000 C 
ENDROOT
BRANCH   2   7
ATOM      7  C   UNL     1       2.967   3.624  19.172  0.00  0.00    +0.000 A 
ATOM      8  C   UNL     1       2.271   3.703  20.399  0.00  0.00    +0.000 A 
ATOM      9 CL   UNL     1       2.794   4.688  21.730  0.00  0.00    +0.000 Cl
ATOM     10  C   UNL     1       1.043   3.051  20.587  0.00  0.00    +0.000 A 
ATOM     11  C   UNL     1       0.432   2.383  19.534  0.00  0.00    +0.000 A 
ATOM     12  C   UNL     1       1.054   2.361  18.291  0.00  0.00    +0.000 A 
ATOM     13  C   UNL     1       2.316   2.956  18.111  0.00  0.00    +0.000 A 
ATOM     14 CL   UNL     1       2.994   2.788  16.524  0.00  0.00    +0.000 Cl
ENDBRANCH   2   7
BRANCH   1  16
ATOM     15  N   UNL     1       2.848   6.935  19.135  0.00  0.00    +0.000 N 
ATOM     16  C   UNL     1       3.801   6.609  18.175  0.00  0.00    +0.000 C 
ATOM     17  O   UNL     1       3.996   7.193  17.115  0.00  0.00    +0.000 OA
ATOM     18  H   UNL     1       2.877   6.427  20.006  0.00  0.00    +0.000 HD
BRANCH  15  24
ATOM     19  C   UNL     1      -0.030  10.101  21.634  0.00  0.00    +0.000 C 
ATOM     20  C   UNL     1       0.584   9.642  20.345  0.00  0.00    +0.000 A 
ATOM     21  C   UNL     1       0.359  10.360  19.168  0.00  0.00    +0.000 A 
ATOM     22  C   UNL     1       0.927   9.936  17.972  0.00  0.00    +0.000 A 
ATOM     23  C   UNL     1       1.733   8.800  17.943  0.00  0.00    +0.000 A 
ATOM     24  C   UNL     1       1.992   8.069  19.103  0.00  0.00    +0.000 A 
ATOM     25  C   UNL     1       1.402   8.493  20.306  0.00  0.00    +0.000 A 
ENDBRANCH  15  24
ENDBRANCH   1  16
TORSDOF 3
ENDMDL
MODEL 9
REMARK VINA RESULT:      -6.8      2.017      3.664
REMARK  Name = 
REMARK  5 active torsions:
REMARK  status: ('A' for Active; 'I' for Inactive)
REMARK    1  A    between atoms: C_1  and  C_2
REMARK    2  A    between atoms: C_6  and  N_7
REMARK    3  A    between atoms: C_8  and  C_10
REMARK    4  A    between atoms: C_11  and  C_12
REMARK    5  A    between atoms: C_22  and  C_23
REMARK                            x       y       z     vdW  Elec       q    Type
REMARK                         _______ _______ _______ _____ _____    ______ ____
ROOT
ATOM      1  C   UNL     1       4.732   5.528  18.546  0.00  0.00    +0.000 A 
ATOM      2  C   UNL     1       4.406   4.221  19.054  0.00  0.00    +0.000 A 
ATOM      3  N   UNL     1       5.535   3.556  19.348  0.00  0.00    +0.000 NA
ATOM      4  O   UNL     1       6.582   4.411  19.087  0.00  0.00    +0.000 OA
ATOM      5  C   UNL     1       6.107   5.582  18.594  0.00  0.00    +0.000 A 
ATOM      6  C   UNL     1       7.117   6.610  18.275  0.00  0.00    +0.000 C 
ENDROOT
BRANCH   2   7
ATOM      7  C   UNL     1       3.082   3.597  19.225  0.00  0.00    +0.000 A 
ATOM      8  C   UNL     1       2.601   2.633  18.310  0.00  0.00    +0.000 A 
ATOM      9 CL   UNL     1       3.590   1.915  17.076  0.00  0.00    +0.000 Cl
ATOM     10  C   UNL     1       1.298   2.121  18.402  0.00  0.00    +0.000 A 
ATOM     11  C   UNL     1       0.473   2.484  19.458  0.00  0.00    +0.000 A 
ATOM     12  C   UNL     1       0.951   3.365  20.422  0.00  0.00    +0.000 A 
ATOM     13  C   UNL     1       2.231   3.933  20.301  0.00  0.00    +0.000 A 
ATOM     14 CL   UNL     1       2.659   5.066  21.543  0.00  0.00    +0.000 Cl
ENDBRANCH   2   7
BRANCH   1  16
ATOM     15  N   UNL     1       2.898   6.951  19.126  0.00  0.00    +0.000 N 
ATOM     16  C   UNL     1       3.815   6.580  18.148  0.00  0.00    +0.000 C 
ATOM     17  O   UNL     1       3.953   7.097  17.046  0.00  0.00    +0.000 OA
ATOM     18  H   UNL     1       2.974   6.502  20.026  0.00  0.00    +0.000 HD
BRANCH  15  24
ATOM     19  C   UNL     1      -0.091  10.096  21.520  0.00  0.00    +0.000 C 
ATOM     20  C   UNL     1       0.557   9.630  20.250  0.00  0.00    +0.000 A 
ATOM     21  C   UNL     1       0.340  10.324  19.058  0.00  0.00    +0.000 A 
ATOM     22  C   UNL     1       0.939   9.893  17.879  0.00  0.00    +0.000 A 
ATOM     23  C   UNL     1       1.768   8.774  17.884  0.00  0.00    +0.000 A 
ATOM     24  C   UNL     1       2.020   8.067  19.061  0.00  0.00    +0.000 A 
ATOM     25  C   UNL     1       1.398   8.498  20.245  0.00  0.00    +0.000 A 
ENDBRANCH  15  24
ENDBRANCH   1  16
TORSDOF 3
ENDMDL
