MODEL 1
REMARK VINA RESULT:      -9.4      0.000      0.000
REMARK  Name = 
REMARK  6 active torsions:
REMARK  status: ('A' for Active; 'I' for Inactive)
REMARK    1  A    between atoms: C_1  and  C_2
REMARK    2  A    between atoms: C_5  and  C_6
REMARK    3  A    between atoms: C_11  and  C_13
REMARK    4  A    between atoms: C_16  and  S_17
REMARK    5  A    between atoms: S_17  and  N_20
REMARK    6  A    between atoms: C_23  and  C_24
REMARK                            x       y       z     vdW  Elec       q    Type
REMARK                         _______ _______ _______ _____ _____    ______ ____
ROOT
ATOM      1  C   UNL     1       2.259   7.841  18.976  0.00  0.00    +0.000 A 
ATOM      2  C   UNL     1       2.959   7.829  17.766  0.00  0.00    +0.000 A 
ATOM      3  C   UNL     1       3.867   6.794  17.501  0.00  0.00    +0.000 A 
ATOM      4  C   UNL     1       4.068   5.780  18.446  0.00  0.00    +0.000 A 
ATOM      5  C   UNL     1       3.397   5.813  19.678  0.00  0.00    +0.000 A 
ATOM      6  C   UNL     1       2.510   6.853  19.944  0.00  0.00    +0.000 A 
ENDROOT
BRANCH   1  17
ATOM      7  C   UNL     1      -4.272  11.028  16.132  0.00  0.00    +0.000 C 
ATOM      8  C   UNL     1      -3.857  11.477  17.506  0.00  0.00    +0.000 A 
ATOM      9  C   UNL     1      -4.757  12.273  18.255  0.00  0.00    +0.000 A 
ATOM     10  C   UNL     1      -4.452  12.719  19.537  0.00  0.00    +0.000 A 
ATOM     11  C   UNL     1      -3.220  12.420  20.128  0.00  0.00    +0.000 A 
ATOM     12  C   UNL     1      -2.893  12.872  21.522  0.00  0.00    +0.000 C 
ATOM     13  C   UNL     1      -2.324  11.639  19.370  0.00  0.00    +0.000 A 
ATOM     14  S   UNL     1      -0.743  11.150  19.813  0.00  0.00    +0.000 S 
ATOM     15  C   UNL     1      -0.644  10.152  18.447  0.00  0.00    +0.000 A 
ATOM     16  N   UNL     1       0.420   9.283  18.289  0.00  0.00    +0.000 N 
ATOM     17  C   UNL     1       1.273   8.897  19.310  0.00  0.00    +0.000 C 
ATOM     18  O   UNL     1       1.270   9.272  20.478  0.00  0.00    +0.000 OA
ATOM     19  N   UNL     1      -1.615  10.297  17.569  0.00  0.00    +0.000 NA
ATOM     20  C   UNL     1      -2.613  11.133  18.099  0.00  0.00    +0.000 A 
ATOM     21  H   UNL     1       0.399   8.761  17.421  0.00  0.00    +0.000 HD
ENDBRANCH   1  17
BRANCH   4  22
ATOM     22  S   UNL     1       5.051   4.343  18.060  0.00  0.00    +0.000 S 
ATOM     23  O   UNL     1       5.904   4.742  16.960  0.00  0.00    +0.000 OA
ATOM     24  O   UNL     1       5.605   3.852  19.303  0.00  0.00    +0.000 OA
BRANCH  22  25
ATOM     25  N   UNL     1       3.903   3.228  17.501  0.00  0.00    +0.000 NA
ATOM     26  C   UNL     1       2.658   3.727  16.884  0.00  0.00    +0.000 C 
ATOM     27  C   UNL     1       1.613   4.029  17.956  0.00  0.00    +0.000 C 
ATOM     28  C   UNL     1       1.382   2.871  18.944  0.00  0.00    +0.000 C 
ATOM     29  C   UNL     1       0.617   3.380  20.175  0.00  0.00    +0.000 C 
ATOM     30  C   UNL     1       2.676   2.167  19.383  0.00  0.00    +0.000 C 
ATOM     31  C   UNL     1       3.698   1.980  18.269  0.00  0.00    +0.000 C 
ENDBRANCH  22  25
ENDBRANCH   4  22
TORSDOF 3
ENDMDL
MODEL 2
REMARK VINA RESULT:      -9.3      2.114      2.706
REMARK  Name = 
REMARK  6 active torsions:
REMARK  status: ('A' for Active; 'I' for Inactive)
REMARK    1  A    between atoms: C_1  and  C_2
REMARK    2  A    between atoms: C_5  and  C_6
REMARK    3  A    between atoms: C_11  and  C_13
REMARK    4  A    between atoms: C_16  and  S_17
REMARK    5  A    between atoms: S_17  and  N_20
REMARK    6  A    between atoms: C_23  and  C_24
REMARK                            x       y       z     vdW  Elec       q    Type
REMARK                         _______ _______ _______ _____ _____    ______ ____
ROOT
ATOM      1  C   UNL     1       2.495   8.004  18.561  0.00  0.00    +0.000 A 
ATOM      2  C   UNL     1       2.453   7.059  19.592  0.00  0.00    +0.000 A 
ATOM      3  C   UNL     1       3.167   5.861  19.461  0.00  0.00    +0.000 A 
ATOM      4  C   UNL     1       3.919   5.615  18.305  0.00  0.00    +0.000 A 
ATOM      5  C   UNL     1       3.928   6.543  17.253  0.00  0.00    +0.000 A 
ATOM      6  C   UNL     1       3.202   7.725  17.380  0.00  0.00    +0.000 A 
ENDROOT
BRANCH   1  17
ATOM      7  C   UNL     1      -2.357  11.845  23.318  0.00  0.00    +0.000 C 
ATOM      8  C   UNL     1      -1.834  12.616  22.137  0.00  0.00    +0.000 A 
ATOM      9  C   UNL     1      -2.088  14.007  22.076  0.00  0.00    +0.000 A 
ATOM     10  C   UNL     1      -1.630  14.792  21.022  0.00  0.00    +0.000 A 
ATOM     11  C   UNL     1      -0.919  14.225  19.959  0.00  0.00    +0.000 A 
ATOM     12  C   UNL     1      -0.396  15.068  18.833  0.00  0.00    +0.000 C 
ATOM     13  C   UNL     1      -0.683  12.837  20.021  0.00  0.00    +0.000 A 
ATOM     14  S   UNL     1       0.119  11.868  18.858  0.00  0.00    +0.000 S 
ATOM     15  C   UNL     1       0.082  10.538  19.906  0.00  0.00    +0.000 A 
ATOM     16  N   UNL     1       0.769   9.378  19.594  0.00  0.00    +0.000 N 
ATOM     17  C   UNL     1       1.774   9.298  18.644  0.00  0.00    +0.000 C 
ATOM     18  O   UNL     1       2.191  10.186  17.908  0.00  0.00    +0.000 OA
ATOM     19  N   UNL     1      -0.658  10.688  20.986  0.00  0.00    +0.000 NA
ATOM     20  C   UNL     1      -1.086  12.024  21.085  0.00  0.00    +0.000 A 
ATOM     21  H   UNL     1       0.649   8.634  20.270  0.00  0.00    +0.000 HD
ENDBRANCH   1  17
BRANCH   4  22
ATOM     22  S   UNL     1       5.003   4.204  18.194  0.00  0.00    +0.000 S 
ATOM     23  O   UNL     1       5.872   4.471  17.068  0.00  0.00    +0.000 OA
ATOM     24  O   UNL     1       5.539   3.965  19.518  0.00  0.00    +0.000 OA
BRANCH  22  25
ATOM     25  N   UNL     1       3.950   2.936  17.799  0.00  0.00    +0.000 NA
ATOM     26  C   UNL     1       2.722   3.234  17.036  0.00  0.00    +0.000 C 
ATOM     27  C   UNL     1       1.598   3.667  17.977  0.00  0.00    +0.000 C 
ATOM     28  C   UNL     1       1.366   2.702  19.154  0.00  0.00    +0.000 C 
ATOM     29  C   UNL     1       0.502   3.385  20.225  0.00  0.00    +0.000 C 
ATOM     30  C   UNL     1       2.664   2.172  19.784  0.00  0.00    +0.000 C 
ATOM     31  C   UNL     1       3.761   1.843  18.780  0.00  0.00    +0.000 C 
ENDBRANCH  22  25
ENDBRANCH   4  22
TORSDOF 3
ENDMDL
MODEL 3
REMARK VINA RESULT:      -9.2      1.127      1.328
REMARK  Name = 
REMARK  6 active torsions:
REMARK  status: ('A' for Active; 'I' for Inactive)
REMARK    1  A    between atoms: C_1  and  C_2
REMARK    2  A    between atoms: C_5  and  C_6
REMARK    3  A    between atoms: C_11  and  C_13
REMARK    4  A    between atoms: C_16  and  S_17
REMARK    5  A    between atoms: S_17  and  N_20
REMARK    6  A    between atoms: C_23  and  C_24
REMARK                            x       y       z     vdW  Elec       q    Type
REMARK                         _______ _______ _______ _____ _____    ______ ____
ROOT
ATOM      1  C   UNL     1       1.530   8.741  19.110  0.00  0.00    +0.000 A 
ATOM      2  C   UNL     1       2.075   8.669  17.824  0.00  0.00    +0.000 A 
ATOM      3  C   UNL     1       2.929   7.609  17.492  0.00  0.00    +0.000 A 
ATOM      4  C   UNL     1       3.232   6.628  18.445  0.00  0.00    +0.000 A 
ATOM      5  C   UNL     1       2.720   6.722  19.748  0.00  0.00    +0.000 A 
ATOM      6  C   UNL     1       1.886   7.787  20.079  0.00  0.00    +0.000 A 
ENDROOT
BRANCH   1  17
ATOM      7  C   UNL     1      -5.573  11.496  17.421  0.00  0.00    +0.000 C 
ATOM      8  C   UNL     1      -4.880  12.124  18.599  0.00  0.00    +0.000 A 
ATOM      9  C   UNL     1      -5.617  13.007  19.423  0.00  0.00    +0.000 A 
ATOM     10  C   UNL     1      -5.051  13.620  20.536  0.00  0.00    +0.000 A 
ATOM     11  C   UNL     1      -3.709  13.407  20.869  0.00  0.00    +0.000 A 
ATOM     12  C   UNL     1      -3.096  14.040  22.085  0.00  0.00    +0.000 C 
ATOM     13  C   UNL     1      -2.978  12.537  20.035  0.00  0.00    +0.000 A 
ATOM     14  S   UNL     1      -1.322  12.118  20.171  0.00  0.00    +0.000 S 
ATOM     15  C   UNL     1      -1.495  10.949  18.956  0.00  0.00    +0.000 A 
ATOM     16  N   UNL     1      -0.463  10.072  18.674  0.00  0.00    +0.000 N 
ATOM     17  C   UNL     1       0.608   9.828  19.519  0.00  0.00    +0.000 C 
ATOM     18  O   UNL     1       0.851  10.353  20.600  0.00  0.00    +0.000 OA
ATOM     19  N   UNL     1      -2.640  10.973  18.306  0.00  0.00    +0.000 NA
ATOM     20  C   UNL     1      -3.524  11.867  18.936  0.00  0.00    +0.000 A 
ATOM     21  H   UNL     1      -0.658   9.440  17.907  0.00  0.00    +0.000 HD
ENDBRANCH   1  17
BRANCH   4  22
ATOM     22  S   UNL     1       4.140   5.160  18.000  0.00  0.00    +0.000 S 
ATOM     23  O   UNL     1       4.823   5.486  16.766  0.00  0.00    +0.000 OA
ATOM     24  O   UNL     1       4.870   4.730  19.174  0.00  0.00    +0.000 OA
BRANCH  22  25
ATOM     25  N   UNL     1       2.917   4.030  17.680  0.00  0.00    +0.000 NA
ATOM     26  C   UNL     1       1.520   4.372  18.013  0.00  0.00    +0.000 C 
ATOM     27  C   UNL     1       1.224   4.043  19.476  0.00  0.00    +0.000 C 
ATOM     28  C   UNL     1       1.616   2.613  19.886  0.00  0.00    +0.000 C 
ATOM     29  C   UNL     1       1.634   2.494  21.417  0.00  0.00    +0.000 C 
ATOM     30  C   UNL     1       2.965   2.154  19.306  0.00  0.00    +0.000 C 
ATOM     31  C   UNL     1       3.215   2.593  17.870  0.00  0.00    +0.000 C 
ENDBRANCH  22  25
ENDBRANCH   4  22
TORSDOF 3
ENDMDL
MODEL 4
REMARK VINA RESULT:      -9.2      0.670      1.119
REMARK  Name = 
REMARK  6 active torsions:
REMARK  status: ('A' for Active; 'I' for Inactive)
REMARK    1  A    between atoms: C_1  and  C_2
REMARK    2  A    between atoms: C_5  and  C_6
REMARK    3  A    between atoms: C_11  and  C_13
REMARK    4  A    between atoms: C_16  and  S_17
REMARK    5  A    between atoms: S_17  and  N_20
REMARK    6  A    between atoms: C_23  and  C_24
REMARK                            x       y       z     vdW  Elec       q    Type
REMARK                         _______ _______ _______ _____ _____    ______ ____
ROOT
ATOM      1  C   UNL     1       1.883   8.156  19.326  0.00  0.00    +0.000 A 
ATOM      2  C   UNL     1       2.176   7.122  20.221  0.00  0.00    +0.000 A 
ATOM      3  C   UNL     1       3.065   6.108  19.840  0.00  0.00    +0.000 A 
ATOM      4  C   UNL     1       3.655   6.134  18.570  0.00  0.00    +0.000 A 
ATOM      5  C   UNL     1       3.330   7.148  17.656  0.00  0.00    +0.000 A 
ATOM      6  C   UNL     1       2.432   8.143  18.032  0.00  0.00    +0.000 A 
ENDROOT
BRANCH   1  17
ATOM      7  C   UNL     1      -4.860  11.289  16.953  0.00  0.00    +0.000 C 
ATOM      8  C   UNL     1      -4.284  11.839  18.229  0.00  0.00    +0.000 A 
ATOM      9  C   UNL     1      -5.077  12.722  19.000  0.00  0.00    +0.000 A 
ATOM     10  C   UNL     1      -4.620  13.266  20.197  0.00  0.00    +0.000 A 
ATOM     11  C   UNL     1      -3.335  12.980  20.672  0.00  0.00    +0.000 A 
ATOM     12  C   UNL     1      -2.844  13.538  21.976  0.00  0.00    +0.000 C 
ATOM     13  C   UNL     1      -2.547  12.111  19.890  0.00  0.00    +0.000 A 
ATOM     14  S   UNL     1      -0.937  11.614  20.197  0.00  0.00    +0.000 S 
ATOM     15  C   UNL     1      -1.013  10.501  18.921  0.00  0.00    +0.000 A 
ATOM     16  N   UNL     1       0.009   9.590  18.722  0.00  0.00    +0.000 N 
ATOM     17  C   UNL     1       0.963   9.266  19.673  0.00  0.00    +0.000 C 
ATOM     18  O   UNL     1       1.099   9.738  20.797  0.00  0.00    +0.000 OA
ATOM     19  N   UNL     1      -2.073  10.601  18.146  0.00  0.00    +0.000 NA
ATOM     20  C   UNL     1      -2.988  11.509  18.708  0.00  0.00    +0.000 A 
ATOM     21  H   UNL     1      -0.121   8.997  17.911  0.00  0.00    +0.000 HD
ENDBRANCH   1  17
BRANCH   4  22
ATOM     22  S   UNL     1       4.945   4.984  18.130  0.00  0.00    +0.000 S 
ATOM     23  O   UNL     1       5.555   5.525  16.934  0.00  0.00    +0.000 OA
ATOM     24  O   UNL     1       5.724   4.731  19.324  0.00  0.00    +0.000 OA
BRANCH  22  25
ATOM     25  N   UNL     1       4.089   3.576  17.733  0.00  0.00    +0.000 NA
ATOM     26  C   UNL     1       2.816   3.694  16.996  0.00  0.00    +0.000 C 
ATOM     27  C   UNL     1       1.658   3.937  17.964  0.00  0.00    +0.000 C 
ATOM     28  C   UNL     1       1.598   2.933  19.128  0.00  0.00    +0.000 C 
ATOM     29  C   UNL     1       0.661   3.462  20.225  0.00  0.00    +0.000 C 
ATOM     30  C   UNL     1       2.974   2.599  19.727  0.00  0.00    +0.000 C 
ATOM     31  C   UNL     1       4.088   2.454  18.699  0.00  0.00    +0.000 C 
ENDBRANCH  22  25
ENDBRANCH   4  22
TORSDOF 3
ENDMDL
MODEL 5
REMARK VINA RESULT:      -9.1      2.883      9.892
REMARK  Name = 
REMARK  6 active torsions:
REMARK  status: ('A' for Active; 'I' for Inactive)
REMARK    1  A    between atoms: C_1  and  C_2
REMARK    2  A    between atoms: C_5  and  C_6
REMARK    3  A    between atoms: C_11  and  C_13
REMARK    4  A    between atoms: C_16  and  S_17
REMARK    5  A    between atoms: S_17  and  N_20
REMARK    6  A    between atoms: C_23  and  C_24
REMARK                            x       y       z     vdW  Elec       q    Type
REMARK                         _______ _______ _______ _____ _____    ______ ____
ROOT
ATOM      1  C   UNL     1       0.947  10.294  18.988  0.00  0.00    +0.000 A 
ATOM      2  C   UNL     1       1.528  11.563  19.075  0.00  0.00    +0.000 A 
ATOM      3  C   UNL     1       0.739  12.661  19.446  0.00  0.00    +0.000 A 
ATOM      4  C   UNL     1      -0.621  12.483  19.728  0.00  0.00    +0.000 A 
ATOM      5  C   UNL     1      -1.214  11.218  19.600  0.00  0.00    +0.000 A 
ATOM      6  C   UNL     1      -0.431  10.133  19.214  0.00  0.00    +0.000 A 
ENDROOT
BRANCH   1  17
ATOM      7  C   UNL     1       2.180   2.986  21.433  0.00  0.00    +0.000 C 
ATOM      8  C   UNL     1       2.794   3.357  20.111  0.00  0.00    +0.000 A 
ATOM      9  C   UNL     1       3.368   2.331  19.324  0.00  0.00    +0.000 A 
ATOM     10  C   UNL     1       3.946   2.591  18.084  0.00  0.00    +0.000 A 
ATOM     11  C   UNL     1       4.008   3.894  17.579  0.00  0.00    +0.000 A 
ATOM     12  C   UNL     1       4.603   4.181  16.231  0.00  0.00    +0.000 C 
ATOM     13  C   UNL     1       3.446   4.911  18.377  0.00  0.00    +0.000 A 
ATOM     14  S   UNL     1       3.407   6.591  18.039  0.00  0.00    +0.000 S 
ATOM     15  C   UNL     1       2.397   6.859  19.373  0.00  0.00    +0.000 A 
ATOM     16  N   UNL     1       1.826   8.101  19.582  0.00  0.00    +0.000 N 
ATOM     17  C   UNL     1       1.729   9.090  18.616  0.00  0.00    +0.000 C 
ATOM     18  O   UNL     1       2.152   9.064  17.465  0.00  0.00    +0.000 OA
ATOM     19  N   UNL     1       2.239   5.829  20.179  0.00  0.00    +0.000 NA
ATOM     20  C   UNL     1       2.816   4.683  19.603  0.00  0.00    +0.000 A 
ATOM     21  H   UNL     1       1.271   8.161  20.427  0.00  0.00    +0.000 HD
ENDBRANCH   1  17
BRANCH   4  22
ATOM     22  S   UNL     1      -1.603  13.810  20.404  0.00  0.00    +0.000 S 
ATOM     23  O   UNL     1      -1.084  15.020  19.803  0.00  0.00    +0.000 OA
ATOM     24  O   UNL     1      -2.994  13.434  20.261  0.00  0.00    +0.000 OA
BRANCH  22  25
ATOM     25  N   UNL     1      -1.202  13.787  22.051  0.00  0.00    +0.000 NA
ATOM     26  C   UNL     1      -1.114  12.491  22.750  0.00  0.00    +0.000 C 
ATOM     27  C   UNL     1      -2.493  12.052  23.240  0.00  0.00    +0.000 C 
ATOM     28  C   UNL     1      -3.240  13.129  24.046  0.00  0.00    +0.000 C 
ATOM     29  C   UNL     1      -4.724  12.752  24.172  0.00  0.00    +0.000 C 
ATOM     30  C   UNL     1      -3.105  14.544  23.458  0.00  0.00    +0.000 C 
ATOM     31  C   UNL     1      -1.719  14.870  22.918  0.00  0.00    +0.000 C 
ENDBRANCH  22  25
ENDBRANCH   4  22
TORSDOF 3
ENDMDL
MODEL 6
REMARK VINA RESULT:      -9.0      3.196     10.453
REMARK  Name = 
REMARK  6 active torsions:
REMARK  status: ('A' for Active; 'I' for Inactive)
REMARK    1  A    between atoms: C_1  and  C_2
REMARK    2  A    between atoms: C_5  and  C_6
REMARK    3  A    between atoms: C_11  and  C_13
REMARK    4  A    between atoms: C_16  and  S_17
REMARK    5  A    between atoms: S_17  and  N_20
REMARK    6  A    between atoms: C_23  and  C_24
REMARK                            x       y       z     vdW  Elec       q    Type
REMARK                         _______ _______ _______ _____ _____    ______ ____
ROOT
ATOM      1  C   UNL     1       0.269   9.690  21.209  0.00  0.00    +0.000 A 
ATOM      2  C   UNL     1      -0.133   9.500  22.535  0.00  0.00    +0.000 A 
ATOM      3  C   UNL     1      -0.950  10.456  23.154  0.00  0.00    +0.000 A 
ATOM      4  C   UNL     1      -1.360  11.592  22.446  0.00  0.00    +0.000 A 
ATOM      5  C   UNL     1      -0.924  11.805  21.130  0.00  0.00    +0.000 A 
ATOM      6  C   UNL     1      -0.097  10.862  20.524  0.00  0.00    +0.000 A 
ENDROOT
BRANCH   1  17
ATOM      7  C   UNL     1       2.171   2.125  21.457  0.00  0.00    +0.000 C 
ATOM      8  C   UNL     1       2.687   2.902  20.277  0.00  0.00    +0.000 A 
ATOM      9  C   UNL     1       3.296   2.190  19.217  0.00  0.00    +0.000 A 
ATOM     10  C   UNL     1       3.789   2.834  18.086  0.00  0.00    +0.000 A 
ATOM     11  C   UNL     1       3.726   4.226  17.968  0.00  0.00    +0.000 A 
ATOM     12  C   UNL     1       4.229   4.928  16.739  0.00  0.00    +0.000 C 
ATOM     13  C   UNL     1       3.131   4.929  19.035  0.00  0.00    +0.000 A 
ATOM     14  S   UNL     1       2.949   6.626  19.186  0.00  0.00    +0.000 S 
ATOM     15  C   UNL     1       1.991   6.423  20.569  0.00  0.00    +0.000 A 
ATOM     16  N   UNL     1       1.339   7.504  21.136  0.00  0.00    +0.000 N 
ATOM     17  C   UNL     1       1.119   8.710  20.491  0.00  0.00    +0.000 C 
ATOM     18  O   UNL     1       1.483   9.043  19.368  0.00  0.00    +0.000 OA
ATOM     19  N   UNL     1       1.952   5.200  21.056  0.00  0.00    +0.000 NA
ATOM     20  C   UNL     1       2.583   4.314  20.164  0.00  0.00    +0.000 A 
ATOM     21  H   UNL     1       0.825   7.277  21.979  0.00  0.00    +0.000 HD
ENDBRANCH   1  17
BRANCH   4  22
ATOM     22  S   UNL     1      -2.564  12.718  23.127  0.00  0.00    +0.000 S 
ATOM     23  O   UNL     1      -3.486  11.891  23.878  0.00  0.00    +0.000 OA
ATOM     24  O   UNL     1      -1.836  13.798  23.758  0.00  0.00    +0.000 OA
BRANCH  22  25
ATOM     25  N   UNL     1      -3.349  13.324  21.752  0.00  0.00    +0.000 NA
ATOM     26  C   UNL     1      -3.339  14.778  21.503  0.00  0.00    +0.000 C 
ATOM     27  C   UNL     1      -4.478  15.459  22.261  0.00  0.00    +0.000 C 
ATOM     28  C   UNL     1      -5.855  14.810  22.031  0.00  0.00    +0.000 C 
ATOM     29  C   UNL     1      -6.849  15.306  23.092  0.00  0.00    +0.000 C 
ATOM     30  C   UNL     1      -5.818  13.273  22.021  0.00  0.00    +0.000 C 
ATOM     31  C   UNL     1      -4.607  12.678  21.315  0.00  0.00    +0.000 C 
ENDBRANCH  22  25
ENDBRANCH   4  22
TORSDOF 3
ENDMDL
MODEL 7
REMARK VINA RESULT:      -9.0      3.285      4.336
REMARK  Name = 
REMARK  6 active torsions:
REMARK  status: ('A' for Active; 'I' for Inactive)
REMARK    1  A    between atoms: C_1  and  C_2
REMARK    2  A    between atoms: C_5  and  C_6
REMARK    3  A    between atoms: C_11  and  C_13
REMARK    4  A    between atoms: C_16  and  S_17
REMARK    5  A    between atoms: S_17  and  N_20
REMARK    6  A    between atoms: C_23  and  C_24
REMARK                            x       y       z     vdW  Elec       q    Type
REMARK                         _______ _______ _______ _____ _____    ______ ____
ROOT
ATOM      1  C   UNL     1       1.385   7.545  20.514  0.00  0.00    +0.000 A 
ATOM      2  C   UNL     1       1.498   6.233  20.985  0.00  0.00    +0.000 A 
ATOM      3  C   UNL     1       2.276   5.308  20.276  0.00  0.00    +0.000 A 
ATOM      4  C   UNL     1       2.936   5.700  19.104  0.00  0.00    +0.000 A 
ATOM      5  C   UNL     1       2.790   7.004  18.608  0.00  0.00    +0.000 A 
ATOM      6  C   UNL     1       2.001   7.915  19.307  0.00  0.00    +0.000 A 
ENDROOT
BRANCH   1  17
ATOM      7  C   UNL     1       0.865  15.307  21.141  0.00  0.00    +0.000 C 
ATOM      8  C   UNL     1      -0.208  14.511  21.832  0.00  0.00    +0.000 A 
ATOM      9  C   UNL     1      -1.321  15.203  22.366  0.00  0.00    +0.000 A 
ATOM     10  C   UNL     1      -2.359  14.538  23.011  0.00  0.00    +0.000 A 
ATOM     11  C   UNL     1      -2.327  13.150  23.183  0.00  0.00    +0.000 A 
ATOM     12  C   UNL     1      -3.457  12.420  23.851  0.00  0.00    +0.000 C 
ATOM     13  C   UNL     1      -1.208  12.471  22.660  0.00  0.00    +0.000 A 
ATOM     14  S   UNL     1      -0.879  10.792  22.750  0.00  0.00    +0.000 S 
ATOM     15  C   UNL     1       0.445  10.972  21.708  0.00  0.00    +0.000 A 
ATOM     16  N   UNL     1       1.106   9.861  21.215  0.00  0.00    +0.000 N 
ATOM     17  C   UNL     1       0.590   8.576  21.226  0.00  0.00    +0.000 C 
ATOM     18  O   UNL     1      -0.478   8.195  21.693  0.00  0.00    +0.000 OA
ATOM     19  N   UNL     1       0.794  12.215  21.447  0.00  0.00    +0.000 NA
ATOM     20  C   UNL     1      -0.169  13.097  21.966  0.00  0.00    +0.000 A 
ATOM     21  H   UNL     1       1.904  10.083  20.632  0.00  0.00    +0.000 HD
ENDBRANCH   1  17
BRANCH   4  22
ATOM     22  S   UNL     1       4.098   4.616  18.295  0.00  0.00    +0.000 S 
ATOM     23  O   UNL     1       4.639   3.777  19.343  0.00  0.00    +0.000 OA
ATOM     24  O   UNL     1       3.428   4.046  17.145  0.00  0.00    +0.000 OA
BRANCH  22  25
ATOM     25  N   UNL     1       5.303   5.677  17.750  0.00  0.00    +0.000 NA
ATOM     26  C   UNL     1       5.020   6.550  16.594  0.00  0.00    +0.000 C 
ATOM     27  C   UNL     1       5.298   5.812  15.285  0.00  0.00    +0.000 C 
ATOM     28  C   UNL     1       6.687   5.151  15.225  0.00  0.00    +0.000 C 
ATOM     29  C   UNL     1       6.736   4.143  14.066  0.00  0.00    +0.000 C 
ATOM     30  C   UNL     1       7.100   4.464  16.538  0.00  0.00    +0.000 C 
ATOM     31  C   UNL     1       6.712   5.229  17.796  0.00  0.00    +0.000 C 
ENDBRANCH  22  25
ENDBRANCH   4  22
TORSDOF 3
ENDMDL
MODEL 8
REMARK VINA RESULT:      -8.9      2.176      3.048
REMARK  Name = 
REMARK  6 active torsions:
REMARK  status: ('A' for Active; 'I' for Inactive)
REMARK    1  A    between atoms: C_1  and  C_2
REMARK    2  A    between atoms: C_5  and  C_6
REMARK    3  A    between atoms: C_11  and  C_13
REMARK    4  A    between atoms: C_16  and  S_17
REMARK    5  A    between atoms: S_17  and  N_20
REMARK    6  A    between atoms: C_23  and  C_24
REMARK                            x       y       z     vdW  Elec       q    Type
REMARK                         _______ _______ _______ _____ _____    ______ ____
ROOT
ATOM      1  C   UNL     1       1.416   8.798  19.320  0.00  0.00    +0.000 A 
ATOM      2  C   UNL     1       2.024   8.738  18.063  0.00  0.00    +0.000 A 
ATOM      3  C   UNL     1       2.870   7.664  17.753  0.00  0.00    +0.000 A 
ATOM      4  C   UNL     1       3.101   6.659  18.701  0.00  0.00    +0.000 A 
ATOM      5  C   UNL     1       2.525   6.739  19.977  0.00  0.00    +0.000 A 
ATOM      6  C   UNL     1       1.700   7.818  20.286  0.00  0.00    +0.000 A 
ENDROOT
BRANCH   1  17
ATOM      7  C   UNL     1      -5.642  11.594  17.510  0.00  0.00    +0.000 C 
ATOM      8  C   UNL     1      -4.957  12.231  18.688  0.00  0.00    +0.000 A 
ATOM      9  C   UNL     1      -5.696  13.131  19.491  0.00  0.00    +0.000 A 
ATOM     10  C   UNL     1      -5.137  13.753  20.603  0.00  0.00    +0.000 A 
ATOM     11  C   UNL     1      -3.802  13.533  20.955  0.00  0.00    +0.000 A 
ATOM     12  C   UNL     1      -3.198  14.176  22.170  0.00  0.00    +0.000 C 
ATOM     13  C   UNL     1      -3.069  12.645  20.141  0.00  0.00    +0.000 A 
ATOM     14  S   UNL     1      -1.418  12.214  20.303  0.00  0.00    +0.000 S 
ATOM     15  C   UNL     1      -1.587  11.031  19.101  0.00  0.00    +0.000 A 
ATOM     16  N   UNL     1      -0.559  10.140  18.844  0.00  0.00    +0.000 N 
ATOM     17  C   UNL     1       0.499   9.898  19.704  0.00  0.00    +0.000 C 
ATOM     18  O   UNL     1       0.734  10.435  20.782  0.00  0.00    +0.000 OA
ATOM     19  N   UNL     1      -2.724  11.056  18.438  0.00  0.00    +0.000 NA
ATOM     20  C   UNL     1      -3.608  11.966  19.045  0.00  0.00    +0.000 A 
ATOM     21  H   UNL     1      -0.751   9.501  18.082  0.00  0.00    +0.000 HD
ENDBRANCH   1  17
BRANCH   4  22
ATOM     22  S   UNL     1       3.998   5.178  18.272  0.00  0.00    +0.000 S 
ATOM     23  O   UNL     1       4.233   4.492  19.524  0.00  0.00    +0.000 OA
ATOM     24  O   UNL     1       3.283   4.540  17.186  0.00  0.00    +0.000 OA
BRANCH  22  25
ATOM     25  N   UNL     1       5.468   5.775  17.676  0.00  0.00    +0.000 NA
ATOM     26  C   UNL     1       5.452   6.726  16.547  0.00  0.00    +0.000 C 
ATOM     27  C   UNL     1       5.397   5.977  15.217  0.00  0.00    +0.000 C 
ATOM     28  C   UNL     1       6.467   4.880  15.074  0.00  0.00    +0.000 C 
ATOM     29  C   UNL     1       6.111   3.953  13.902  0.00  0.00    +0.000 C 
ATOM     30  C   UNL     1       6.678   4.054  16.354  0.00  0.00    +0.000 C 
ATOM     31  C   UNL     1       6.636   4.867  17.641  0.00  0.00    +0.000 C 
ENDBRANCH  22  25
ENDBRANCH   4  22
TORSDOF 3
ENDMDL
MODEL 9
REMARK VINA RESULT:      -8.8      3.102     10.277
REMARK  Name = 
REMARK  6 active torsions:
REMARK  status: ('A' for Active; 'I' for Inactive)
REMARK    1  A    between atoms: C_1  and  C_2
REMARK    2  A    between atoms: C_5  and  C_6
REMARK    3  A    between atoms: C_11  and  C_13
REMARK    4  A    between atoms: C_16  and  S_17
REMARK    5  A    between atoms: S_17  and  N_20
REMARK    6  A    between atoms: C_23  and  C_24
REMARK                            x       y       z     vdW  Elec       q    Type
REMARK                         _______ _______ _______ _____ _____    ______ ____
ROOT
ATOM      1  C   UNL     1       0.715   9.830  20.574  0.00  0.00    +0.000 A 
ATOM      2  C   UNL     1       0.128   9.716  21.839  0.00  0.00    +0.000 A 
ATOM      3  C   UNL     1      -0.578  10.802  22.375  0.00  0.00    +0.000 A 
ATOM      4  C   UNL     1      -0.696  11.991  21.644  0.00  0.00    +0.000 A 
ATOM      5  C   UNL     1      -0.073  12.121  20.393  0.00  0.00    +0.000 A 
ATOM      6  C   UNL     1       0.644  11.046  19.873  0.00  0.00    +0.000 A 
ENDROOT
BRANCH   1  17
ATOM      7  C   UNL     1       2.001   2.196  21.564  0.00  0.00    +0.000 C 
ATOM      8  C   UNL     1       2.545   2.804  20.300  0.00  0.00    +0.000 A 
ATOM      9  C   UNL     1       3.064   1.940  19.307  0.00  0.00    +0.000 A 
ATOM     10  C   UNL     1       3.576   2.423  18.106  0.00  0.00    +0.000 A 
ATOM     11  C   UNL     1       3.624   3.796  17.846  0.00  0.00    +0.000 A 
ATOM     12  C   UNL     1       4.147   4.326  16.543  0.00  0.00    +0.000 C 
ATOM     13  C   UNL     1       3.117   4.651  18.847  0.00  0.00    +0.000 A 
ATOM     14  S   UNL     1       3.078   6.363  18.826  0.00  0.00    +0.000 S 
ATOM     15  C   UNL     1       2.146   6.382  20.241  0.00  0.00    +0.000 A 
ATOM     16  N   UNL     1       1.601   7.565  20.706  0.00  0.00    +0.000 N 
ATOM     17  C   UNL     1       1.462   8.714  19.945  0.00  0.00    +0.000 C 
ATOM     18  O   UNL     1       1.821   8.901  18.787  0.00  0.00    +0.000 OA
ATOM     19  N   UNL     1       2.021   5.222  20.852  0.00  0.00    +0.000 NA
ATOM     20  C   UNL     1       2.553   4.201  20.044  0.00  0.00    +0.000 A 
ATOM     21  H   UNL     1       1.094   7.469  21.578  0.00  0.00    +0.000 HD
ENDBRANCH   1  17
BRANCH   4  22
ATOM     22  S   UNL     1      -1.759  13.311  22.198  0.00  0.00    +0.000 S 
ATOM     23  O   UNL     1      -1.192  13.765  23.450  0.00  0.00    +0.000 OA
ATOM     24  O   UNL     1      -1.942  14.215  21.082  0.00  0.00    +0.000 OA
BRANCH  22  25
ATOM     25  N   UNL     1      -3.229  12.522  22.502  0.00  0.00    +0.000 NA
ATOM     26  C   UNL     1      -4.362  12.735  21.581  0.00  0.00    +0.000 C 
ATOM     27  C   UNL     1      -5.137  13.994  21.969  0.00  0.00    +0.000 C 
ATOM     28  C   UNL     1      -5.540  14.046  23.453  0.00  0.00    +0.000 C 
ATOM     29  C   UNL     1      -5.970  15.472  23.828  0.00  0.00    +0.000 C 
ATOM     30  C   UNL     1      -4.437  13.560  24.408  0.00  0.00    +0.000 C 
ATOM     31  C   UNL     1      -3.659  12.350  23.908  0.00  0.00    +0.000 C 
ENDBRANCH  22  25
ENDBRANCH   4  22
TORSDOF 3
ENDMDL
