MODEL 1
REMARK VINA RESULT:      -7.7      0.000      0.000
REMARK  Name = 
REMARK  1 active torsions:
REMARK  status: ('A' for Active; 'I' for Inactive)
REMARK    1  A    between atoms: C_4  and  C_5
REMARK                            x       y       z     vdW  Elec       q    Type
REMARK                         _______ _______ _______ _____ _____    ______ ____
ROOT
ATOM      1  C   UNL     1       3.280   3.557  17.542  0.00  0.00    +0.000 C 
ATOM      2  C   UNL     1       2.228   3.419  18.608  0.00  0.00    +0.000 C 
ATOM      3  C   UNL     1       2.439   3.301  20.066  0.00  0.00    +0.000 C 
ATOM      4  C   UNL     1       2.273   4.581  20.865  0.00  0.00    +0.000 C 
ATOM      5  C   UNL     1       2.001   5.838  20.087  0.00  0.00    +0.000 A 
ATOM      6  C   UNL     1       1.487   6.954  20.752  0.00  0.00    +0.000 A 
ATOM      7  C   UNL     1       1.538   8.206  20.164  0.00  0.00    +0.000 A 
ATOM      8  C   UNL     1       2.184   8.347  18.945  0.00  0.00    +0.000 A 
ATOM      9  C   UNL     1       2.606   7.217  18.226  0.00  0.00    +0.000 A 
ATOM     10  C   UNL     1       2.405   5.928  18.738  0.00  0.00    +0.000 A 
ATOM     11  C   UNL     1       2.321   4.711  17.837  0.00  0.00    +0.000 C 
ENDROOT
BRANCH   1  15
ATOM     12  C   UNL     1       7.237   4.693  16.208  0.00  0.00    +0.000 A 
ATOM     13  C   UNL     1       6.978   4.737  17.578  0.00  0.00    +0.000 A 
ATOM     14  C   UNL     1       5.706   4.404  18.087  0.00  0.00    +0.000 A 
ATOM     15  C   UNL     1       4.680   4.014  17.222  0.00  0.00    +0.000 A 
ATOM     16  C   UNL     1       4.987   4.001  15.834  0.00  0.00    +0.000 A 
ATOM     17  C   UNL     1       6.244   4.326  15.320  0.00  0.00    +0.000 A 
ENDBRANCH   1  15
TORSDOF 1
ENDMDL
MODEL 2
REMARK VINA RESULT:      -7.7      1.546      2.760
REMARK  Name = 
REMARK  1 active torsions:
REMARK  status: ('A' for Active; 'I' for Inactive)
REMARK    1  A    between atoms: C_4  and  C_5
REMARK                            x       y       z     vdW  Elec       q    Type
REMARK                         _______ _______ _______ _____ _____    ______ ____
ROOT
ATOM      1  C   UNL     1       4.977   4.802  16.742  0.00  0.00    +0.000 C 
ATOM      2  C   UNL     1       3.971   3.685  16.724  0.00  0.00    +0.000 C 
ATOM      3  C   UNL     1       4.036   2.407  17.463  0.00  0.00    +0.000 C 
ATOM      4  C   UNL     1       3.237   2.344  18.752  0.00  0.00    +0.000 C 
ATOM      5  C   UNL     1       2.541   3.605  19.182  0.00  0.00    +0.000 A 
ATOM      6  C   UNL     1       1.518   3.530  20.131  0.00  0.00    +0.000 A 
ATOM      7  C   UNL     1       1.090   4.669  20.792  0.00  0.00    +0.000 A 
ATOM      8  C   UNL     1       1.751   5.866  20.561  0.00  0.00    +0.000 A 
ATOM      9  C   UNL     1       2.705   5.968  19.534  0.00  0.00    +0.000 A 
ATOM     10  C   UNL     1       3.023   4.857  18.743  0.00  0.00    +0.000 A 
ATOM     11  C   UNL     1       3.584   5.005  17.341  0.00  0.00    +0.000 C 
ENDROOT
BRANCH   1  15
ATOM     12  C   UNL     1       8.164   7.040  18.631  0.00  0.00    +0.000 A 
ATOM     13  C   UNL     1       7.784   5.833  19.218  0.00  0.00    +0.000 A 
ATOM     14  C   UNL     1       6.738   5.059  18.675  0.00  0.00    +0.000 A 
ATOM     15  C   UNL     1       6.067   5.488  17.526  0.00  0.00    +0.000 A 
ATOM     16  C   UNL     1       6.477   6.731  16.974  0.00  0.00    +0.000 A 
ATOM     17  C   UNL     1       7.514   7.504  17.503  0.00  0.00    +0.000 A 
ENDBRANCH   1  15
TORSDOF 1
ENDMDL
MODEL 3
REMARK VINA RESULT:      -7.7      0.264      1.181
REMARK  Name = 
REMARK  1 active torsions:
REMARK  status: ('A' for Active; 'I' for Inactive)
REMARK    1  A    between atoms: C_4  and  C_5
REMARK                            x       y       z     vdW  Elec       q    Type
REMARK                         _______ _______ _______ _____ _____    ______ ____
ROOT
ATOM      1  C   UNL     1       3.135   3.507  17.507  0.00  0.00    +0.000 C 
ATOM      2  C   UNL     1       2.147   3.412  18.637  0.00  0.00    +0.000 C 
ATOM      3  C   UNL     1       2.441   3.340  20.083  0.00  0.00    +0.000 C 
ATOM      4  C   UNL     1       2.329   4.646  20.848  0.00  0.00    +0.000 C 
ATOM      5  C   UNL     1       2.019   5.879  20.045  0.00  0.00    +0.000 A 
ATOM      6  C   UNL     1       1.549   7.021  20.702  0.00  0.00    +0.000 A 
ATOM      7  C   UNL     1       1.573   8.252  20.070  0.00  0.00    +0.000 A 
ATOM      8  C   UNL     1       2.147   8.349  18.812  0.00  0.00    +0.000 A 
ATOM      9  C   UNL     1       2.521   7.192  18.107  0.00  0.00    +0.000 A 
ATOM     10  C   UNL     1       2.343   5.923  18.673  0.00  0.00    +0.000 A 
ATOM     11  C   UNL     1       2.201   4.677  17.819  0.00  0.00    +0.000 C 
ENDROOT
BRANCH   1  15
ATOM     12  C   UNL     1       7.164   4.889  16.743  0.00  0.00    +0.000 A 
ATOM     13  C   UNL     1       6.344   4.640  15.641  0.00  0.00    +0.000 A 
ATOM     14  C   UNL     1       5.028   4.165  15.809  0.00  0.00    +0.000 A 
ATOM     15  C   UNL     1       4.516   3.943  17.091  0.00  0.00    +0.000 A 
ATOM     16  C   UNL     1       5.393   4.195  18.180  0.00  0.00    +0.000 A 
ATOM     17  C   UNL     1       6.698   4.667  18.025  0.00  0.00    +0.000 A 
ENDBRANCH   1  15
TORSDOF 1
ENDMDL
MODEL 4
REMARK VINA RESULT:      -7.5      1.485      2.395
REMARK  Name = 
REMARK  1 active torsions:
REMARK  status: ('A' for Active; 'I' for Inactive)
REMARK    1  A    between atoms: C_4  and  C_5
REMARK                            x       y       z     vdW  Elec       q    Type
REMARK                         _______ _______ _______ _____ _____    ______ ____
ROOT
ATOM      1  C   UNL     1       4.934   4.627  16.996  0.00  0.00    +0.000 C 
ATOM      2  C   UNL     1       3.908   3.620  17.436  0.00  0.00    +0.000 C 
ATOM      3  C   UNL     1       3.976   2.723  18.608  0.00  0.00    +0.000 C 
ATOM      4  C   UNL     1       3.223   3.185  19.842  0.00  0.00    +0.000 C 
ATOM      5  C   UNL     1       2.567   4.536  19.772  0.00  0.00    +0.000 A 
ATOM      6  C   UNL     1       1.577   4.863  20.703  0.00  0.00    +0.000 A 
ATOM      7  C   UNL     1       1.195   6.181  20.886  0.00  0.00    +0.000 A 
ATOM      8  C   UNL     1       1.869   7.176  20.194  0.00  0.00    +0.000 A 
ATOM      9  C   UNL     1       2.787   6.846  19.182  0.00  0.00    +0.000 A 
ATOM     10  C   UNL     1       3.056   5.506  18.872  0.00  0.00    +0.000 A 
ATOM     11  C   UNL     1       3.568   5.087  17.507  0.00  0.00    +0.000 C 
ENDROOT
BRANCH   1  15
ATOM     12  C   UNL     1       8.183   6.978  18.621  0.00  0.00    +0.000 A 
ATOM     13  C   UNL     1       7.530   7.470  17.490  0.00  0.00    +0.000 A 
ATOM     14  C   UNL     1       6.478   6.749  16.889  0.00  0.00    +0.000 A 
ATOM     15  C   UNL     1       6.064   5.527  17.426  0.00  0.00    +0.000 A 
ATOM     16  C   UNL     1       6.770   5.059  18.567  0.00  0.00    +0.000 A 
ATOM     17  C   UNL     1       7.812   5.767  19.171  0.00  0.00    +0.000 A 
ENDBRANCH   1  15
TORSDOF 1
ENDMDL
MODEL 5
REMARK VINA RESULT:      -7.4      1.852      5.176
REMARK  Name = 
REMARK  1 active torsions:
REMARK  status: ('A' for Active; 'I' for Inactive)
REMARK    1  A    between atoms: C_4  and  C_5
REMARK                            x       y       z     vdW  Elec       q    Type
REMARK                         _______ _______ _______ _____ _____    ______ ____
ROOT
ATOM      1  C   UNL     1       3.611   6.959  17.702  0.00  0.00    +0.000 C 
ATOM      2  C   UNL     1       4.642   5.864  17.695  0.00  0.00    +0.000 C 
ATOM      3  C   UNL     1       5.419   5.356  18.845  0.00  0.00    +0.000 C 
ATOM      4  C   UNL     1       4.898   4.085  19.488  0.00  0.00    +0.000 C 
ATOM      5  C   UNL     1       3.608   3.529  18.950  0.00  0.00    +0.000 A 
ATOM      6  C   UNL     1       3.266   2.204  19.231  0.00  0.00    +0.000 A 
ATOM      7  C   UNL     1       1.967   1.762  19.049  0.00  0.00    +0.000 A 
ATOM      8  C   UNL     1       0.996   2.675  18.667  0.00  0.00    +0.000 A 
ATOM      9  C   UNL     1       1.354   3.978  18.281  0.00  0.00    +0.000 A 
ATOM     10  C   UNL     1       2.694   4.385  18.299  0.00  0.00    +0.000 A 
ATOM     11  C   UNL     1       3.202   5.512  17.420  0.00  0.00    +0.000 C 
ENDROOT
BRANCH   1  15
ATOM     12  C   UNL     1       0.728   9.455  19.747  0.00  0.00    +0.000 A 
ATOM     13  C   UNL     1       1.276   8.385  20.454  0.00  0.00    +0.000 A 
ATOM     14  C   UNL     1       2.203   7.513  19.848  0.00  0.00    +0.000 A 
ATOM     15  C   UNL     1       2.598   7.714  18.523  0.00  0.00    +0.000 A 
ATOM     16  C   UNL     1       2.000   8.806  17.838  0.00  0.00    +0.000 A 
ATOM     17  C   UNL     1       1.082   9.677  18.430  0.00  0.00    +0.000 A 
ENDBRANCH   1  15
TORSDOF 1
ENDMDL
MODEL 6
REMARK VINA RESULT:      -7.2      1.180      5.329
REMARK  Name = 
REMARK  1 active torsions:
REMARK  status: ('A' for Active; 'I' for Inactive)
REMARK    1  A    between atoms: C_4  and  C_5
REMARK                            x       y       z     vdW  Elec       q    Type
REMARK                         _______ _______ _______ _____ _____    ______ ____
ROOT
ATOM      1  C   UNL     1       2.634   5.857  19.883  0.00  0.00    +0.000 C 
ATOM      2  C   UNL     1       2.880   4.423  19.504  0.00  0.00    +0.000 C 
ATOM      3  C   UNL     1       2.269   3.672  18.388  0.00  0.00    +0.000 C 
ATOM      4  C   UNL     1       3.108   3.556  17.128  0.00  0.00    +0.000 C 
ATOM      5  C   UNL     1       4.423   4.285  17.118  0.00  0.00    +0.000 A 
ATOM      6  C   UNL     1       5.388   3.937  16.170  0.00  0.00    +0.000 A 
ATOM      7  C   UNL     1       6.451   4.784  15.908  0.00  0.00    +0.000 A 
ATOM      8  C   UNL     1       6.495   6.018  16.539  0.00  0.00    +0.000 A 
ATOM      9  C   UNL     1       5.590   6.326  17.569  0.00  0.00    +0.000 A 
ATOM     10  C   UNL     1       4.611   5.402  17.959  0.00  0.00    +0.000 A 
ATOM     11  C   UNL     1       3.998   5.422  19.346  0.00  0.00    +0.000 C 
ENDROOT
BRANCH   1  15
ATOM     12  C   UNL     1       1.179   9.807  18.878  0.00  0.00    +0.000 A 
ATOM     13  C   UNL     1       1.777   9.059  17.864  0.00  0.00    +0.000 A 
ATOM     14  C   UNL     1       2.297   7.774  18.120  0.00  0.00    +0.000 A 
ATOM     15  C   UNL     1       2.212   7.221  19.400  0.00  0.00    +0.000 A 
ATOM     16  C   UNL     1       1.609   8.026  20.404  0.00  0.00    +0.000 A 
ATOM     17  C   UNL     1       1.089   9.299  20.160  0.00  0.00    +0.000 A 
ENDBRANCH   1  15
TORSDOF 1
ENDMDL
MODEL 7
REMARK VINA RESULT:      -7.2      1.585      2.319
REMARK  Name = 
REMARK  1 active torsions:
REMARK  status: ('A' for Active; 'I' for Inactive)
REMARK    1  A    between atoms: C_4  and  C_5
REMARK                            x       y       z     vdW  Elec       q    Type
REMARK                         _______ _______ _______ _____ _____    ______ ____
ROOT
ATOM      1  C   UNL     1       3.502   5.054  18.251  0.00  0.00    +0.000 C 
ATOM      2  C   UNL     1       2.250   5.120  19.081  0.00  0.00    +0.000 C 
ATOM      3  C   UNL     1       2.144   5.423  20.523  0.00  0.00    +0.000 C 
ATOM      4  C   UNL     1       1.773   6.852  20.875  0.00  0.00    +0.000 C 
ATOM      5  C   UNL     1       1.640   7.820  19.733  0.00  0.00    +0.000 A 
ATOM      6  C   UNL     1       0.962   9.026  19.935  0.00  0.00    +0.000 A 
ATOM      7  C   UNL     1       1.104  10.070  19.037  0.00  0.00    +0.000 A 
ATOM      8  C   UNL     1       1.993   9.929  17.982  0.00  0.00    +0.000 A 
ATOM      9  C   UNL     1       2.593   8.687  17.714  0.00  0.00    +0.000 A 
ATOM     10  C   UNL     1       2.322   7.575  18.522  0.00  0.00    +0.000 A 
ATOM     11  C   UNL     1       2.469   6.155  18.008  0.00  0.00    +0.000 C 
ENDROOT
BRANCH   1  15
ATOM     12  C   UNL     1       7.635   6.336  18.258  0.00  0.00    +0.000 A 
ATOM     13  C   UNL     1       6.859   6.657  17.144  0.00  0.00    +0.000 A 
ATOM     14  C   UNL     1       5.511   6.253  17.058  0.00  0.00    +0.000 A 
ATOM     15  C   UNL     1       4.924   5.528  18.099  0.00  0.00    +0.000 A 
ATOM     16  C   UNL     1       5.759   5.210  19.204  0.00  0.00    +0.000 A 
ATOM     17  C   UNL     1       7.094   5.607  19.300  0.00  0.00    +0.000 A 
ENDBRANCH   1  15
TORSDOF 1
ENDMDL
MODEL 8
REMARK VINA RESULT:      -7.2      1.899      4.224
REMARK  Name = 
REMARK  1 active torsions:
REMARK  status: ('A' for Active; 'I' for Inactive)
REMARK    1  A    between atoms: C_4  and  C_5
REMARK                            x       y       z     vdW  Elec       q    Type
REMARK                         _______ _______ _______ _____ _____    ______ ____
ROOT
ATOM      1  C   UNL     1       7.055   5.069  16.206  0.00  0.00    +0.000 C 
ATOM      2  C   UNL     1       6.541   5.957  17.306  0.00  0.00    +0.000 C 
ATOM      3  C   UNL     1       5.760   7.203  17.163  0.00  0.00    +0.000 C 
ATOM      4  C   UNL     1       4.259   7.070  17.344  0.00  0.00    +0.000 C 
ATOM      5  C   UNL     1       3.721   5.682  17.559  0.00  0.00    +0.000 A 
ATOM      6  C   UNL     1       2.436   5.523  18.085  0.00  0.00    +0.000 A 
ATOM      7  C   UNL     1       1.785   4.306  17.987  0.00  0.00    +0.000 A 
ATOM      8  C   UNL     1       2.392   3.276  17.285  0.00  0.00    +0.000 A 
ATOM      9  C   UNL     1       3.723   3.396  16.850  0.00  0.00    +0.000 A 
ATOM     10  C   UNL     1       4.451   4.567  17.095  0.00  0.00    +0.000 A 
ATOM     11  C   UNL     1       5.966   4.571  17.158  0.00  0.00    +0.000 C 
ENDROOT
BRANCH   1  15
ATOM     12  C   UNL     1       6.728   4.102  12.001  0.00  0.00    +0.000 A 
ATOM     13  C   UNL     1       5.907   3.409  12.891  0.00  0.00    +0.000 A 
ATOM     14  C   UNL     1       5.974   3.651  14.278  0.00  0.00    +0.000 A 
ATOM     15  C   UNL     1       6.861   4.603  14.786  0.00  0.00    +0.000 A 
ATOM     16  C   UNL     1       7.688   5.272  13.843  0.00  0.00    +0.000 A 
ATOM     17  C   UNL     1       7.628   5.041  12.467  0.00  0.00    +0.000 A 
ENDBRANCH   1  15
TORSDOF 1
ENDMDL
MODEL 9
REMARK VINA RESULT:      -7.1      2.010      5.507
REMARK  Name = 
REMARK  1 active torsions:
REMARK  status: ('A' for Active; 'I' for Inactive)
REMARK    1  A    between atoms: C_4  and  C_5
REMARK                            x       y       z     vdW  Elec       q    Type
REMARK                         _______ _______ _______ _____ _____    ______ ____
ROOT
ATOM      1  C   UNL     1       4.055   5.456  18.832  0.00  0.00    +0.000 C 
ATOM      2  C   UNL     1       5.416   6.079  18.699  0.00  0.00    +0.000 C 
ATOM      3  C   UNL     1       6.723   5.453  18.991  0.00  0.00    +0.000 C 
ATOM      4  C   UNL     1       7.480   4.908  17.794  0.00  0.00    +0.000 C 
ATOM      5  C   UNL     1       6.788   4.982  16.461  0.00  0.00    +0.000 A 
ATOM      6  C   UNL     1       7.542   4.844  15.293  0.00  0.00    +0.000 A 
ATOM      7  C   UNL     1       6.921   4.572  14.086  0.00  0.00    +0.000 A 
ATOM      8  C   UNL     1       5.552   4.356  14.071  0.00  0.00    +0.000 A 
ATOM      9  C   UNL     1       4.778   4.598  15.218  0.00  0.00    +0.000 A 
ATOM     10  C   UNL     1       5.380   5.040  16.404  0.00  0.00    +0.000 A 
ATOM     11  C   UNL     1       4.608   5.818  17.453  0.00  0.00    +0.000 C 
ENDROOT
BRANCH   1  15
ATOM     12  C   UNL     1       1.445   2.008  19.027  0.00  0.00    +0.000 A 
ATOM     13  C   UNL     1       2.804   1.781  18.803  0.00  0.00    +0.000 A 
ATOM     14  C   UNL     1       3.712   2.855  18.703  0.00  0.00    +0.000 A 
ATOM     15  C   UNL     1       3.265   4.172  18.837  0.00  0.00    +0.000 A 
ATOM     16  C   UNL     1       1.871   4.354  19.047  0.00  0.00    +0.000 A 
ATOM     17  C   UNL     1       0.964   3.297  19.150  0.00  0.00    +0.000 A 
ENDBRANCH   1  15
TORSDOF 1
ENDMDL
