MODEL 1
REMARK VINA RESULT:      -8.4      0.000      0.000
REMARK  Name = 
REMARK  6 active torsions:
REMARK  status: ('A' for Active; 'I' for Inactive)
REMARK    1  A    between atoms: C_6  and  C_7
REMARK    2  A    between atoms: N_9  and  N_10
REMARK    3  A    between atoms: C_11  and  C_12
REMARK    4  A    between atoms: C_15  and  C_16
REMARK    5  A    between atoms: C_21  and  C_22
REMARK    6  A    between atoms: C_22  and  O_24
REMARK                            x       y       z     vdW  Elec       q    Type
REMARK                         _______ _______ _______ _____ _____    ______ ____
ROOT
ATOM      1  C   UNL     1       2.980   4.559  18.997  0.00  0.00    +0.000 A 
ATOM      2  C   UNL     1       2.852   3.195  18.823  0.00  0.00    +0.000 A 
ATOM      3  C   UNL     1       3.612   2.858  17.686  0.00  0.00    +0.000 A 
ATOM      4  C   UNL     1       4.188   4.026  17.225  0.00  0.00    +0.000 A 
ATOM      5  O   UNL     1       3.787   5.077  18.014  0.00  0.00    +0.000 OA
ENDROOT
BRANCH   4   6
ATOM      6  C   UNL     1       5.143   4.292  16.149  0.00  0.00    +0.000 A 
ATOM      7  C   UNL     1       6.215   5.163  16.390  0.00  0.00    +0.000 A 
ATOM      8  C   UNL     1       7.132   5.475  15.386  0.00  0.00    +0.000 A 
ATOM      9  C   UNL     1       7.005   4.918  14.110  0.00  0.00    +0.000 A 
ATOM     10 CL   UNL     1       8.196   5.415  12.960  0.00  0.00    +0.000 Cl
ATOM     11  C   UNL     1       5.960   4.024  13.837  0.00  0.00    +0.000 A 
ATOM     12  C   UNL     1       5.037   3.722  14.873  0.00  0.00    +0.000 A 
BRANCH  11  13
ATOM     13  C   UNL     1       5.719   3.336  12.535  0.00  0.00    +0.000 C 
ATOM     14  O   UNL     1       4.670   3.485  11.919  0.00  0.00    +0.000 OA
BRANCH  13  15
ATOM     15  O   UNL     1       6.697   2.556  12.043  0.00  0.00    +0.000 OA
ATOM     16  H   UNL     1       7.561   2.617  12.492  0.00  0.00    +0.000 HD
ENDBRANCH  13  15
ENDBRANCH  11  13
ENDBRANCH   4   6
BRANCH   1  18
ATOM     17  N   UNL     1       2.443   6.692  19.830  0.00  0.00    +0.000 NA
ATOM     18  C   UNL     1       2.421   5.409  20.019  0.00  0.00    +0.000 C 
BRANCH  17  21
ATOM     19  C   UNL     1       1.301   8.703  20.430  0.00  0.00    +0.000 C 
ATOM     20  O   UNL     1       1.214   9.115  19.273  0.00  0.00    +0.000 OA
ATOM     21  N   UNL     1       1.911   7.500  20.793  0.00  0.00    +0.000 N 
ATOM     22  H   UNL     1       1.946   7.240  21.776  0.00  0.00    +0.000 HD
BRANCH  19  28
ATOM     23  N   UNL     1      -0.691  11.142  20.479  0.00  0.00    +0.000 N 
ATOM     24  C   UNL     1      -0.138  10.549  21.555  0.00  0.00    +0.000 A 
ATOM     25  N   UNL     1      -0.370  10.925  22.810  0.00  0.00    +0.000 NA
ATOM     26  O   UNL     1       0.390  10.080  23.599  0.00  0.00    +0.000 OA
ATOM     27  N   UNL     1       1.099   9.166  22.826  0.00  0.00    +0.000 NA
ATOM     28  C   UNL     1       0.766   9.456  21.558  0.00  0.00    +0.000 A 
ATOM     29  H   UNL     1      -1.216  11.999  20.599  0.00  0.00    +0.000 HD
ATOM     30  H   UNL     1      -0.326  10.987  19.542  0.00  0.00    +0.000 HD
ENDBRANCH  19  28
ENDBRANCH  17  21
ENDBRANCH   1  18
TORSDOF 6
ENDMDL
MODEL 2
REMARK VINA RESULT:      -8.1      4.440      5.963
REMARK  Name = 
REMARK  6 active torsions:
REMARK  status: ('A' for Active; 'I' for Inactive)
REMARK    1  A    between atoms: C_6  and  C_7
REMARK    2  A    between atoms: N_9  and  N_10
REMARK    3  A    between atoms: C_11  and  C_12
REMARK    4  A    between atoms: C_15  and  C_16
REMARK    5  A    between atoms: C_21  and  C_22
REMARK    6  A    between atoms: C_22  and  O_24
REMARK                            x       y       z     vdW  Elec       q    Type
REMARK                         _______ _______ _______ _____ _____    ______ ____
ROOT
ATOM      1  C   UNL     1       1.290   9.333  18.914  0.00  0.00    +0.000 A 
ATOM      2  C   UNL     1       1.960   9.426  17.710  0.00  0.00    +0.000 A 
ATOM      3  C   UNL     1       2.761   8.273  17.601  0.00  0.00    +0.000 A 
ATOM      4  C   UNL     1       2.532   7.515  18.733  0.00  0.00    +0.000 A 
ATOM      5  O   UNL     1       1.645   8.170  19.553  0.00  0.00    +0.000 OA
ENDROOT
BRANCH   4   6
ATOM      6  C   UNL     1       2.998   6.188  19.137  0.00  0.00    +0.000 A 
ATOM      7  C   UNL     1       4.222   5.716  18.642  0.00  0.00    +0.000 A 
ATOM      8  C   UNL     1       4.692   4.445  18.971  0.00  0.00    +0.000 A 
ATOM      9  C   UNL     1       3.952   3.609  19.812  0.00  0.00    +0.000 A 
ATOM     10 CL   UNL     1       4.644   2.053  20.111  0.00  0.00    +0.000 Cl
ATOM     11  C   UNL     1       2.734   4.054  20.346  0.00  0.00    +0.000 A 
ATOM     12  C   UNL     1       2.274   5.352  19.997  0.00  0.00    +0.000 A 
BRANCH  11  13
ATOM     13  C   UNL     1       1.856   3.284  21.275  0.00  0.00    +0.000 C 
ATOM     14  O   UNL     1       2.259   2.907  22.368  0.00  0.00    +0.000 OA
BRANCH  13  15
ATOM     15  O   UNL     1       0.595   3.028  20.884  0.00  0.00    +0.000 OA
ATOM     16  H   UNL     1      -0.012   2.705  21.577  0.00  0.00    +0.000 HD
ENDBRANCH  13  15
ENDBRANCH  11  13
ENDBRANCH   4   6
BRANCH   1  18
ATOM     17  N   UNL     1       0.275  10.312  20.797  0.00  0.00    +0.000 NA
ATOM     18  C   UNL     1       0.333  10.237  19.503  0.00  0.00    +0.000 C 
BRANCH  17  21
ATOM     19  C   UNL     1      -0.846  11.139  22.738  0.00  0.00    +0.000 C 
ATOM     20  O   UNL     1      -0.284  10.365  23.513  0.00  0.00    +0.000 OA
ATOM     21  N   UNL     1      -0.626  11.170  21.358  0.00  0.00    +0.000 N 
ATOM     22  H   UNL     1      -1.142  11.837  20.790  0.00  0.00    +0.000 HD
BRANCH  19  28
ATOM     23  N   UNL     1      -0.605  14.266  23.027  0.00  0.00    +0.000 N 
ATOM     24  C   UNL     1      -1.692  13.526  23.314  0.00  0.00    +0.000 A 
ATOM     25  N   UNL     1      -2.837  14.034  23.767  0.00  0.00    +0.000 NA
ATOM     26  O   UNL     1      -3.680  12.951  23.945  0.00  0.00    +0.000 OA
ATOM     27  N   UNL     1      -3.055  11.758  23.595  0.00  0.00    +0.000 NA
ATOM     28  C   UNL     1      -1.823  12.118  23.199  0.00  0.00    +0.000 A 
ATOM     29  H   UNL     1      -0.590  15.247  23.277  0.00  0.00    +0.000 HD
ATOM     30  H   UNL     1       0.311  13.839  22.904  0.00  0.00    +0.000 HD
ENDBRANCH  19  28
ENDBRANCH  17  21
ENDBRANCH   1  18
TORSDOF 6
ENDMDL
MODEL 3
REMARK VINA RESULT:      -8.1      6.036      8.126
REMARK  Name = 
REMARK  6 active torsions:
REMARK  status: ('A' for Active; 'I' for Inactive)
REMARK    1  A    between atoms: C_6  and  C_7
REMARK    2  A    between atoms: N_9  and  N_10
REMARK    3  A    between atoms: C_11  and  C_12
REMARK    4  A    between atoms: C_15  and  C_16
REMARK    5  A    between atoms: C_21  and  C_22
REMARK    6  A    between atoms: C_22  and  O_24
REMARK                            x       y       z     vdW  Elec       q    Type
REMARK                         _______ _______ _______ _____ _____    ______ ____
ROOT
ATOM      1  C   UNL     1       7.247   6.664  17.643  0.00  0.00    +0.000 A 
ATOM      2  C   UNL     1       7.156   6.326  16.307  0.00  0.00    +0.000 A 
ATOM      3  C   UNL     1       6.065   5.444  16.184  0.00  0.00    +0.000 A 
ATOM      4  C   UNL     1       5.522   5.296  17.446  0.00  0.00    +0.000 A 
ATOM      5  O   UNL     1       6.255   6.027  18.350  0.00  0.00    +0.000 OA
ENDROOT
BRANCH   4   6
ATOM      6  C   UNL     1       4.334   4.590  17.928  0.00  0.00    +0.000 A 
ATOM      7  C   UNL     1       3.676   3.700  17.068  0.00  0.00    +0.000 A 
ATOM      8  C   UNL     1       2.520   3.030  17.469  0.00  0.00    +0.000 A 
ATOM      9  C   UNL     1       1.994   3.226  18.749  0.00  0.00    +0.000 A 
ATOM     10 CL   UNL     1       0.544   2.351  19.099  0.00  0.00    +0.000 Cl
ATOM     11  C   UNL     1       2.637   4.091  19.646  0.00  0.00    +0.000 A 
ATOM     12  C   UNL     1       3.811   4.764  19.216  0.00  0.00    +0.000 A 
BRANCH  11  13
ATOM     13  C   UNL     1       2.204   4.374  21.046  0.00  0.00    +0.000 C 
ATOM     14  O   UNL     1       2.156   3.489  21.891  0.00  0.00    +0.000 OA
BRANCH  13  15
ATOM     15  O   UNL     1       1.883   5.641  21.363  0.00  0.00    +0.000 OA
ATOM     16  H   UNL     1       1.660   6.227  20.615  0.00  0.00    +0.000 HD
ENDBRANCH  13  15
ENDBRANCH  11  13
ENDBRANCH   4   6
BRANCH   1  18
ATOM     17  N   UNL     1       8.138   8.810  18.007  0.00  0.00    +0.000 NA
ATOM     18  C   UNL     1       8.173   7.548  18.304  0.00  0.00    +0.000 C 
BRANCH  17  21
ATOM     19  C   UNL     1       9.005  11.014  18.327  0.00  0.00    +0.000 C 
ATOM     20  O   UNL     1       8.259  11.534  17.496  0.00  0.00    +0.000 OA
ATOM     21  N   UNL     1       9.011   9.651  18.635  0.00  0.00    +0.000 N 
ATOM     22  H   UNL     1       9.668   9.303  19.329  0.00  0.00    +0.000 HD
BRANCH  19  28
ATOM     23  N   UNL     1      12.013  11.679  17.676  0.00  0.00    +0.000 N 
ATOM     24  C   UNL     1      11.330  12.084  18.764  0.00  0.00    +0.000 A 
ATOM     25  N   UNL     1      11.851  12.840  19.728  0.00  0.00    +0.000 NA
ATOM     26  O   UNL     1      10.836  13.015  20.653  0.00  0.00    +0.000 OA
ATOM     27  N   UNL     1       9.672  12.365  20.258  0.00  0.00    +0.000 NA
ATOM     28  C   UNL     1       9.979  11.792  19.082  0.00  0.00    +0.000 A 
ATOM     29  H   UNL     1      13.012  11.841  17.628  0.00  0.00    +0.000 HD
ATOM     30  H   UNL     1      11.668  10.929  17.082  0.00  0.00    +0.000 HD
ENDBRANCH  19  28
ENDBRANCH  17  21
ENDBRANCH   1  18
TORSDOF 6
ENDMDL
MODEL 4
REMARK VINA RESULT:      -7.9      4.554      6.124
REMARK  Name = 
REMARK  6 active torsions:
REMARK  status: ('A' for Active; 'I' for Inactive)
REMARK    1  A    between atoms: C_6  and  C_7
REMARK    2  A    between atoms: N_9  and  N_10
REMARK    3  A    between atoms: C_11  and  C_12
REMARK    4  A    between atoms: C_15  and  C_16
REMARK    5  A    between atoms: C_21  and  C_22
REMARK    6  A    between atoms: C_22  and  O_24
REMARK                            x       y       z     vdW  Elec       q    Type
REMARK                         _______ _______ _______ _____ _____    ______ ____
ROOT
ATOM      1  C   UNL     1       1.101   9.592  19.224  0.00  0.00    +0.000 A 
ATOM      2  C   UNL     1       1.661   9.722  17.968  0.00  0.00    +0.000 A 
ATOM      3  C   UNL     1       2.442   8.571  17.751  0.00  0.00    +0.000 A 
ATOM      4  C   UNL     1       2.313   7.777  18.874  0.00  0.00    +0.000 A 
ATOM      5  O   UNL     1       1.507   8.408  19.791  0.00  0.00    +0.000 OA
ENDROOT
BRANCH   4   6
ATOM      6  C   UNL     1       2.807   6.437  19.192  0.00  0.00    +0.000 A 
ATOM      7  C   UNL     1       3.999   5.993  18.603  0.00  0.00    +0.000 A 
ATOM      8  C   UNL     1       4.492   4.711  18.848  0.00  0.00    +0.000 A 
ATOM      9  C   UNL     1       3.808   3.838  19.699  0.00  0.00    +0.000 A 
ATOM     10 CL   UNL     1       4.521   2.274  19.888  0.00  0.00    +0.000 Cl
ATOM     11  C   UNL     1       2.625   4.254  20.326  0.00  0.00    +0.000 A 
ATOM     12  C   UNL     1       2.140   5.562  20.060  0.00  0.00    +0.000 A 
BRANCH  11  13
ATOM     13  C   UNL     1       1.808   3.441  21.274  0.00  0.00    +0.000 C 
ATOM     14  O   UNL     1       2.225   3.152  22.389  0.00  0.00    +0.000 OA
BRANCH  13  15
ATOM     15  O   UNL     1       0.586   3.046  20.876  0.00  0.00    +0.000 OA
ATOM     16  H   UNL     1       0.437   2.082  20.843  0.00  0.00    +0.000 HD
ENDBRANCH  13  15
ENDBRANCH  11  13
ENDBRANCH   4   6
BRANCH   1  18
ATOM     17  N   UNL     1       0.720  11.445  20.623  0.00  0.00    +0.000 NA
ATOM     18  C   UNL     1       0.207  10.478  19.926  0.00  0.00    +0.000 C 
BRANCH  17  21
ATOM     19  C   UNL     1      -0.582  11.952  22.561  0.00  0.00    +0.000 C 
ATOM     20  O   UNL     1      -0.286  10.913  23.153  0.00  0.00    +0.000 OA
ATOM     21  N   UNL     1      -0.125  12.288  21.284  0.00  0.00    +0.000 N 
ATOM     22  H   UNL     1      -0.427  13.164  20.865  0.00  0.00    +0.000 HD
BRANCH  19  28
ATOM     23  N   UNL     1      -3.720  12.197  22.463  0.00  0.00    +0.000 N 
ATOM     24  C   UNL     1      -2.880  13.035  23.099  0.00  0.00    +0.000 A 
ATOM     25  N   UNL     1      -3.278  14.102  23.789  0.00  0.00    +0.000 NA
ATOM     26  O   UNL     1      -2.120  14.690  24.266  0.00  0.00    +0.000 OA
ATOM     27  N   UNL     1      -0.990  13.980  23.872  0.00  0.00    +0.000 NA
ATOM     28  C   UNL     1      -1.465  12.950  23.152  0.00  0.00    +0.000 A 
ATOM     29  H   UNL     1      -4.700  12.439  22.386  0.00  0.00    +0.000 HD
ATOM     30  H   UNL     1      -3.383  11.535  21.766  0.00  0.00    +0.000 HD
ENDBRANCH  19  28
ENDBRANCH  17  21
ENDBRANCH   1  18
TORSDOF 6
ENDMDL
MODEL 5
REMARK VINA RESULT:      -7.8      3.843      5.874
REMARK  Name = 
REMARK  6 active torsions:
REMARK  status: ('A' for Active; 'I' for Inactive)
REMARK    1  A    between atoms: C_6  and  C_7
REMARK    2  A    between atoms: N_9  and  N_10
REMARK    3  A    between atoms: C_11  and  C_12
REMARK    4  A    between atoms: C_15  and  C_16
REMARK    5  A    between atoms: C_21  and  C_22
REMARK    6  A    between atoms: C_22  and  O_24
REMARK                            x       y       z     vdW  Elec       q    Type
REMARK                         _______ _______ _______ _____ _____    ______ ____
ROOT
ATOM      1  C   UNL     1       1.053   9.894  19.379  0.00  0.00    +0.000 A 
ATOM      2  C   UNL     1       1.584   9.899  18.104  0.00  0.00    +0.000 A 
ATOM      3  C   UNL     1       2.240   8.666  17.932  0.00  0.00    +0.000 A 
ATOM      4  C   UNL     1       2.067   7.950  19.101  0.00  0.00    +0.000 A 
ATOM      5  O   UNL     1       1.356   8.707  20.001  0.00  0.00    +0.000 OA
ENDROOT
BRANCH   4   6
ATOM      6  C   UNL     1       2.435   6.586  19.482  0.00  0.00    +0.000 A 
ATOM      7  C   UNL     1       1.676   5.924  20.456  0.00  0.00    +0.000 A 
ATOM      8  C   UNL     1       2.008   4.636  20.878  0.00  0.00    +0.000 A 
ATOM      9  C   UNL     1       3.107   3.970  20.328  0.00  0.00    +0.000 A 
ATOM     10 CL   UNL     1       3.415   2.392  20.964  0.00  0.00    +0.000 Cl
ATOM     11  C   UNL     1       3.877   4.590  19.334  0.00  0.00    +0.000 A 
ATOM     12  C   UNL     1       3.522   5.902  18.921  0.00  0.00    +0.000 A 
BRANCH  11  13
ATOM     13  C   UNL     1       5.056   3.991  18.643  0.00  0.00    +0.000 C 
ATOM     14  O   UNL     1       6.201   4.272  18.976  0.00  0.00    +0.000 OA
BRANCH  13  15
ATOM     15  O   UNL     1       4.827   3.116  17.648  0.00  0.00    +0.000 OA
ATOM     16  H   UNL     1       5.407   2.331  17.626  0.00  0.00    +0.000 HD
ENDBRANCH  13  15
ENDBRANCH  11  13
ENDBRANCH   4   6
BRANCH   1  18
ATOM     17  N   UNL     1       0.703  11.357  21.188  0.00  0.00    +0.000 NA
ATOM     18  C   UNL     1       0.272  10.902  20.052  0.00  0.00    +0.000 C 
BRANCH  17  21
ATOM     19  C   UNL     1      -0.960  11.942  22.800  0.00  0.00    +0.000 C 
ATOM     20  O   UNL     1      -1.188  10.778  23.133  0.00  0.00    +0.000 OA
ATOM     21  N   UNL     1      -0.031  12.314  21.825  0.00  0.00    +0.000 N 
ATOM     22  H   UNL     1       0.088  13.301  21.606  0.00  0.00    +0.000 HD
BRANCH  19  28
ATOM     23  N   UNL     1      -4.006  12.286  23.517  0.00  0.00    +0.000 N 
ATOM     24  C   UNL     1      -3.037  13.196  23.726  0.00  0.00    +0.000 A 
ATOM     25  N   UNL     1      -3.245  14.389  24.279  0.00  0.00    +0.000 NA
ATOM     26  O   UNL     1      -2.009  15.012  24.299  0.00  0.00    +0.000 OA
ATOM     27  N   UNL     1      -1.022  14.196  23.756  0.00  0.00    +0.000 NA
ATOM     28  C   UNL     1      -1.660  13.068  23.406  0.00  0.00    +0.000 A 
ATOM     29  H   UNL     1      -4.974  12.547  23.666  0.00  0.00    +0.000 HD
ATOM     30  H   UNL     1      -3.865  11.492  22.897  0.00  0.00    +0.000 HD
ENDBRANCH  19  28
ENDBRANCH  17  21
ENDBRANCH   1  18
TORSDOF 6
ENDMDL
MODEL 6
REMARK VINA RESULT:      -7.8      5.905      7.946
REMARK  Name = 
REMARK  6 active torsions:
REMARK  status: ('A' for Active; 'I' for Inactive)
REMARK    1  A    between atoms: C_6  and  C_7
REMARK    2  A    between atoms: N_9  and  N_10
REMARK    3  A    between atoms: C_11  and  C_12
REMARK    4  A    between atoms: C_15  and  C_16
REMARK    5  A    between atoms: C_21  and  C_22
REMARK    6  A    between atoms: C_22  and  O_24
REMARK                            x       y       z     vdW  Elec       q    Type
REMARK                         _______ _______ _______ _____ _____    ______ ____
ROOT
ATOM      1  C   UNL     1       7.231   6.541  17.590  0.00  0.00    +0.000 A 
ATOM      2  C   UNL     1       7.145   6.164  16.264  0.00  0.00    +0.000 A 
ATOM      3  C   UNL     1       6.048   5.287  16.161  0.00  0.00    +0.000 A 
ATOM      4  C   UNL     1       5.497   5.180  17.423  0.00  0.00    +0.000 A 
ATOM      5  O   UNL     1       6.231   5.932  18.309  0.00  0.00    +0.000 OA
ENDROOT
BRANCH   4   6
ATOM      6  C   UNL     1       4.302   4.497  17.918  0.00  0.00    +0.000 A 
ATOM      7  C   UNL     1       3.613   3.625  17.064  0.00  0.00    +0.000 A 
ATOM      8  C   UNL     1       2.449   2.977  17.478  0.00  0.00    +0.000 A 
ATOM      9  C   UNL     1       1.945   3.178  18.766  0.00  0.00    +0.000 A 
ATOM     10 CL   UNL     1       0.482   2.332  19.132  0.00  0.00    +0.000 Cl
ATOM     11  C   UNL     1       2.618   4.025  19.658  0.00  0.00    +0.000 A 
ATOM     12  C   UNL     1       3.801   4.675  19.214  0.00  0.00    +0.000 A 
BRANCH  11  13
ATOM     13  C   UNL     1       2.212   4.311  21.065  0.00  0.00    +0.000 C 
ATOM     14  O   UNL     1       2.121   3.416  21.897  0.00  0.00    +0.000 OA
BRANCH  13  15
ATOM     15  O   UNL     1       1.962   5.588  21.402  0.00  0.00    +0.000 OA
ATOM     16  H   UNL     1       1.021   5.841  21.459  0.00  0.00    +0.000 HD
ENDBRANCH  13  15
ENDBRANCH  11  13
ENDBRANCH   4   6
BRANCH   1  18
ATOM     17  N   UNL     1       8.069   8.705  17.972  0.00  0.00    +0.000 NA
ATOM     18  C   UNL     1       8.160   7.437  18.231  0.00  0.00    +0.000 C 
BRANCH  17  21
ATOM     19  C   UNL     1       8.892  10.924  18.299  0.00  0.00    +0.000 C 
ATOM     20  O   UNL     1       8.101  11.439  17.507  0.00  0.00    +0.000 OA
ATOM     21  N   UNL     1       8.945   9.557  18.581  0.00  0.00    +0.000 N 
ATOM     22  H   UNL     1       9.637   9.215  19.243  0.00  0.00    +0.000 HD
BRANCH  19  28
ATOM     23  N   UNL     1       9.391  11.178  21.397  0.00  0.00    +0.000 N 
ATOM     24  C   UNL     1      10.085  11.807  20.430  0.00  0.00    +0.000 A 
ATOM     25  N   UNL     1      11.099  12.637  20.663  0.00  0.00    +0.000 NA
ATOM     26  O   UNL     1      11.519  13.071  19.419  0.00  0.00    +0.000 OA
ATOM     27  N   UNL     1      10.761  12.503  18.400  0.00  0.00    +0.000 NA
ATOM     28  C   UNL     1       9.875  11.715  19.030  0.00  0.00    +0.000 A 
ATOM     29  H   UNL     1       9.550  11.429  22.366  0.00  0.00    +0.000 HD
ATOM     30  H   UNL     1       8.493  10.739  21.207  0.00  0.00    +0.000 HD
ENDBRANCH  19  28
ENDBRANCH  17  21
ENDBRANCH   1  18
TORSDOF 6
ENDMDL
MODEL 7
REMARK VINA RESULT:      -7.7      3.471      5.558
REMARK  Name = 
REMARK  6 active torsions:
REMARK  status: ('A' for Active; 'I' for Inactive)
REMARK    1  A    between atoms: C_6  and  C_7
REMARK    2  A    between atoms: N_9  and  N_10
REMARK    3  A    between atoms: C_11  and  C_12
REMARK    4  A    between atoms: C_15  and  C_16
REMARK    5  A    between atoms: C_21  and  C_22
REMARK    6  A    between atoms: C_22  and  O_24
REMARK                            x       y       z     vdW  Elec       q    Type
REMARK                         _______ _______ _______ _____ _____    ______ ____
ROOT
ATOM      1  C   UNL     1       1.137   9.871  19.215  0.00  0.00    +0.000 A 
ATOM      2  C   UNL     1       1.655   9.944  17.937  0.00  0.00    +0.000 A 
ATOM      3  C   UNL     1       2.342   8.736  17.708  0.00  0.00    +0.000 A 
ATOM      4  C   UNL     1       2.198   7.968  18.847  0.00  0.00    +0.000 A 
ATOM      5  O   UNL     1       1.476   8.668  19.784  0.00  0.00    +0.000 OA
ENDROOT
BRANCH   4   6
ATOM      6  C   UNL     1       2.605   6.600  19.167  0.00  0.00    +0.000 A 
ATOM      7  C   UNL     1       1.984   5.937  20.235  0.00  0.00    +0.000 A 
ATOM      8  C   UNL     1       2.362   4.645  20.601  0.00  0.00    +0.000 A 
ATOM      9  C   UNL     1       3.368   3.974  19.900  0.00  0.00    +0.000 A 
ATOM     10 CL   UNL     1       3.750   2.390  20.480  0.00  0.00    +0.000 Cl
ATOM     11  C   UNL     1       3.997   4.594  18.811  0.00  0.00    +0.000 A 
ATOM     12  C   UNL     1       3.598   5.911  18.457  0.00  0.00    +0.000 A 
BRANCH  11  13
ATOM     13  C   UNL     1       5.063   3.990  17.959  0.00  0.00    +0.000 C 
ATOM     14  O   UNL     1       4.822   3.580  16.831  0.00  0.00    +0.000 OA
BRANCH  13  15
ATOM     15  O   UNL     1       6.309   3.924  18.461  0.00  0.00    +0.000 OA
ATOM     16  H   UNL     1       6.513   4.544  19.186  0.00  0.00    +0.000 HD
ENDBRANCH  13  15
ENDBRANCH  11  13
ENDBRANCH   4   6
BRANCH   1  18
ATOM     17  N   UNL     1      -0.642  10.388  20.666  0.00  0.00    +0.000 NA
ATOM     18  C   UNL     1       0.336  10.829  19.936  0.00  0.00    +0.000 C 
BRANCH  17  21
ATOM     19  C   UNL     1      -1.345  11.321  22.750  0.00  0.00    +0.000 C 
ATOM     20  O   UNL     1      -0.658  10.562  23.434  0.00  0.00    +0.000 OA
ATOM     21  N   UNL     1      -1.398  11.292  21.354  0.00  0.00    +0.000 N 
ATOM     22  H   UNL     1      -2.002  11.951  20.867  0.00  0.00    +0.000 HD
BRANCH  19  28
ATOM     23  N   UNL     1      -0.790  14.381  23.247  0.00  0.00    +0.000 N 
ATOM     24  C   UNL     1      -1.922  13.721  23.557  0.00  0.00    +0.000 A 
ATOM     25  N   UNL     1      -2.981  14.292  24.125  0.00  0.00    +0.000 NA
ATOM     26  O   UNL     1      -3.910  13.279  24.284  0.00  0.00    +0.000 OA
ATOM     27  N   UNL     1      -3.426  12.066  23.805  0.00  0.00    +0.000 NA
ATOM     28  C   UNL     1      -2.193  12.344  23.349  0.00  0.00    +0.000 A 
ATOM     29  H   UNL     1      -0.666  15.334  23.566  0.00  0.00    +0.000 HD
ATOM     30  H   UNL     1       0.072  13.884  23.029  0.00  0.00    +0.000 HD
ENDBRANCH  19  28
ENDBRANCH  17  21
ENDBRANCH   1  18
TORSDOF 6
ENDMDL
MODEL 8
REMARK VINA RESULT:      -7.7      6.042      7.928
REMARK  Name = 
REMARK  6 active torsions:
REMARK  status: ('A' for Active; 'I' for Inactive)
REMARK    1  A    between atoms: C_6  and  C_7
REMARK    2  A    between atoms: N_9  and  N_10
REMARK    3  A    between atoms: C_11  and  C_12
REMARK    4  A    between atoms: C_15  and  C_16
REMARK    5  A    between atoms: C_21  and  C_22
REMARK    6  A    between atoms: C_22  and  O_24
REMARK                            x       y       z     vdW  Elec       q    Type
REMARK                         _______ _______ _______ _____ _____    ______ ____
ROOT
ATOM      1  C   UNL     1       7.072   6.609  17.606  0.00  0.00    +0.000 A 
ATOM      2  C   UNL     1       6.958   6.242  16.279  0.00  0.00    +0.000 A 
ATOM      3  C   UNL     1       5.874   5.348  16.197  0.00  0.00    +0.000 A 
ATOM      4  C   UNL     1       5.358   5.220  17.472  0.00  0.00    +0.000 A 
ATOM      5  O   UNL     1       6.102   5.976  18.346  0.00  0.00    +0.000 OA
ENDROOT
BRANCH   4   6
ATOM      6  C   UNL     1       4.188   4.512  17.992  0.00  0.00    +0.000 A 
ATOM      7  C   UNL     1       3.077   4.329  17.158  0.00  0.00    +0.000 A 
ATOM      8  C   UNL     1       1.925   3.691  17.619  0.00  0.00    +0.000 A 
ATOM      9  C   UNL     1       1.856   3.210  18.929  0.00  0.00    +0.000 A 
ATOM     10 CL   UNL     1       0.358   2.466  19.370  0.00  0.00    +0.000 Cl
ATOM     11  C   UNL     1       2.955   3.353  19.787  0.00  0.00    +0.000 A 
ATOM     12  C   UNL     1       4.117   4.007  19.298  0.00  0.00    +0.000 A 
BRANCH  11  13
ATOM     13  C   UNL     1       3.032   2.867  21.196  0.00  0.00    +0.000 C 
ATOM     14  O   UNL     1       2.264   3.281  22.056  0.00  0.00    +0.000 OA
BRANCH  13  15
ATOM     15  O   UNL     1       3.961   1.943  21.495  0.00  0.00    +0.000 OA
ATOM     16  H   UNL     1       3.946   1.600  22.409  0.00  0.00    +0.000 HD
ENDBRANCH  13  15
ENDBRANCH  11  13
ENDBRANCH   4   6
BRANCH   1  18
ATOM     17  N   UNL     1       7.997   8.758  17.856  0.00  0.00    +0.000 NA
ATOM     18  C   UNL     1       8.003   7.515  18.231  0.00  0.00    +0.000 C 
BRANCH  17  21
ATOM     19  C   UNL     1       8.779  10.990  18.193  0.00  0.00    +0.000 C 
ATOM     20  O   UNL     1       7.949  11.499  17.439  0.00  0.00    +0.000 OA
ATOM     21  N   UNL     1       8.873   9.619  18.449  0.00  0.00    +0.000 N 
ATOM     22  H   UNL     1       9.597   9.283  19.080  0.00  0.00    +0.000 HD
BRANCH  19  28
ATOM     23  N   UNL     1      10.103  13.737  17.411  0.00  0.00    +0.000 N 
ATOM     24  C   UNL     1      10.346  13.032  18.532  0.00  0.00    +0.000 A 
ATOM     25  N   UNL     1      11.198  13.416  19.480  0.00  0.00    +0.000 NA
ATOM     26  O   UNL     1      11.164  12.418  20.438  0.00  0.00    +0.000 OA
ATOM     27  N   UNL     1      10.279  11.405  20.084  0.00  0.00    +0.000 NA
ATOM     28  C   UNL     1       9.769  11.791  18.903  0.00  0.00    +0.000 A 
ATOM     29  H   UNL     1      10.678  14.543  17.196  0.00  0.00    +0.000 HD
ATOM     30  H   UNL     1       9.632  13.319  16.612  0.00  0.00    +0.000 HD
ENDBRANCH  19  28
ENDBRANCH  17  21
ENDBRANCH   1  18
TORSDOF 6
ENDMDL
MODEL 9
REMARK VINA RESULT:      -7.6      6.025      7.906
REMARK  Name = 
REMARK  6 active torsions:
REMARK  status: ('A' for Active; 'I' for Inactive)
REMARK    1  A    between atoms: C_6  and  C_7
REMARK    2  A    between atoms: N_9  and  N_10
REMARK    3  A    between atoms: C_11  and  C_12
REMARK    4  A    between atoms: C_15  and  C_16
REMARK    5  A    between atoms: C_21  and  C_22
REMARK    6  A    between atoms: C_22  and  O_24
REMARK                            x       y       z     vdW  Elec       q    Type
REMARK                         _______ _______ _______ _____ _____    ______ ____
ROOT
ATOM      1  C   UNL     1       7.224   6.700  17.675  0.00  0.00    +0.000 A 
ATOM      2  C   UNL     1       7.175   6.341  16.342  0.00  0.00    +0.000 A 
ATOM      3  C   UNL     1       6.097   5.446  16.201  0.00  0.00    +0.000 A 
ATOM      4  C   UNL     1       5.520   5.311  17.449  0.00  0.00    +0.000 A 
ATOM      5  O   UNL     1       6.219   6.063  18.362  0.00  0.00    +0.000 OA
ENDROOT
BRANCH   4   6
ATOM      6  C   UNL     1       4.326   4.600  17.907  0.00  0.00    +0.000 A 
ATOM      7  C   UNL     1       3.725   3.661  17.057  0.00  0.00    +0.000 A 
ATOM      8  C   UNL     1       2.566   2.983  17.435  0.00  0.00    +0.000 A 
ATOM      9  C   UNL     1       1.978   3.220  18.681  0.00  0.00    +0.000 A 
ATOM     10 CL   UNL     1       0.532   2.329  19.002  0.00  0.00    +0.000 Cl
ATOM     11  C   UNL     1       2.563   4.135  19.568  0.00  0.00    +0.000 A 
ATOM     12  C   UNL     1       3.742   4.815  19.163  0.00  0.00    +0.000 A 
BRANCH  11  13
ATOM     13  C   UNL     1       2.062   4.466  20.934  0.00  0.00    +0.000 C 
ATOM     14  O   UNL     1       1.553   5.553  21.181  0.00  0.00    +0.000 OA
BRANCH  13  15
ATOM     15  O   UNL     1       2.169   3.527  21.890  0.00  0.00    +0.000 OA
ATOM     16  H   UNL     1       1.462   2.854  21.912  0.00  0.00    +0.000 HD
ENDBRANCH  13  15
ENDBRANCH  11  13
ENDBRANCH   4   6
BRANCH   1  18
ATOM     17  N   UNL     1       8.178   8.834  17.942  0.00  0.00    +0.000 NA
ATOM     18  C   UNL     1       8.122   7.603  18.349  0.00  0.00    +0.000 C 
BRANCH  17  21
ATOM     19  C   UNL     1       8.957  11.062  18.311  0.00  0.00    +0.000 C 
ATOM     20  O   UNL     1       8.179  11.573  17.504  0.00  0.00    +0.000 OA
ATOM     21  N   UNL     1       9.024   9.693  18.581  0.00  0.00    +0.000 N 
ATOM     22  H   UNL     1       9.704   9.355  19.258  0.00  0.00    +0.000 HD
BRANCH  19  28
ATOM     23  N   UNL     1       8.751  14.033  19.334  0.00  0.00    +0.000 N 
ATOM     24  C   UNL     1       9.789  13.198  19.531  0.00  0.00    +0.000 A 
ATOM     25  N   UNL     1      10.890  13.528  20.203  0.00  0.00    +0.000 NA
ATOM     26  O   UNL     1      11.701  12.408  20.162  0.00  0.00    +0.000 OA
ATOM     27  N   UNL     1      11.097  11.369  19.461  0.00  0.00    +0.000 NA
ATOM     28  C   UNL     1       9.908  11.860  19.075  0.00  0.00    +0.000 A 
ATOM     29  H   UNL     1       8.841  15.007  19.594  0.00  0.00    +0.000 HD
ATOM     30  H   UNL     1       8.036  13.837  18.636  0.00  0.00    +0.000 HD
ENDBRANCH  19  28
ENDBRANCH  17  21
ENDBRANCH   1  18
TORSDOF 6
ENDMDL
