MODEL 1
REMARK VINA RESULT:      -6.6      0.000      0.000
REMARK  Name = 
REMARK  20 active torsions:
REMARK  status: ('A' for Active; 'I' for Inactive)
REMARK    1  A    between atoms: C_1  and  C_2
REMARK    2  A    between atoms: C_2  and  C_3
REMARK    3  A    between atoms: C_3  and  C_4
REMARK    4  A    between atoms: C_4  and  C_5
REMARK    5  A    between atoms: C_5  and  C_6
REMARK    6  A    between atoms: C_6  and  C_7
REMARK    7  A    between atoms: C_7  and  C_8
REMARK    8  A    between atoms: C_8  and  C_9
REMARK    9  A    between atoms: C_10  and  C_11
REMARK   10  A    between atoms: C_11  and  C_12
REMARK   11  A    between atoms: C_12  and  C_13
REMARK   12  A    between atoms: C_13  and  C_14
REMARK   13  A    between atoms: C_14  and  C_15
REMARK   14  A    between atoms: C_15  and  C_16
REMARK   15  A    between atoms: C_16  and  C_17
REMARK   16  A    between atoms: C_17  and  C_18
REMARK   17  A    between atoms: C_18  and  N_19
REMARK   18  A    between atoms: N_22  and  C_23
REMARK   19  A    between atoms: C_24  and  C_25
REMARK   20  A    between atoms: C_29  and  C_30
REMARK                            x       y       z     vdW  Elec       q    Type
REMARK                         _______ _______ _______ _____ _____    ______ ____
ROOT
ATOM      1  C   UNL     1       1.987   7.405  18.070  0.00  0.00    +0.000 C 
ENDROOT
BRANCH   1   2
ATOM      2  C   UNL     1       2.369   8.831  17.678  0.00  0.00    +0.000 C 
BRANCH   2   3
ATOM      3  C   UNL     1       1.784   9.816  18.680  0.00  0.00    +0.000 C 
BRANCH   3   4
ATOM      4  N   UNL     1       0.881  10.764  18.075  0.00  0.00    +0.000 N 
ATOM      5  C   UNL     1      -0.455  10.668  18.439  0.00  0.00    +0.000 C 
ATOM      6  O   UNL     1      -0.879   9.809  19.207  0.00  0.00    +0.000 OA
ATOM      7  N   UNL     1      -1.205  11.629  17.778  0.00  0.00    +0.000 N 
ATOM      8  H   UNL     1       1.221  11.703  17.899  0.00  0.00    +0.000 HD
ATOM      9  H   UNL     1      -0.849  11.797  16.844  0.00  0.00    +0.000 HD
BRANCH   7  10
ATOM     10  C   UNL     1      -2.617  11.688  17.936  0.00  0.00    +0.000 A 
ATOM     11  C   UNL     1      -3.227  12.183  19.113  0.00  0.00    +0.000 A 
ATOM     12  C   UNL     1      -2.481  12.822  20.255  0.00  0.00    +0.000 C 
ATOM     13  C   UNL     1      -4.627  12.123  19.231  0.00  0.00    +0.000 A 
ATOM     14  C   UNL     1      -5.413  11.628  18.196  0.00  0.00    +0.000 A 
ATOM     15  C   UNL     1      -4.814  11.205  17.014  0.00  0.00    +0.000 A 
ATOM     16  C   UNL     1      -3.419  11.237  16.864  0.00  0.00    +0.000 A 
ATOM     17  C   UNL     1      -2.826  10.743  15.572  0.00  0.00    +0.000 C 
ENDBRANCH   7  10
ENDBRANCH   3   4
ENDBRANCH   2   3
ENDBRANCH   1   2
BRANCH   1  18
ATOM     18  C   UNL     1       2.710   6.962  19.338  0.00  0.00    +0.000 C 
BRANCH  18  19
ATOM     19  C   UNL     1       1.696   6.643  20.429  0.00  0.00    +0.000 C 
BRANCH  19  20
ATOM     20  C   UNL     1       1.401   5.148  20.505  0.00  0.00    +0.000 C 
BRANCH  20  21
ATOM     21  C   UNL     1       2.641   4.335  20.880  0.00  0.00    +0.000 C 
BRANCH  21  22
ATOM     22  C   UNL     1       2.509   2.830  20.638  0.00  0.00    +0.000 C 
BRANCH  22  24
ATOM     23  C   UNL     1       3.841   2.081  18.634  0.00  0.00    +0.000 C 
ATOM     24  C   UNL     1       3.721   2.248  19.958  0.00  0.00    +0.000 C 
BRANCH  23  25
ATOM     25  C   UNL     1       2.771   2.491  17.673  0.00  0.00    +0.000 C 
BRANCH  25  26
ATOM     26  C   UNL     1       2.965   3.900  17.136  0.00  0.00    +0.000 C 
BRANCH  26  27
ATOM     27  C   UNL     1       4.411   4.324  17.362  0.00  0.00    +0.000 C 
BRANCH  27  28
ATOM     28  C   UNL     1       5.169   4.368  16.046  0.00  0.00    +0.000 C 
BRANCH  28  29
ATOM     29  C   UNL     1       6.555   4.970  16.241  0.00  0.00    +0.000 C 
BRANCH  29  30
ATOM     30  C   UNL     1       7.094   4.618  17.623  0.00  0.00    +0.000 C 
BRANCH  30  32
ATOM     31  C   UNL     1       7.355   7.109  17.528  0.00  0.00    +0.000 C 
ATOM     32  C   UNL     1       7.633   5.853  18.336  0.00  0.00    +0.000 C 
ENDBRANCH  30  32
ENDBRANCH  29  30
ENDBRANCH  28  29
ENDBRANCH  27  28
ENDBRANCH  26  27
ENDBRANCH  25  26
ENDBRANCH  23  25
ENDBRANCH  22  24
ENDBRANCH  21  22
ENDBRANCH  20  21
ENDBRANCH  19  20
ENDBRANCH  18  19
ENDBRANCH   1  18
TORSDOF 17
ENDMDL
MODEL 2
REMARK VINA RESULT:      -6.5      5.143      9.196
REMARK  Name = 
REMARK  20 active torsions:
REMARK  status: ('A' for Active; 'I' for Inactive)
REMARK    1  A    between atoms: C_1  and  C_2
REMARK    2  A    between atoms: C_2  and  C_3
REMARK    3  A    between atoms: C_3  and  C_4
REMARK    4  A    between atoms: C_4  and  C_5
REMARK    5  A    between atoms: C_5  and  C_6
REMARK    6  A    between atoms: C_6  and  C_7
REMARK    7  A    between atoms: C_7  and  C_8
REMARK    8  A    between atoms: C_8  and  C_9
REMARK    9  A    between atoms: C_10  and  C_11
REMARK   10  A    between atoms: C_11  and  C_12
REMARK   11  A    between atoms: C_12  and  C_13
REMARK   12  A    between atoms: C_13  and  C_14
REMARK   13  A    between atoms: C_14  and  C_15
REMARK   14  A    between atoms: C_15  and  C_16
REMARK   15  A    between atoms: C_16  and  C_17
REMARK   16  A    between atoms: C_17  and  C_18
REMARK   17  A    between atoms: C_18  and  N_19
REMARK   18  A    between atoms: N_22  and  C_23
REMARK   19  A    between atoms: C_24  and  C_25
REMARK   20  A    between atoms: C_29  and  C_30
REMARK                            x       y       z     vdW  Elec       q    Type
REMARK                         _______ _______ _______ _____ _____    ______ ____
ROOT
ATOM      1  C   UNL     1       7.675   6.236  18.789  0.00  0.00    +0.000 C 
ENDROOT
BRANCH   1   2
ATOM      2  C   UNL     1       7.775   6.910  17.423  0.00  0.00    +0.000 C 
BRANCH   2   3
ATOM      3  C   UNL     1       7.792   8.422  17.593  0.00  0.00    +0.000 C 
BRANCH   3   4
ATOM      4  N   UNL     1       8.674   8.858  18.649  0.00  0.00    +0.000 N 
ATOM      5  C   UNL     1       8.895  10.225  18.749  0.00  0.00    +0.000 C 
ATOM      6  O   UNL     1       8.407  11.040  17.970  0.00  0.00    +0.000 OA
ATOM      7  N   UNL     1       9.764  10.498  19.794  0.00  0.00    +0.000 N 
ATOM      8  H   UNL     1       8.654   8.352  19.529  0.00  0.00    +0.000 HD
ATOM      9  H   UNL     1      10.461   9.769  19.895  0.00  0.00    +0.000 HD
BRANCH   7  10
ATOM     10  C   UNL     1      10.197  11.828  20.053  0.00  0.00    +0.000 A 
ATOM     11  C   UNL     1      11.230  12.446  19.309  0.00  0.00    +0.000 A 
ATOM     12  C   UNL     1      11.884  11.842  18.094  0.00  0.00    +0.000 C 
ATOM     13  C   UNL     1      11.665  13.729  19.686  0.00  0.00    +0.000 A 
ATOM     14  C   UNL     1      11.068  14.407  20.743  0.00  0.00    +0.000 A 
ATOM     15  C   UNL     1      10.008  13.823  21.428  0.00  0.00    +0.000 A 
ATOM     16  C   UNL     1       9.554  12.540  21.091  0.00  0.00    +0.000 A 
ATOM     17  C   UNL     1       8.419  11.949  21.884  0.00  0.00    +0.000 C 
ENDBRANCH   7  10
ENDBRANCH   3   4
ENDBRANCH   2   3
ENDBRANCH   1   2
BRANCH   1  18
ATOM     18  C   UNL     1       6.300   5.613  19.005  0.00  0.00    +0.000 C 
BRANCH  18  19
ATOM     19  C   UNL     1       6.143   4.383  18.121  0.00  0.00    +0.000 C 
BRANCH  19  20
ATOM     20  C   UNL     1       5.009   4.552  17.114  0.00  0.00    +0.000 C 
BRANCH  20  21
ATOM     21  C   UNL     1       4.260   3.242  16.866  0.00  0.00    +0.000 C 
BRANCH  21  22
ATOM     22  C   UNL     1       2.749   3.322  17.096  0.00  0.00    +0.000 C 
BRANCH  22  24
ATOM     23  C   UNL     1       2.478   1.783  19.073  0.00  0.00    +0.000 C 
ATOM     24  C   UNL     1       2.208   2.106  17.801  0.00  0.00    +0.000 C 
BRANCH  23  25
ATOM     25  C   UNL     1       3.340   2.634  19.952  0.00  0.00    +0.000 C 
BRANCH  25  26
ATOM     26  C   UNL     1       2.647   3.049  21.239  0.00  0.00    +0.000 C 
BRANCH  26  27
ATOM     27  C   UNL     1       1.262   3.590  20.907  0.00  0.00    +0.000 C 
BRANCH  27  28
ATOM     28  C   UNL     1       1.363   4.819  20.020  0.00  0.00    +0.000 C 
BRANCH  28  29
ATOM     29  C   UNL     1       1.572   6.074  20.858  0.00  0.00    +0.000 C 
BRANCH  29  30
ATOM     30  C   UNL     1       2.185   7.180  20.007  0.00  0.00    +0.000 C 
BRANCH  30  32
ATOM     31  C   UNL     1       3.160   7.776  17.776  0.00  0.00    +0.000 C 
ATOM     32  C   UNL     1       2.495   6.686  18.598  0.00  0.00    +0.000 C 
ENDBRANCH  30  32
ENDBRANCH  29  30
ENDBRANCH  28  29
ENDBRANCH  27  28
ENDBRANCH  26  27
ENDBRANCH  25  26
ENDBRANCH  23  25
ENDBRANCH  22  24
ENDBRANCH  21  22
ENDBRANCH  20  21
ENDBRANCH  19  20
ENDBRANCH  18  19
ENDBRANCH   1  18
TORSDOF 17
ENDMDL
MODEL 3
REMARK VINA RESULT:      -6.5      1.200      2.185
REMARK  Name = 
REMARK  20 active torsions:
REMARK  status: ('A' for Active; 'I' for Inactive)
REMARK    1  A    between atoms: C_1  and  C_2
REMARK    2  A    between atoms: C_2  and  C_3
REMARK    3  A    between atoms: C_3  and  C_4
REMARK    4  A    between atoms: C_4  and  C_5
REMARK    5  A    between atoms: C_5  and  C_6
REMARK    6  A    between atoms: C_6  and  C_7
REMARK    7  A    between atoms: C_7  and  C_8
REMARK    8  A    between atoms: C_8  and  C_9
REMARK    9  A    between atoms: C_10  and  C_11
REMARK   10  A    between atoms: C_11  and  C_12
REMARK   11  A    between atoms: C_12  and  C_13
REMARK   12  A    between atoms: C_13  and  C_14
REMARK   13  A    between atoms: C_14  and  C_15
REMARK   14  A    between atoms: C_15  and  C_16
REMARK   15  A    between atoms: C_16  and  C_17
REMARK   16  A    between atoms: C_17  and  C_18
REMARK   17  A    between atoms: C_18  and  N_19
REMARK   18  A    between atoms: N_22  and  C_23
REMARK   19  A    between atoms: C_24  and  C_25
REMARK   20  A    between atoms: C_29  and  C_30
REMARK                            x       y       z     vdW  Elec       q    Type
REMARK                         _______ _______ _______ _____ _____    ______ ____
ROOT
ATOM      1  C   UNL     1       2.036   6.499  19.050  0.00  0.00    +0.000 C 
ENDROOT
BRANCH   1   2
ATOM      2  C   UNL     1       2.349   7.355  17.825  0.00  0.00    +0.000 C 
BRANCH   2   3
ATOM      3  C   UNL     1       2.695   8.771  18.260  0.00  0.00    +0.000 C 
BRANCH   3   4
ATOM      4  N   UNL     1       1.774   9.757  17.749  0.00  0.00    +0.000 N 
ATOM      5  C   UNL     1       0.709  10.096  18.572  0.00  0.00    +0.000 C 
ATOM      6  O   UNL     1       0.517   9.575  19.667  0.00  0.00    +0.000 OA
ATOM      7  N   UNL     1      -0.096  11.041  17.954  0.00  0.00    +0.000 N 
ATOM      8  H   UNL     1       2.146  10.510  17.180  0.00  0.00    +0.000 HD
ATOM      9  H   UNL     1      -0.136  10.893  16.952  0.00  0.00    +0.000 HD
BRANCH   7  10
ATOM     10  C   UNL     1      -1.292  11.498  18.574  0.00  0.00    +0.000 A 
ATOM     11  C   UNL     1      -2.557  10.931  18.289  0.00  0.00    +0.000 A 
ATOM     12  C   UNL     1      -2.771   9.716  17.425  0.00  0.00    +0.000 C 
ATOM     13  C   UNL     1      -3.703  11.499  18.872  0.00  0.00    +0.000 A 
ATOM     14  C   UNL     1      -3.604  12.572  19.751  0.00  0.00    +0.000 A 
ATOM     15  C   UNL     1      -2.353  13.082  20.081  0.00  0.00    +0.000 A 
ATOM     16  C   UNL     1      -1.187  12.551  19.510  0.00  0.00    +0.000 A 
ATOM     17  C   UNL     1       0.136  13.161  19.885  0.00  0.00    +0.000 C 
ENDBRANCH   7  10
ENDBRANCH   3   4
ENDBRANCH   2   3
ENDBRANCH   1   2
BRANCH   1  18
ATOM     18  C   UNL     1       3.305   5.917  19.664  0.00  0.00    +0.000 C 
BRANCH  18  19
ATOM     19  C   UNL     1       2.949   4.782  20.615  0.00  0.00    +0.000 C 
BRANCH  19  20
ATOM     20  C   UNL     1       1.439   4.649  20.795  0.00  0.00    +0.000 C 
BRANCH  20  21
ATOM     21  C   UNL     1       0.957   3.216  20.567  0.00  0.00    +0.000 C 
BRANCH  21  22
ATOM     22  C   UNL     1       0.667   2.869  19.105  0.00  0.00    +0.000 C 
BRANCH  22  24
ATOM     23  C   UNL     1       2.606   2.060  17.713  0.00  0.00    +0.000 C 
ATOM     24  C   UNL     1       1.602   1.818  18.567  0.00  0.00    +0.000 C 
BRANCH  23  25
ATOM     25  C   UNL     1       2.925   3.435  17.219  0.00  0.00    +0.000 C 
BRANCH  25  26
ATOM     26  C   UNL     1       4.395   3.792  17.368  0.00  0.00    +0.000 C 
BRANCH  26  27
ATOM     27  C   UNL     1       4.844   4.575  16.139  0.00  0.00    +0.000 C 
BRANCH  27  28
ATOM     28  C   UNL     1       6.162   4.035  15.611  0.00  0.00    +0.000 C 
BRANCH  28  29
ATOM     29  C   UNL     1       7.326   4.902  16.076  0.00  0.00    +0.000 C 
BRANCH  29  30
ATOM     30  C   UNL     1       7.674   4.584  17.525  0.00  0.00    +0.000 C 
BRANCH  30  32
ATOM     31  C   UNL     1       7.204   7.045  17.605  0.00  0.00    +0.000 C 
ATOM     32  C   UNL     1       7.772   5.856  18.361  0.00  0.00    +0.000 C 
ENDBRANCH  30  32
ENDBRANCH  29  30
ENDBRANCH  28  29
ENDBRANCH  27  28
ENDBRANCH  26  27
ENDBRANCH  25  26
ENDBRANCH  23  25
ENDBRANCH  22  24
ENDBRANCH  21  22
ENDBRANCH  20  21
ENDBRANCH  19  20
ENDBRANCH  18  19
ENDBRANCH   1  18
TORSDOF 17
ENDMDL
MODEL 4
REMARK VINA RESULT:      -6.4      5.355      9.296
REMARK  Name = 
REMARK  20 active torsions:
REMARK  status: ('A' for Active; 'I' for Inactive)
REMARK    1  A    between atoms: C_1  and  C_2
REMARK    2  A    between atoms: C_2  and  C_3
REMARK    3  A    between atoms: C_3  and  C_4
REMARK    4  A    between atoms: C_4  and  C_5
REMARK    5  A    between atoms: C_5  and  C_6
REMARK    6  A    between atoms: C_6  and  C_7
REMARK    7  A    between atoms: C_7  and  C_8
REMARK    8  A    between atoms: C_8  and  C_9
REMARK    9  A    between atoms: C_10  and  C_11
REMARK   10  A    between atoms: C_11  and  C_12
REMARK   11  A    between atoms: C_12  and  C_13
REMARK   12  A    between atoms: C_13  and  C_14
REMARK   13  A    between atoms: C_14  and  C_15
REMARK   14  A    between atoms: C_15  and  C_16
REMARK   15  A    between atoms: C_16  and  C_17
REMARK   16  A    between atoms: C_17  and  C_18
REMARK   17  A    between atoms: C_18  and  N_19
REMARK   18  A    between atoms: N_22  and  C_23
REMARK   19  A    between atoms: C_24  and  C_25
REMARK   20  A    between atoms: C_29  and  C_30
REMARK                            x       y       z     vdW  Elec       q    Type
REMARK                         _______ _______ _______ _____ _____    ______ ____
ROOT
ATOM      1  C   UNL     1       7.675   6.667  17.963  0.00  0.00    +0.000 C 
ENDROOT
BRANCH   1   2
ATOM      2  C   UNL     1       7.649   8.135  17.542  0.00  0.00    +0.000 C 
BRANCH   2   3
ATOM      3  C   UNL     1       8.559   8.948  18.451  0.00  0.00    +0.000 C 
BRANCH   3   4
ATOM      4  N   UNL     1       8.445  10.369  18.233  0.00  0.00    +0.000 N 
ATOM      5  C   UNL     1       9.462  11.160  18.752  0.00  0.00    +0.000 C 
ATOM      6  O   UNL     1      10.402  10.703  19.397  0.00  0.00    +0.000 OA
ATOM      7  N   UNL     1       9.219  12.497  18.479  0.00  0.00    +0.000 N 
ATOM      8  H   UNL     1       8.045  10.689  17.357  0.00  0.00    +0.000 HD
ATOM      9  H   UNL     1       8.227  12.705  18.501  0.00  0.00    +0.000 HD
BRANCH   7  10
ATOM     10  C   UNL     1      10.089  13.511  18.969  0.00  0.00    +0.000 A 
ATOM     11  C   UNL     1       9.942  14.077  20.258  0.00  0.00    +0.000 A 
ATOM     12  C   UNL     1       8.963  13.591  21.295  0.00  0.00    +0.000 C 
ATOM     13  C   UNL     1      10.783  15.139  20.634  0.00  0.00    +0.000 A 
ATOM     14  C   UNL     1      11.776  15.605  19.779  0.00  0.00    +0.000 A 
ATOM     15  C   UNL     1      11.960  15.001  18.540  0.00  0.00    +0.000 A 
ATOM     16  C   UNL     1      11.133  13.948  18.123  0.00  0.00    +0.000 A 
ATOM     17  C   UNL     1      11.364  13.350  16.761  0.00  0.00    +0.000 C 
ENDBRANCH   7  10
ENDBRANCH   3   4
ENDBRANCH   2   3
ENDBRANCH   1   2
BRANCH   1  18
ATOM     18  C   UNL     1       6.429   5.927  17.486  0.00  0.00    +0.000 C 
BRANCH  18  19
ATOM     19  C   UNL     1       6.827   4.778  16.570  0.00  0.00    +0.000 C 
BRANCH  19  20
ATOM     20  C   UNL     1       5.639   3.876  16.246  0.00  0.00    +0.000 C 
BRANCH  20  21
ATOM     21  C   UNL     1       4.495   4.052  17.245  0.00  0.00    +0.000 C 
BRANCH  21  22
ATOM     22  C   UNL     1       4.434   2.979  18.334  0.00  0.00    +0.000 C 
BRANCH  22  24
ATOM     23  C   UNL     1       2.099   2.085  18.018  0.00  0.00    +0.000 C 
ATOM     24  C   UNL     1       3.426   1.903  18.027  0.00  0.00    +0.000 C 
BRANCH  23  25
ATOM     25  C   UNL     1       1.469   3.414  18.291  0.00  0.00    +0.000 C 
BRANCH  25  26
ATOM     26  C   UNL     1       0.620   3.421  19.551  0.00  0.00    +0.000 C 
BRANCH  26  27
ATOM     27  C   UNL     1       1.519   3.181  20.758  0.00  0.00    +0.000 C 
BRANCH  27  28
ATOM     28  C   UNL     1       2.400   4.390  21.020  0.00  0.00    +0.000 C 
BRANCH  28  29
ATOM     29  C   UNL     1       1.728   5.666  20.525  0.00  0.00    +0.000 C 
BRANCH  29  30
ATOM     30  C   UNL     1       2.730   6.529  19.768  0.00  0.00    +0.000 C 
BRANCH  30  32
ATOM     31  C   UNL     1       2.727   8.095  17.810  0.00  0.00    +0.000 C 
ATOM     32  C   UNL     1       2.304   6.726  18.317  0.00  0.00    +0.000 C 
ENDBRANCH  30  32
ENDBRANCH  29  30
ENDBRANCH  28  29
ENDBRANCH  27  28
ENDBRANCH  26  27
ENDBRANCH  25  26
ENDBRANCH  23  25
ENDBRANCH  22  24
ENDBRANCH  21  22
ENDBRANCH  20  21
ENDBRANCH  19  20
ENDBRANCH  18  19
ENDBRANCH   1  18
TORSDOF 17
ENDMDL
MODEL 5
REMARK VINA RESULT:      -6.3      2.522      3.261
REMARK  Name = 
REMARK  20 active torsions:
REMARK  status: ('A' for Active; 'I' for Inactive)
REMARK    1  A    between atoms: C_1  and  C_2
REMARK    2  A    between atoms: C_2  and  C_3
REMARK    3  A    between atoms: C_3  and  C_4
REMARK    4  A    between atoms: C_4  and  C_5
REMARK    5  A    between atoms: C_5  and  C_6
REMARK    6  A    between atoms: C_6  and  C_7
REMARK    7  A    between atoms: C_7  and  C_8
REMARK    8  A    between atoms: C_8  and  C_9
REMARK    9  A    between atoms: C_10  and  C_11
REMARK   10  A    between atoms: C_11  and  C_12
REMARK   11  A    between atoms: C_12  and  C_13
REMARK   12  A    between atoms: C_13  and  C_14
REMARK   13  A    between atoms: C_14  and  C_15
REMARK   14  A    between atoms: C_15  and  C_16
REMARK   15  A    between atoms: C_16  and  C_17
REMARK   16  A    between atoms: C_17  and  C_18
REMARK   17  A    between atoms: C_18  and  N_19
REMARK   18  A    between atoms: N_22  and  C_23
REMARK   19  A    between atoms: C_24  and  C_25
REMARK   20  A    between atoms: C_29  and  C_30
REMARK                            x       y       z     vdW  Elec       q    Type
REMARK                         _______ _______ _______ _____ _____    ______ ____
ROOT
ATOM      1  C   UNL     1       3.208   7.695  18.204  0.00  0.00    +0.000 C 
ENDROOT
BRANCH   1   2
ATOM      2  C   UNL     1       2.587   8.920  17.535  0.00  0.00    +0.000 C 
BRANCH   2   3
ATOM      3  C   UNL     1       1.228   9.211  18.152  0.00  0.00    +0.000 C 
BRANCH   3   4
ATOM      4  N   UNL     1       1.269  10.272  19.129  0.00  0.00    +0.000 N 
ATOM      5  C   UNL     1       0.082  10.554  19.791  0.00  0.00    +0.000 C 
ATOM      6  O   UNL     1      -0.972   9.970  19.552  0.00  0.00    +0.000 OA
ATOM      7  N   UNL     1       0.265  11.595  20.687  0.00  0.00    +0.000 N 
ATOM      8  H   UNL     1       2.115  10.383  19.679  0.00  0.00    +0.000 HD
ATOM      9  H   UNL     1       0.930  12.274  20.334  0.00  0.00    +0.000 HD
BRANCH   7  10
ATOM     10  C   UNL     1      -0.827  12.112  21.438  0.00  0.00    +0.000 A 
ATOM     11  C   UNL     1      -1.345  11.448  22.575  0.00  0.00    +0.000 A 
ATOM     12  C   UNL     1      -0.732  10.222  23.199  0.00  0.00    +0.000 C 
ATOM     13  C   UNL     1      -2.485  11.974  23.209  0.00  0.00    +0.000 A 
ATOM     14  C   UNL     1      -3.076  13.151  22.761  0.00  0.00    +0.000 A 
ATOM     15  C   UNL     1      -2.523  13.835  21.684  0.00  0.00    +0.000 A 
ATOM     16  C   UNL     1      -1.395  13.336  21.018  0.00  0.00    +0.000 A 
ATOM     17  C   UNL     1      -0.856  14.107  19.843  0.00  0.00    +0.000 C 
ENDBRANCH   7  10
ENDBRANCH   3   4
ENDBRANCH   2   3
ENDBRANCH   1   2
BRANCH   1  18
ATOM     18  C   UNL     1       2.383   7.235  19.401  0.00  0.00    +0.000 C 
BRANCH  18  19
ATOM     19  C   UNL     1       2.157   5.731  19.328  0.00  0.00    +0.000 C 
BRANCH  19  20
ATOM     20  C   UNL     1       1.486   5.199  20.591  0.00  0.00    +0.000 C 
BRANCH  20  21
ATOM     21  C   UNL     1       1.330   3.678  20.563  0.00  0.00    +0.000 C 
BRANCH  21  22
ATOM     22  C   UNL     1       1.130   3.087  19.165  0.00  0.00    +0.000 C 
BRANCH  22  24
ATOM     23  C   UNL     1       3.079   1.755  18.280  0.00  0.00    +0.000 C 
ATOM     24  C   UNL     1       1.923   1.824  18.956  0.00  0.00    +0.000 C 
BRANCH  23  25
ATOM     25  C   UNL     1       3.727   2.960  17.676  0.00  0.00    +0.000 C 
BRANCH  25  26
ATOM     26  C   UNL     1       4.798   3.567  18.568  0.00  0.00    +0.000 C 
BRANCH  26  27
ATOM     27  C   UNL     1       5.595   4.588  17.765  0.00  0.00    +0.000 C 
BRANCH  27  28
ATOM     28  C   UNL     1       4.845   4.984  16.505  0.00  0.00    +0.000 C 
BRANCH  28  29
ATOM     29  C   UNL     1       5.815   5.389  15.402  0.00  0.00    +0.000 C 
BRANCH  29  30
ATOM     30  C   UNL     1       6.308   4.155  14.655  0.00  0.00    +0.000 C 
BRANCH  30  32
ATOM     31  C   UNL     1       6.282   3.375  12.273  0.00  0.00    +0.000 C 
ATOM     32  C   UNL     1       5.437   3.862  13.438  0.00  0.00    +0.000 C 
ENDBRANCH  30  32
ENDBRANCH  29  30
ENDBRANCH  28  29
ENDBRANCH  27  28
ENDBRANCH  26  27
ENDBRANCH  25  26
ENDBRANCH  23  25
ENDBRANCH  22  24
ENDBRANCH  21  22
ENDBRANCH  20  21
ENDBRANCH  19  20
ENDBRANCH  18  19
ENDBRANCH   1  18
TORSDOF 17
ENDMDL
MODEL 6
REMARK VINA RESULT:      -6.2      1.508      2.566
REMARK  Name = 
REMARK  20 active torsions:
REMARK  status: ('A' for Active; 'I' for Inactive)
REMARK    1  A    between atoms: C_1  and  C_2
REMARK    2  A    between atoms: C_2  and  C_3
REMARK    3  A    between atoms: C_3  and  C_4
REMARK    4  A    between atoms: C_4  and  C_5
REMARK    5  A    between atoms: C_5  and  C_6
REMARK    6  A    between atoms: C_6  and  C_7
REMARK    7  A    between atoms: C_7  and  C_8
REMARK    8  A    between atoms: C_8  and  C_9
REMARK    9  A    between atoms: C_10  and  C_11
REMARK   10  A    between atoms: C_11  and  C_12
REMARK   11  A    between atoms: C_12  and  C_13
REMARK   12  A    between atoms: C_13  and  C_14
REMARK   13  A    between atoms: C_14  and  C_15
REMARK   14  A    between atoms: C_15  and  C_16
REMARK   15  A    between atoms: C_16  and  C_17
REMARK   16  A    between atoms: C_17  and  C_18
REMARK   17  A    between atoms: C_18  and  N_19
REMARK   18  A    between atoms: N_22  and  C_23
REMARK   19  A    between atoms: C_24  and  C_25
REMARK   20  A    between atoms: C_29  and  C_30
REMARK                            x       y       z     vdW  Elec       q    Type
REMARK                         _______ _______ _______ _____ _____    ______ ____
ROOT
ATOM      1  C   UNL     1       2.308   7.526  18.695  0.00  0.00    +0.000 C 
ENDROOT
BRANCH   1   2
ATOM      2  C   UNL     1       2.166   8.900  18.046  0.00  0.00    +0.000 C 
BRANCH   2   3
ATOM      3  C   UNL     1       0.727   9.116  17.603  0.00  0.00    +0.000 C 
BRANCH   3   4
ATOM      4  N   UNL     1       0.274  10.470  17.805  0.00  0.00    +0.000 N 
ATOM      5  C   UNL     1      -0.426  10.723  18.978  0.00  0.00    +0.000 C 
ATOM      6  O   UNL     1      -0.690   9.850  19.800  0.00  0.00    +0.000 OA
ATOM      7  N   UNL     1      -0.807  12.054  19.035  0.00  0.00    +0.000 N 
ATOM      8  H   UNL     1       0.864  11.227  17.476  0.00  0.00    +0.000 HD
ATOM      9  H   UNL     1      -1.030  12.415  18.114  0.00  0.00    +0.000 HD
BRANCH   7  10
ATOM     10  C   UNL     1      -1.596  12.541  20.113  0.00  0.00    +0.000 A 
ATOM     11  C   UNL     1      -1.023  13.108  21.276  0.00  0.00    +0.000 A 
ATOM     12  C   UNL     1       0.447  13.388  21.452  0.00  0.00    +0.000 C 
ATOM     13  C   UNL     1      -1.866  13.482  22.337  0.00  0.00    +0.000 A 
ATOM     14  C   UNL     1      -3.246  13.342  22.239  0.00  0.00    +0.000 A 
ATOM     15  C   UNL     1      -3.810  12.848  21.069  0.00  0.00    +0.000 A 
ATOM     16  C   UNL     1      -3.002  12.452  19.993  0.00  0.00    +0.000 A 
ATOM     17  C   UNL     1      -3.667  11.901  18.761  0.00  0.00    +0.000 C 
ENDBRANCH   7  10
ENDBRANCH   3   4
ENDBRANCH   2   3
ENDBRANCH   1   2
BRANCH   1  18
ATOM     18  C   UNL     1       2.014   7.582  20.191  0.00  0.00    +0.000 C 
BRANCH  18  19
ATOM     19  C   UNL     1       1.354   6.285  20.640  0.00  0.00    +0.000 C 
BRANCH  19  20
ATOM     20  C   UNL     1       2.387   5.212  20.974  0.00  0.00    +0.000 C 
BRANCH  20  21
ATOM     21  C   UNL     1       1.769   3.814  21.019  0.00  0.00    +0.000 C 
BRANCH  21  22
ATOM     22  C   UNL     1       0.806   3.508  19.870  0.00  0.00    +0.000 C 
BRANCH  22  24
ATOM     23  C   UNL     1       1.954   2.274  17.997  0.00  0.00    +0.000 C 
ATOM     24  C   UNL     1       1.198   2.273  19.103  0.00  0.00    +0.000 C 
BRANCH  23  25
ATOM     25  C   UNL     1       2.523   3.528  17.415  0.00  0.00    +0.000 C 
BRANCH  25  26
ATOM     26  C   UNL     1       4.042   3.522  17.361  0.00  0.00    +0.000 C 
BRANCH  26  27
ATOM     27  C   UNL     1       4.578   4.595  18.301  0.00  0.00    +0.000 C 
BRANCH  27  28
ATOM     28  C   UNL     1       5.700   5.377  17.640  0.00  0.00    +0.000 C 
BRANCH  28  29
ATOM     29  C   UNL     1       5.138   6.433  16.695  0.00  0.00    +0.000 C 
BRANCH  29  30
ATOM     30  C   UNL     1       5.396   6.034  15.247  0.00  0.00    +0.000 C 
BRANCH  30  32
ATOM     31  C   UNL     1       6.217   3.994  14.046  0.00  0.00    +0.000 C 
ATOM     32  C   UNL     1       6.509   4.998  15.148  0.00  0.00    +0.000 C 
ENDBRANCH  30  32
ENDBRANCH  29  30
ENDBRANCH  28  29
ENDBRANCH  27  28
ENDBRANCH  26  27
ENDBRANCH  25  26
ENDBRANCH  23  25
ENDBRANCH  22  24
ENDBRANCH  21  22
ENDBRANCH  20  21
ENDBRANCH  19  20
ENDBRANCH  18  19
ENDBRANCH   1  18
TORSDOF 17
ENDMDL
MODEL 7
REMARK VINA RESULT:      -6.2      5.414     10.227
REMARK  Name = 
REMARK  20 active torsions:
REMARK  status: ('A' for Active; 'I' for Inactive)
REMARK    1  A    between atoms: C_1  and  C_2
REMARK    2  A    between atoms: C_2  and  C_3
REMARK    3  A    between atoms: C_3  and  C_4
REMARK    4  A    between atoms: C_4  and  C_5
REMARK    5  A    between atoms: C_5  and  C_6
REMARK    6  A    between atoms: C_6  and  C_7
REMARK    7  A    between atoms: C_7  and  C_8
REMARK    8  A    between atoms: C_8  and  C_9
REMARK    9  A    between atoms: C_10  and  C_11
REMARK   10  A    between atoms: C_11  and  C_12
REMARK   11  A    between atoms: C_12  and  C_13
REMARK   12  A    between atoms: C_13  and  C_14
REMARK   13  A    between atoms: C_14  and  C_15
REMARK   14  A    between atoms: C_15  and  C_16
REMARK   15  A    between atoms: C_16  and  C_17
REMARK   16  A    between atoms: C_17  and  C_18
REMARK   17  A    between atoms: C_18  and  N_19
REMARK   18  A    between atoms: N_22  and  C_23
REMARK   19  A    between atoms: C_24  and  C_25
REMARK   20  A    between atoms: C_29  and  C_30
REMARK                            x       y       z     vdW  Elec       q    Type
REMARK                         _______ _______ _______ _____ _____    ______ ____
ROOT
ATOM      1  C   UNL     1       7.777   9.060  17.914  0.00  0.00    +0.000 C 
ENDROOT
BRANCH   1   2
ATOM      2  C   UNL     1       7.756   7.727  17.168  0.00  0.00    +0.000 C 
BRANCH   2   3
ATOM      3  C   UNL     1       7.157   6.648  18.058  0.00  0.00    +0.000 C 
BRANCH   3   4
ATOM      4  N   UNL     1       5.818   6.278  17.669  0.00  0.00    +0.000 N 
ATOM      5  C   UNL     1       5.075   5.567  18.602  0.00  0.00    +0.000 C 
ATOM      6  O   UNL     1       5.521   5.228  19.695  0.00  0.00    +0.000 OA
ATOM      7  N   UNL     1       3.819   5.272  18.094  0.00  0.00    +0.000 N 
ATOM      8  H   UNL     1       5.292   6.924  17.090  0.00  0.00    +0.000 HD
ATOM      9  H   UNL     1       3.857   5.094  17.097  0.00  0.00    +0.000 HD
BRANCH   7  10
ATOM     10  C   UNL     1       2.896   4.489  18.841  0.00  0.00    +0.000 A 
ATOM     11  C   UNL     1       2.767   3.091  18.658  0.00  0.00    +0.000 A 
ATOM     12  C   UNL     1       3.663   2.261  17.777  0.00  0.00    +0.000 C 
ATOM     13  C   UNL     1       1.768   2.402  19.368  0.00  0.00    +0.000 A 
ATOM     14  C   UNL     1       0.943   3.065  20.270  0.00  0.00    +0.000 A 
ATOM     15  C   UNL     1       1.118   4.426  20.497  0.00  0.00    +0.000 A 
ATOM     16  C   UNL     1       2.095   5.150  19.799  0.00  0.00    +0.000 A 
ATOM     17  C   UNL     1       2.222   6.626  20.067  0.00  0.00    +0.000 C 
ENDBRANCH   7  10
ENDBRANCH   3   4
ENDBRANCH   2   3
ENDBRANCH   1   2
BRANCH   1  18
ATOM     18  C   UNL     1       8.964   9.148  18.867  0.00  0.00    +0.000 C 
BRANCH  18  19
ATOM     19  C   UNL     1       9.247  10.604  19.211  0.00  0.00    +0.000 C 
BRANCH  19  20
ATOM     20  C   UNL     1       9.002  11.524  18.019  0.00  0.00    +0.000 C 
BRANCH  20  21
ATOM     21  C   UNL     1      10.306  12.078  17.442  0.00  0.00    +0.000 C 
BRANCH  21  22
ATOM     22  C   UNL     1      11.554  11.749  18.265  0.00  0.00    +0.000 C 
BRANCH  22  24
ATOM     23  C   UNL     1      12.031  13.765  19.699  0.00  0.00    +0.000 C 
ATOM     24  C   UNL     1      12.328  12.980  18.654  0.00  0.00    +0.000 C 
BRANCH  23  25
ATOM     25  C   UNL     1      10.892  13.474  20.624  0.00  0.00    +0.000 C 
BRANCH  25  26
ATOM     26  C   UNL     1      10.128  14.722  21.034  0.00  0.00    +0.000 C 
BRANCH  26  27
ATOM     27  C   UNL     1       8.945  14.914  20.092  0.00  0.00    +0.000 C 
BRANCH  27  28
ATOM     28  C   UNL     1       7.643  14.550  20.784  0.00  0.00    +0.000 C 
BRANCH  28  29
ATOM     29  C   UNL     1       6.465  15.258  20.126  0.00  0.00    +0.000 C 
BRANCH  29  30
ATOM     30  C   UNL     1       6.749  15.491  18.646  0.00  0.00    +0.000 C 
BRANCH  30  32
ATOM     31  C   UNL     1       4.441  15.081  17.761  0.00  0.00    +0.000 C 
ATOM     32  C   UNL     1       5.880  14.596  17.770  0.00  0.00    +0.000 C 
ENDBRANCH  30  32
ENDBRANCH  29  30
ENDBRANCH  28  29
ENDBRANCH  27  28
ENDBRANCH  26  27
ENDBRANCH  25  26
ENDBRANCH  23  25
ENDBRANCH  22  24
ENDBRANCH  21  22
ENDBRANCH  20  21
ENDBRANCH  19  20
ENDBRANCH  18  19
ENDBRANCH   1  18
TORSDOF 17
ENDMDL
MODEL 8
REMARK VINA RESULT:      -6.2      3.616      6.845
REMARK  Name = 
REMARK  20 active torsions:
REMARK  status: ('A' for Active; 'I' for Inactive)
REMARK    1  A    between atoms: C_1  and  C_2
REMARK    2  A    between atoms: C_2  and  C_3
REMARK    3  A    between atoms: C_3  and  C_4
REMARK    4  A    between atoms: C_4  and  C_5
REMARK    5  A    between atoms: C_5  and  C_6
REMARK    6  A    between atoms: C_6  and  C_7
REMARK    7  A    between atoms: C_7  and  C_8
REMARK    8  A    between atoms: C_8  and  C_9
REMARK    9  A    between atoms: C_10  and  C_11
REMARK   10  A    between atoms: C_11  and  C_12
REMARK   11  A    between atoms: C_12  and  C_13
REMARK   12  A    between atoms: C_13  and  C_14
REMARK   13  A    between atoms: C_14  and  C_15
REMARK   14  A    between atoms: C_15  and  C_16
REMARK   15  A    between atoms: C_16  and  C_17
REMARK   16  A    between atoms: C_17  and  C_18
REMARK   17  A    between atoms: C_18  and  N_19
REMARK   18  A    between atoms: N_22  and  C_23
REMARK   19  A    between atoms: C_24  and  C_25
REMARK   20  A    between atoms: C_29  and  C_30
REMARK                            x       y       z     vdW  Elec       q    Type
REMARK                         _______ _______ _______ _____ _____    ______ ____
ROOT
ATOM      1  C   UNL     1       2.716   2.096  19.330  0.00  0.00    +0.000 C 
ENDROOT
BRANCH   1   2
ATOM      2  C   UNL     1       1.391   2.301  20.060  0.00  0.00    +0.000 C 
BRANCH   2   3
ATOM      3  C   UNL     1       1.631   3.050  21.363  0.00  0.00    +0.000 C 
BRANCH   3   4
ATOM      4  N   UNL     1       2.361   4.280  21.178  0.00  0.00    +0.000 N 
ATOM      5  C   UNL     1       1.681   5.319  20.557  0.00  0.00    +0.000 C 
ATOM      6  O   UNL     1       0.529   5.212  20.145  0.00  0.00    +0.000 OA
ATOM      7  N   UNL     1       2.502   6.429  20.436  0.00  0.00    +0.000 N 
ATOM      8  H   UNL     1       3.023   4.557  21.896  0.00  0.00    +0.000 HD
ATOM      9  H   UNL     1       3.465   6.160  20.271  0.00  0.00    +0.000 HD
BRANCH   7  10
ATOM     10  C   UNL     1       2.050   7.602  19.770  0.00  0.00    +0.000 A 
ATOM     11  C   UNL     1       2.384   7.885  18.424  0.00  0.00    +0.000 A 
ATOM     12  C   UNL     1       3.122   6.939  17.513  0.00  0.00    +0.000 C 
ATOM     13  C   UNL     1       1.977   9.108  17.865  0.00  0.00    +0.000 A 
ATOM     14  C   UNL     1       1.219  10.015  18.599  0.00  0.00    +0.000 A 
ATOM     15  C   UNL     1       0.835   9.703  19.899  0.00  0.00    +0.000 A 
ATOM     16  C   UNL     1       1.233   8.498  20.496  0.00  0.00    +0.000 A 
ATOM     17  C   UNL     1       0.809   8.226  21.914  0.00  0.00    +0.000 C 
ENDBRANCH   7  10
ENDBRANCH   3   4
ENDBRANCH   2   3
ENDBRANCH   1   2
BRANCH   1  18
ATOM     18  C   UNL     1       2.710   2.769  17.961  0.00  0.00    +0.000 C 
BRANCH  18  19
ATOM     19  C   UNL     1       3.920   3.684  17.826  0.00  0.00    +0.000 C 
BRANCH  19  20
ATOM     20  C   UNL     1       4.885   3.519  18.997  0.00  0.00    +0.000 C 
BRANCH  20  21
ATOM     21  C   UNL     1       5.567   4.837  19.369  0.00  0.00    +0.000 C 
BRANCH  21  22
ATOM     22  C   UNL     1       6.575   5.344  18.336  0.00  0.00    +0.000 C 
BRANCH  22  24
ATOM     23  C   UNL     1       8.200   7.248  18.631  0.00  0.00    +0.000 C 
ATOM     24  C   UNL     1       7.754   6.031  18.972  0.00  0.00    +0.000 C 
BRANCH  23  25
ATOM     25  C   UNL     1       7.536   8.079  17.580  0.00  0.00    +0.000 C 
BRANCH  25  26
ATOM     26  C   UNL     1       7.795   9.567  17.749  0.00  0.00    +0.000 C 
BRANCH  26  27
ATOM     27  C   UNL     1       9.245   9.776  18.169  0.00  0.00    +0.000 C 
BRANCH  27  28
ATOM     28  C   UNL     1       9.319  10.517  19.493  0.00  0.00    +0.000 C 
BRANCH  28  29
ATOM     29  C   UNL     1      10.284  11.693  19.401  0.00  0.00    +0.000 C 
BRANCH  29  30
ATOM     30  C   UNL     1      10.773  12.083  20.791  0.00  0.00    +0.000 C 
BRANCH  30  32
ATOM     31  C   UNL     1      10.481  14.567  20.959  0.00  0.00    +0.000 C 
ATOM     32  C   UNL     1       9.932  13.213  21.376  0.00  0.00    +0.000 C 
ENDBRANCH  30  32
ENDBRANCH  29  30
ENDBRANCH  28  29
ENDBRANCH  27  28
ENDBRANCH  26  27
ENDBRANCH  25  26
ENDBRANCH  23  25
ENDBRANCH  22  24
ENDBRANCH  21  22
ENDBRANCH  20  21
ENDBRANCH  19  20
ENDBRANCH  18  19
ENDBRANCH   1  18
TORSDOF 17
ENDMDL
MODEL 9
REMARK VINA RESULT:      -6.1      3.145     10.117
REMARK  Name = 
REMARK  20 active torsions:
REMARK  status: ('A' for Active; 'I' for Inactive)
REMARK    1  A    between atoms: C_1  and  C_2
REMARK    2  A    between atoms: C_2  and  C_3
REMARK    3  A    between atoms: C_3  and  C_4
REMARK    4  A    between atoms: C_4  and  C_5
REMARK    5  A    between atoms: C_5  and  C_6
REMARK    6  A    between atoms: C_6  and  C_7
REMARK    7  A    between atoms: C_7  and  C_8
REMARK    8  A    between atoms: C_8  and  C_9
REMARK    9  A    between atoms: C_10  and  C_11
REMARK   10  A    between atoms: C_11  and  C_12
REMARK   11  A    between atoms: C_12  and  C_13
REMARK   12  A    between atoms: C_13  and  C_14
REMARK   13  A    between atoms: C_14  and  C_15
REMARK   14  A    between atoms: C_15  and  C_16
REMARK   15  A    between atoms: C_16  and  C_17
REMARK   16  A    between atoms: C_17  and  C_18
REMARK   17  A    between atoms: C_18  and  N_19
REMARK   18  A    between atoms: N_22  and  C_23
REMARK   19  A    between atoms: C_24  and  C_25
REMARK   20  A    between atoms: C_29  and  C_30
REMARK                            x       y       z     vdW  Elec       q    Type
REMARK                         _______ _______ _______ _____ _____    ______ ____
ROOT
ATOM      1  C   UNL     1       1.776   3.425  19.255  0.00  0.00    +0.000 C 
ENDROOT
BRANCH   1   2
ATOM      2  C   UNL     1       2.531   2.109  19.422  0.00  0.00    +0.000 C 
BRANCH   2   3
ATOM      3  C   UNL     1       3.843   2.355  20.152  0.00  0.00    +0.000 C 
BRANCH   3   4
ATOM      4  N   UNL     1       4.928   2.688  19.262  0.00  0.00    +0.000 N 
ATOM      5  C   UNL     1       5.336   4.015  19.250  0.00  0.00    +0.000 C 
ATOM      6  O   UNL     1       4.796   4.887  19.925  0.00  0.00    +0.000 OA
ATOM      7  N   UNL     1       6.373   4.193  18.347  0.00  0.00    +0.000 N 
ATOM      8  H   UNL     1       5.663   2.002  19.126  0.00  0.00    +0.000 HD
ATOM      9  H   UNL     1       6.266   3.591  17.538  0.00  0.00    +0.000 HD
BRANCH   7  10
ATOM     10  C   UNL     1       6.918   5.484  18.106  0.00  0.00    +0.000 A 
ATOM     11  C   UNL     1       7.870   6.077  18.969  0.00  0.00    +0.000 A 
ATOM     12  C   UNL     1       8.513   5.378  20.138  0.00  0.00    +0.000 C 
ATOM     13  C   UNL     1       8.292   7.394  18.714  0.00  0.00    +0.000 A 
ATOM     14  C   UNL     1       7.820   8.096  17.610  0.00  0.00    +0.000 A 
ATOM     15  C   UNL     1       6.937   7.486  16.727  0.00  0.00    +0.000 A 
ATOM     16  C   UNL     1       6.483   6.178  16.955  0.00  0.00    +0.000 A 
ATOM     17  C   UNL     1       5.507   5.578  15.979  0.00  0.00    +0.000 C 
ENDBRANCH   7  10
ENDBRANCH   3   4
ENDBRANCH   2   3
ENDBRANCH   1   2
BRANCH   1  18
ATOM     18  C   UNL     1       1.883   3.953  17.828  0.00  0.00    +0.000 C 
BRANCH  18  19
ATOM     19  C   UNL     1       1.746   5.470  17.824  0.00  0.00    +0.000 C 
BRANCH  19  20
ATOM     20  C   UNL     1       2.115   6.074  19.176  0.00  0.00    +0.000 C 
BRANCH  20  21
ATOM     21  C   UNL     1       2.585   7.524  19.049  0.00  0.00    +0.000 C 
BRANCH  21  22
ATOM     22  C   UNL     1       2.087   8.245  17.794  0.00  0.00    +0.000 C 
BRANCH  22  24
ATOM     23  C   UNL     1       1.194  10.479  18.543  0.00  0.00    +0.000 C 
ATOM     24  C   UNL     1       2.134   9.743  17.935  0.00  0.00    +0.000 C 
BRANCH  23  25
ATOM     25  C   UNL     1      -0.012   9.869  19.185  0.00  0.00    +0.000 C 
BRANCH  25  26
ATOM     26  C   UNL     1      -1.244  10.754  19.094  0.00  0.00    +0.000 C 
BRANCH  26  27
ATOM     27  C   UNL     1      -2.056  10.352  17.868  0.00  0.00    +0.000 C 
BRANCH  27  28
ATOM     28  C   UNL     1      -3.073  11.426  17.522  0.00  0.00    +0.000 C 
BRANCH  28  29
ATOM     29  C   UNL     1      -4.493  10.901  17.693  0.00  0.00    +0.000 C 
BRANCH  29  30
ATOM     30  C   UNL     1      -5.494  11.882  17.092  0.00  0.00    +0.000 C 
BRANCH  30  32
ATOM     31  C   UNL     1      -6.620  13.247  18.867  0.00  0.00    +0.000 C 
ATOM     32  C   UNL     1      -6.728  12.022  17.976  0.00  0.00    +0.000 C 
ENDBRANCH  30  32
ENDBRANCH  29  30
ENDBRANCH  28  29
ENDBRANCH  27  28
ENDBRANCH  26  27
ENDBRANCH  25  26
ENDBRANCH  23  25
ENDBRANCH  22  24
ENDBRANCH  21  22
ENDBRANCH  20  21
ENDBRANCH  19  20
ENDBRANCH  18  19
ENDBRANCH   1  18
TORSDOF 17
ENDMDL
