MODEL 1
REMARK VINA RESULT:      -9.0      0.000      0.000
REMARK  Name = 
REMARK  10 active torsions:
REMARK  status: ('A' for Active; 'I' for Inactive)
REMARK    1  A    between atoms: C_1  and  C_2
REMARK    2  A    between atoms: C_2  and  C_3
REMARK    3  A    between atoms: C_2  and  C_4
REMARK    4  A    between atoms: C_2  and  C_5
REMARK    5  A    between atoms: C_8  and  C_9
REMARK    6  A    between atoms: C_9  and  C_11
REMARK    7  A    between atoms: C_14  and  C_15
REMARK    8  A    between atoms: C_15  and  C_17
REMARK    9  A    between atoms: C_20  and  C_21
REMARK   10  A    between atoms: C_21  and  O_23
REMARK                            x       y       z     vdW  Elec       q    Type
REMARK                         _______ _______ _______ _____ _____    ______ ____
ROOT
ATOM      1  C   UNL     1       1.049   9.780  19.091  0.00  0.00    +0.000 A 
ATOM      2  C   UNL     1       1.575   9.291  17.891  0.00  0.00    +0.000 A 
ATOM      3  C   UNL     1       2.204   8.042  17.860  0.00  0.00    +0.000 A 
ATOM      4  C   UNL     1       2.300   7.273  19.027  0.00  0.00    +0.000 A 
ATOM      5  C   UNL     1       1.760   7.757  20.223  0.00  0.00    +0.000 A 
ATOM      6  C   UNL     1       1.107   8.993  20.248  0.00  0.00    +0.000 A 
ENDROOT
BRANCH   1   7
ATOM      7  C   UNL     1       0.440  11.134  19.099  0.00  0.00    +0.000 C 
ATOM      8  O   UNL     1       1.169  12.114  19.227  0.00  0.00    +0.000 OA
BRANCH   7  12
ATOM      9  C   UNL     1      -3.834  11.618  18.646  0.00  0.00    +0.000 A 
ATOM     10  C   UNL     1      -3.098  10.730  17.842  0.00  0.00    +0.000 A 
ATOM     11  C   UNL     1      -1.714  10.587  17.996  0.00  0.00    +0.000 A 
ATOM     12  C   UNL     1      -1.030  11.327  18.961  0.00  0.00    +0.000 A 
ATOM     13  C   UNL     1      -1.736  12.245  19.742  0.00  0.00    +0.000 A 
ATOM     14  C   UNL     1      -3.120  12.372  19.597  0.00  0.00    +0.000 A 
BRANCH   9  16
ATOM     15  C   UNL     1      -6.151  10.483  18.716  0.00  0.00    +0.000 C 
ATOM     16  C   UNL     1      -5.356  11.793  18.515  0.00  0.00    +0.000 C 
ATOM     17  C   UNL     1      -5.699  12.327  17.107  0.00  0.00    +0.000 C 
ATOM     18  C   UNL     1      -5.852  12.800  19.576  0.00  0.00    +0.000 C 
ENDBRANCH   9  16
ENDBRANCH   7  12
ENDBRANCH   1   7
BRANCH   4  19
ATOM     19  C   UNL     1       3.027   5.979  18.960  0.00  0.00    +0.000 C 
ATOM     20  O   UNL     1       2.802   5.121  19.813  0.00  0.00    +0.000 OA
BRANCH  19  21
ATOM     21  C   UNL     1       4.006   5.676  17.888  0.00  0.00    +0.000 A 
ATOM     22  C   UNL     1       4.019   4.386  17.341  0.00  0.00    +0.000 A 
ATOM     23  C   UNL     1       4.914   4.067  16.319  0.00  0.00    +0.000 A 
ATOM     24  C   UNL     1       5.814   5.025  15.837  0.00  0.00    +0.000 A 
ATOM     25  C   UNL     1       5.809   6.315  16.386  0.00  0.00    +0.000 A 
ATOM     26  C   UNL     1       4.922   6.631  17.421  0.00  0.00    +0.000 A 
BRANCH  24  27
ATOM     27  C   UNL     1       6.702   4.634  14.711  0.00  0.00    +0.000 C 
ATOM     28  O   UNL     1       7.639   5.324  14.346  0.00  0.00    +0.000 OA
BRANCH  27  29
ATOM     29  O   UNL     1       6.375   3.469  14.114  0.00  0.00    +0.000 OA
ATOM     30  H   UNL     1       6.241   2.709  14.707  0.00  0.00    +0.000 HD
ENDBRANCH  27  29
ENDBRANCH  24  27
ENDBRANCH  19  21
ENDBRANCH   4  19
TORSDOF 7
ENDMDL
MODEL 2
REMARK VINA RESULT:      -9.0      0.162      1.357
REMARK  Name = 
REMARK  10 active torsions:
REMARK  status: ('A' for Active; 'I' for Inactive)
REMARK    1  A    between atoms: C_1  and  C_2
REMARK    2  A    between atoms: C_2  and  C_3
REMARK    3  A    between atoms: C_2  and  C_4
REMARK    4  A    between atoms: C_2  and  C_5
REMARK    5  A    between atoms: C_8  and  C_9
REMARK    6  A    between atoms: C_9  and  C_11
REMARK    7  A    between atoms: C_14  and  C_15
REMARK    8  A    between atoms: C_15  and  C_17
REMARK    9  A    between atoms: C_20  and  C_21
REMARK   10  A    between atoms: C_21  and  O_23
REMARK                            x       y       z     vdW  Elec       q    Type
REMARK                         _______ _______ _______ _____ _____    ______ ____
ROOT
ATOM      1  C   UNL     1       1.017   9.839  18.998  0.00  0.00    +0.000 A 
ATOM      2  C   UNL     1       1.568   9.328  17.818  0.00  0.00    +0.000 A 
ATOM      3  C   UNL     1       2.237   8.101  17.833  0.00  0.00    +0.000 A 
ATOM      4  C   UNL     1       2.350   7.373  19.024  0.00  0.00    +0.000 A 
ATOM      5  C   UNL     1       1.786   7.879  20.201  0.00  0.00    +0.000 A 
ATOM      6  C   UNL     1       1.093   9.092  20.181  0.00  0.00    +0.000 A 
ENDROOT
BRANCH   1   7
ATOM      7  C   UNL     1       0.364  11.172  18.958  0.00  0.00    +0.000 C 
ATOM      8  O   UNL     1       1.063  12.180  19.028  0.00  0.00    +0.000 OA
BRANCH   7  12
ATOM      9  C   UNL     1      -3.922  11.658  18.665  0.00  0.00    +0.000 A 
ATOM     10  C   UNL     1      -3.151  12.403  19.573  0.00  0.00    +0.000 A 
ATOM     11  C   UNL     1      -1.765  12.233  19.661  0.00  0.00    +0.000 A 
ATOM     12  C   UNL     1      -1.113  11.312  18.840  0.00  0.00    +0.000 A 
ATOM     13  C   UNL     1      -1.866  10.532  17.960  0.00  0.00    +0.000 A 
ATOM     14  C   UNL     1      -3.247  10.718  17.862  0.00  0.00    +0.000 A 
BRANCH   9  16
ATOM     15  C   UNL     1      -5.883  12.474  17.197  0.00  0.00    +0.000 C 
ATOM     16  C   UNL     1      -5.446  11.827  18.530  0.00  0.00    +0.000 C 
ATOM     17  C   UNL     1      -5.971  12.725  19.672  0.00  0.00    +0.000 C 
ATOM     18  C   UNL     1      -6.127  10.443  18.616  0.00  0.00    +0.000 C 
ENDBRANCH   9  16
ENDBRANCH   7  12
ENDBRANCH   1   7
BRANCH   4  19
ATOM     19  C   UNL     1       3.119   6.103  19.005  0.00  0.00    +0.000 C 
ATOM     20  O   UNL     1       2.961   5.293  19.918  0.00  0.00    +0.000 OA
BRANCH  19  21
ATOM     21  C   UNL     1       4.064   5.766  17.912  0.00  0.00    +0.000 A 
ATOM     22  C   UNL     1       3.931   4.526  17.274  0.00  0.00    +0.000 A 
ATOM     23  C   UNL     1       4.790   4.180  16.230  0.00  0.00    +0.000 A 
ATOM     24  C   UNL     1       5.797   5.059  15.816  0.00  0.00    +0.000 A 
ATOM     25  C   UNL     1       5.938   6.299  16.457  0.00  0.00    +0.000 A 
ATOM     26  C   UNL     1       5.086   6.640  17.514  0.00  0.00    +0.000 A 
BRANCH  24  27
ATOM     27  C   UNL     1       6.641   4.650  14.663  0.00  0.00    +0.000 C 
ATOM     28  O   UNL     1       6.332   3.737  13.916  0.00  0.00    +0.000 OA
BRANCH  27  29
ATOM     29  O   UNL     1       7.785   5.352  14.524  0.00  0.00    +0.000 OA
ATOM     30  H   UNL     1       7.863   6.151  15.074  0.00  0.00    +0.000 HD
ENDBRANCH  27  29
ENDBRANCH  24  27
ENDBRANCH  19  21
ENDBRANCH   4  19
TORSDOF 7
ENDMDL
MODEL 3
REMARK VINA RESULT:      -8.9      0.263      1.517
REMARK  Name = 
REMARK  10 active torsions:
REMARK  status: ('A' for Active; 'I' for Inactive)
REMARK    1  A    between atoms: C_1  and  C_2
REMARK    2  A    between atoms: C_2  and  C_3
REMARK    3  A    between atoms: C_2  and  C_4
REMARK    4  A    between atoms: C_2  and  C_5
REMARK    5  A    between atoms: C_8  and  C_9
REMARK    6  A    between atoms: C_9  and  C_11
REMARK    7  A    between atoms: C_14  and  C_15
REMARK    8  A    between atoms: C_15  and  C_17
REMARK    9  A    between atoms: C_20  and  C_21
REMARK   10  A    between atoms: C_21  and  O_23
REMARK                            x       y       z     vdW  Elec       q    Type
REMARK                         _______ _______ _______ _____ _____    ______ ____
ROOT
ATOM      1  C   UNL     1       1.009  10.087  19.074  0.00  0.00    +0.000 A 
ATOM      2  C   UNL     1       1.078   9.265  20.203  0.00  0.00    +0.000 A 
ATOM      3  C   UNL     1       1.694   8.012  20.119  0.00  0.00    +0.000 A 
ATOM      4  C   UNL     1       2.252   7.581  18.909  0.00  0.00    +0.000 A 
ATOM      5  C   UNL     1       2.194   8.411  17.784  0.00  0.00    +0.000 A 
ATOM      6  C   UNL     1       1.605   9.674  17.875  0.00  0.00    +0.000 A 
ENDROOT
BRANCH   1   7
ATOM      7  C   UNL     1       0.298  11.386  19.184  0.00  0.00    +0.000 C 
ATOM      8  O   UNL     1       0.945  12.401  19.425  0.00  0.00    +0.000 OA
BRANCH   7  12
ATOM      9  C   UNL     1      -3.990  11.738  18.746  0.00  0.00    +0.000 A 
ATOM     10  C   UNL     1      -3.289  12.418  19.757  0.00  0.00    +0.000 A 
ATOM     11  C   UNL     1      -1.901  12.291  19.891  0.00  0.00    +0.000 A 
ATOM     12  C   UNL     1      -1.178  11.482  19.014  0.00  0.00    +0.000 A 
ATOM     13  C   UNL     1      -1.861  10.766  18.028  0.00  0.00    +0.000 A 
ATOM     14  C   UNL     1      -3.244  10.909  17.887  0.00  0.00    +0.000 A 
BRANCH   9  16
ATOM     15  C   UNL     1      -6.188  12.801  19.585  0.00  0.00    +0.000 C 
ATOM     16  C   UNL     1      -5.512  11.863  18.560  0.00  0.00    +0.000 C 
ATOM     17  C   UNL     1      -6.169  10.473  18.706  0.00  0.00    +0.000 C 
ATOM     18  C   UNL     1      -5.814  12.424  17.154  0.00  0.00    +0.000 C 
ENDBRANCH   9  16
ENDBRANCH   7  12
ENDBRANCH   1   7
BRANCH   4  19
ATOM     19  C   UNL     1       2.844   6.219  18.851  0.00  0.00    +0.000 C 
ATOM     20  O   UNL     1       2.462   5.366  19.651  0.00  0.00    +0.000 OA
BRANCH  19  21
ATOM     21  C   UNL     1       3.871   5.844  17.849  0.00  0.00    +0.000 A 
ATOM     22  C   UNL     1       3.805   4.570  17.271  0.00  0.00    +0.000 A 
ATOM     23  C   UNL     1       4.743   4.187  16.311  0.00  0.00    +0.000 A 
ATOM     24  C   UNL     1       5.763   5.063  15.923  0.00  0.00    +0.000 A 
ATOM     25  C   UNL     1       5.837   6.337  16.504  0.00  0.00    +0.000 A 
ATOM     26  C   UNL     1       4.905   6.716  17.478  0.00  0.00    +0.000 A 
BRANCH  24  27
ATOM     27  C   UNL     1       6.696   4.611  14.858  0.00  0.00    +0.000 C 
ATOM     28  O   UNL     1       7.667   5.264  14.516  0.00  0.00    +0.000 OA
BRANCH  27  29
ATOM     29  O   UNL     1       6.369   3.433  14.286  0.00  0.00    +0.000 OA
ATOM     30  H   UNL     1       7.071   2.760  14.266  0.00  0.00    +0.000 HD
ENDBRANCH  27  29
ENDBRANCH  24  27
ENDBRANCH  19  21
ENDBRANCH   4  19
TORSDOF 7
ENDMDL
MODEL 4
REMARK VINA RESULT:      -8.8      0.415      1.337
REMARK  Name = 
REMARK  10 active torsions:
REMARK  status: ('A' for Active; 'I' for Inactive)
REMARK    1  A    between atoms: C_1  and  C_2
REMARK    2  A    between atoms: C_2  and  C_3
REMARK    3  A    between atoms: C_2  and  C_4
REMARK    4  A    between atoms: C_2  and  C_5
REMARK    5  A    between atoms: C_8  and  C_9
REMARK    6  A    between atoms: C_9  and  C_11
REMARK    7  A    between atoms: C_14  and  C_15
REMARK    8  A    between atoms: C_15  and  C_17
REMARK    9  A    between atoms: C_20  and  C_21
REMARK   10  A    between atoms: C_21  and  O_23
REMARK                            x       y       z     vdW  Elec       q    Type
REMARK                         _______ _______ _______ _____ _____    ______ ____
ROOT
ATOM      1  C   UNL     1       0.924  10.240  19.024  0.00  0.00    +0.000 A 
ATOM      2  C   UNL     1       1.038   9.499  20.204  0.00  0.00    +0.000 A 
ATOM      3  C   UNL     1       1.644   8.239  20.183  0.00  0.00    +0.000 A 
ATOM      4  C   UNL     1       2.150   7.720  18.985  0.00  0.00    +0.000 A 
ATOM      5  C   UNL     1       2.048   8.469  17.807  0.00  0.00    +0.000 A 
ATOM      6  C   UNL     1       1.467   9.740  17.833  0.00  0.00    +0.000 A 
ENDROOT
BRANCH   1   7
ATOM      7  C   UNL     1       0.222  11.548  19.071  0.00  0.00    +0.000 C 
ATOM      8  O   UNL     1       0.885  12.575  19.190  0.00  0.00    +0.000 OA
BRANCH   7  12
ATOM      9  C   UNL     1      -4.086  11.739  18.757  0.00  0.00    +0.000 A 
ATOM     10  C   UNL     1      -3.310  10.980  17.864  0.00  0.00    +0.000 A 
ATOM     11  C   UNL     1      -1.915  10.930  17.974  0.00  0.00    +0.000 A 
ATOM     12  C   UNL     1      -1.261  11.639  18.983  0.00  0.00    +0.000 A 
ATOM     13  C   UNL     1      -2.010  12.432  19.854  0.00  0.00    +0.000 A 
ATOM     14  C   UNL     1      -3.404  12.464  19.752  0.00  0.00    +0.000 A 
BRANCH   9  16
ATOM     15  C   UNL     1      -6.305  10.421  18.695  0.00  0.00    +0.000 C 
ATOM     16  C   UNL     1      -5.621  11.806  18.675  0.00  0.00    +0.000 C 
ATOM     17  C   UNL     1      -6.041  12.508  17.365  0.00  0.00    +0.000 C 
ATOM     18  C   UNL     1      -6.165  12.606  19.879  0.00  0.00    +0.000 C 
ENDBRANCH   9  16
ENDBRANCH   7  12
ENDBRANCH   1   7
BRANCH   4  19
ATOM     19  C   UNL     1       2.734   6.354  18.999  0.00  0.00    +0.000 C 
ATOM     20  O   UNL     1       2.415   5.575  19.896  0.00  0.00    +0.000 OA
BRANCH  19  21
ATOM     21  C   UNL     1       3.681   5.887  17.956  0.00  0.00    +0.000 A 
ATOM     22  C   UNL     1       4.638   6.787  17.473  0.00  0.00    +0.000 A 
ATOM     23  C   UNL     1       5.557   6.381  16.505  0.00  0.00    +0.000 A 
ATOM     24  C   UNL     1       5.527   5.076  15.999  0.00  0.00    +0.000 A 
ATOM     25  C   UNL     1       4.565   4.173  16.475  0.00  0.00    +0.000 A 
ATOM     26  C   UNL     1       3.634   4.585  17.435  0.00  0.00    +0.000 A 
BRANCH  24  27
ATOM     27  C   UNL     1       6.568   4.693  15.009  0.00  0.00    +0.000 C 
ATOM     28  O   UNL     1       7.541   5.391  14.781  0.00  0.00    +0.000 OA
BRANCH  27  29
ATOM     29  O   UNL     1       6.337   3.527  14.370  0.00  0.00    +0.000 OA
ATOM     30  H   UNL     1       7.022   3.245  13.739  0.00  0.00    +0.000 HD
ENDBRANCH  27  29
ENDBRANCH  24  27
ENDBRANCH  19  21
ENDBRANCH   4  19
TORSDOF 7
ENDMDL
MODEL 5
REMARK VINA RESULT:      -8.7      2.621      4.256
REMARK  Name = 
REMARK  10 active torsions:
REMARK  status: ('A' for Active; 'I' for Inactive)
REMARK    1  A    between atoms: C_1  and  C_2
REMARK    2  A    between atoms: C_2  and  C_3
REMARK    3  A    between atoms: C_2  and  C_4
REMARK    4  A    between atoms: C_2  and  C_5
REMARK    5  A    between atoms: C_8  and  C_9
REMARK    6  A    between atoms: C_9  and  C_11
REMARK    7  A    between atoms: C_14  and  C_15
REMARK    8  A    between atoms: C_15  and  C_17
REMARK    9  A    between atoms: C_20  and  C_21
REMARK   10  A    between atoms: C_21  and  O_23
REMARK                            x       y       z     vdW  Elec       q    Type
REMARK                         _______ _______ _______ _____ _____    ______ ____
ROOT
ATOM      1  C   UNL     1       0.818   9.758  19.069  0.00  0.00    +0.000 A 
ATOM      2  C   UNL     1       1.066   9.059  20.254  0.00  0.00    +0.000 A 
ATOM      3  C   UNL     1       1.841   7.896  20.230  0.00  0.00    +0.000 A 
ATOM      4  C   UNL     1       2.380   7.432  19.023  0.00  0.00    +0.000 A 
ATOM      5  C   UNL     1       2.142   8.141  17.841  0.00  0.00    +0.000 A 
ATOM      6  C   UNL     1       1.391   9.319  17.869  0.00  0.00    +0.000 A 
ENDROOT
BRANCH   1   7
ATOM      7  C   UNL     1      -0.058  10.957  19.121  0.00  0.00    +0.000 C 
ATOM      8  O   UNL     1      -1.263  10.806  19.306  0.00  0.00    +0.000 OA
BRANCH   7  12
ATOM      9  C   UNL     1       1.457  14.980  18.657  0.00  0.00    +0.000 A 
ATOM     10  C   UNL     1       0.090  14.720  18.857  0.00  0.00    +0.000 A 
ATOM     11  C   UNL     1      -0.387  13.412  19.001  0.00  0.00    +0.000 A 
ATOM     12  C   UNL     1       0.492  12.329  18.951  0.00  0.00    +0.000 A 
ATOM     13  C   UNL     1       1.847  12.564  18.712  0.00  0.00    +0.000 A 
ATOM     14  C   UNL     1       2.323  13.872  18.586  0.00  0.00    +0.000 A 
BRANCH   9  16
ATOM     15  C   UNL     1       3.161  16.515  17.472  0.00  0.00    +0.000 C 
ATOM     16  C   UNL     1       2.021  16.404  18.508  0.00  0.00    +0.000 C 
ATOM     17  C   UNL     1       2.583  16.885  19.864  0.00  0.00    +0.000 C 
ATOM     18  C   UNL     1       0.894  17.358  18.057  0.00  0.00    +0.000 C 
ENDBRANCH   9  16
ENDBRANCH   7  12
ENDBRANCH   1   7
BRANCH   4  19
ATOM     19  C   UNL     1       3.149   6.161  19.036  0.00  0.00    +0.000 C 
ATOM     20  O   UNL     1       2.982   5.370  19.964  0.00  0.00    +0.000 OA
BRANCH  19  21
ATOM     21  C   UNL     1       4.102   5.801  17.959  0.00  0.00    +0.000 A 
ATOM     22  C   UNL     1       3.934   4.576  17.301  0.00  0.00    +0.000 A 
ATOM     23  C   UNL     1       4.800   4.209  16.270  0.00  0.00    +0.000 A 
ATOM     24  C   UNL     1       5.850   5.053  15.889  0.00  0.00    +0.000 A 
ATOM     25  C   UNL     1       6.026   6.278  16.550  0.00  0.00    +0.000 A 
ATOM     26  C   UNL     1       5.167   6.639  17.593  0.00  0.00    +0.000 A 
BRANCH  24  27
ATOM     27  C   UNL     1       6.702   4.626  14.748  0.00  0.00    +0.000 C 
ATOM     28  O   UNL     1       7.655   5.280  14.362  0.00  0.00    +0.000 OA
BRANCH  27  29
ATOM     29  O   UNL     1       6.322   3.471  14.163  0.00  0.00    +0.000 OA
ATOM     30  H   UNL     1       6.084   3.528  13.222  0.00  0.00    +0.000 HD
ENDBRANCH  27  29
ENDBRANCH  24  27
ENDBRANCH  19  21
ENDBRANCH   4  19
TORSDOF 7
ENDMDL
MODEL 6
REMARK VINA RESULT:      -8.7      2.650      4.372
REMARK  Name = 
REMARK  10 active torsions:
REMARK  status: ('A' for Active; 'I' for Inactive)
REMARK    1  A    between atoms: C_1  and  C_2
REMARK    2  A    between atoms: C_2  and  C_3
REMARK    3  A    between atoms: C_2  and  C_4
REMARK    4  A    between atoms: C_2  and  C_5
REMARK    5  A    between atoms: C_8  and  C_9
REMARK    6  A    between atoms: C_9  and  C_11
REMARK    7  A    between atoms: C_14  and  C_15
REMARK    8  A    between atoms: C_15  and  C_17
REMARK    9  A    between atoms: C_20  and  C_21
REMARK   10  A    between atoms: C_21  and  O_23
REMARK                            x       y       z     vdW  Elec       q    Type
REMARK                         _______ _______ _______ _____ _____    ______ ____
ROOT
ATOM      1  C   UNL     1       0.795   9.807  19.023  0.00  0.00    +0.000 A 
ATOM      2  C   UNL     1       1.054   9.139  20.224  0.00  0.00    +0.000 A 
ATOM      3  C   UNL     1       1.820   7.970  20.222  0.00  0.00    +0.000 A 
ATOM      4  C   UNL     1       2.340   7.469  19.022  0.00  0.00    +0.000 A 
ATOM      5  C   UNL     1       2.092   8.147  17.823  0.00  0.00    +0.000 A 
ATOM      6  C   UNL     1       1.350   9.331  17.828  0.00  0.00    +0.000 A 
ENDROOT
BRANCH   1   7
ATOM      7  C   UNL     1      -0.071  11.014  19.053  0.00  0.00    +0.000 C 
ATOM      8  O   UNL     1      -1.283  10.873  19.194  0.00  0.00    +0.000 OA
BRANCH   7  12
ATOM      9  C   UNL     1       1.496  15.026  18.675  0.00  0.00    +0.000 A 
ATOM     10  C   UNL     1       0.123  14.779  18.851  0.00  0.00    +0.000 A 
ATOM     11  C   UNL     1      -0.371  13.474  18.967  0.00  0.00    +0.000 A 
ATOM     12  C   UNL     1       0.496  12.382  18.913  0.00  0.00    +0.000 A 
ATOM     13  C   UNL     1       1.858  12.605  18.697  0.00  0.00    +0.000 A 
ATOM     14  C   UNL     1       2.350  13.909  18.600  0.00  0.00    +0.000 A 
BRANCH   9  16
ATOM     15  C   UNL     1       2.608  17.012  19.893  0.00  0.00    +0.000 C 
ATOM     16  C   UNL     1       2.078  16.446  18.557  0.00  0.00    +0.000 C 
ATOM     17  C   UNL     1       0.987  17.413  18.047  0.00  0.00    +0.000 C 
ATOM     18  C   UNL     1       3.257  16.437  17.560  0.00  0.00    +0.000 C 
ENDBRANCH   9  16
ENDBRANCH   7  12
ENDBRANCH   1   7
BRANCH   4  19
ATOM     19  C   UNL     1       3.100   6.193  19.060  0.00  0.00    +0.000 C 
ATOM     20  O   UNL     1       2.993   5.462  20.044  0.00  0.00    +0.000 OA
BRANCH  19  21
ATOM     21  C   UNL     1       3.973   5.757  17.943  0.00  0.00    +0.000 A 
ATOM     22  C   UNL     1       4.946   6.647  17.471  0.00  0.00    +0.000 A 
ATOM     23  C   UNL     1       5.798   6.268  16.433  0.00  0.00    +0.000 A 
ATOM     24  C   UNL     1       5.684   5.002  15.845  0.00  0.00    +0.000 A 
ATOM     25  C   UNL     1       4.707   4.111  16.311  0.00  0.00    +0.000 A 
ATOM     26  C   UNL     1       3.842   4.497  17.342  0.00  0.00    +0.000 A 
BRANCH  24  27
ATOM     27  C   UNL     1       6.658   4.644  14.781  0.00  0.00    +0.000 C 
ATOM     28  O   UNL     1       7.640   5.324  14.536  0.00  0.00    +0.000 OA
BRANCH  27  29
ATOM     29  O   UNL     1       6.356   3.521  14.096  0.00  0.00    +0.000 OA
ATOM     30  H   UNL     1       7.044   2.833  14.082  0.00  0.00    +0.000 HD
ENDBRANCH  27  29
ENDBRANCH  24  27
ENDBRANCH  19  21
ENDBRANCH   4  19
TORSDOF 7
ENDMDL
MODEL 7
REMARK VINA RESULT:      -8.7      0.466      1.705
REMARK  Name = 
REMARK  10 active torsions:
REMARK  status: ('A' for Active; 'I' for Inactive)
REMARK    1  A    between atoms: C_1  and  C_2
REMARK    2  A    between atoms: C_2  and  C_3
REMARK    3  A    between atoms: C_2  and  C_4
REMARK    4  A    between atoms: C_2  and  C_5
REMARK    5  A    between atoms: C_8  and  C_9
REMARK    6  A    between atoms: C_9  and  C_11
REMARK    7  A    between atoms: C_14  and  C_15
REMARK    8  A    between atoms: C_15  and  C_17
REMARK    9  A    between atoms: C_20  and  C_21
REMARK   10  A    between atoms: C_21  and  O_23
REMARK                            x       y       z     vdW  Elec       q    Type
REMARK                         _______ _______ _______ _____ _____    ______ ____
ROOT
ATOM      1  C   UNL     1       0.932  10.221  18.949  0.00  0.00    +0.000 A 
ATOM      2  C   UNL     1       0.933   9.472  20.130  0.00  0.00    +0.000 A 
ATOM      3  C   UNL     1       1.559   8.222  20.165  0.00  0.00    +0.000 A 
ATOM      4  C   UNL     1       2.195   7.720  19.022  0.00  0.00    +0.000 A 
ATOM      5  C   UNL     1       2.204   8.477  17.845  0.00  0.00    +0.000 A 
ATOM      6  C   UNL     1       1.603   9.738  17.818  0.00  0.00    +0.000 A 
ENDROOT
BRANCH   1   7
ATOM      7  C   UNL     1       0.208  11.517  18.931  0.00  0.00    +0.000 C 
ATOM      8  O   UNL     1       0.853  12.560  19.000  0.00  0.00    +0.000 OA
BRANCH   7  12
ATOM      9  C   UNL     1      -4.104  11.770  18.713  0.00  0.00    +0.000 A 
ATOM     10  C   UNL     1      -3.368  12.457  19.694  0.00  0.00    +0.000 A 
ATOM     11  C   UNL     1      -1.973  12.363  19.757  0.00  0.00    +0.000 A 
ATOM     12  C   UNL     1      -1.276  11.579  18.836  0.00  0.00    +0.000 A 
ATOM     13  C   UNL     1      -1.991  10.855  17.879  0.00  0.00    +0.000 A 
ATOM     14  C   UNL     1      -3.383  10.966  17.810  0.00  0.00    +0.000 A 
BRANCH   9  16
ATOM     15  C   UNL     1      -6.346  10.491  18.698  0.00  0.00    +0.000 C 
ATOM     16  C   UNL     1      -5.636  11.860  18.606  0.00  0.00    +0.000 C 
ATOM     17  C   UNL     1      -6.025  12.490  17.251  0.00  0.00    +0.000 C 
ATOM     18  C   UNL     1      -6.181  12.739  19.752  0.00  0.00    +0.000 C 
ENDBRANCH   9  16
ENDBRANCH   7  12
ENDBRANCH   1   7
BRANCH   4  19
ATOM     19  C   UNL     1       2.796   6.363  19.089  0.00  0.00    +0.000 C 
ATOM     20  O   UNL     1       2.546   5.644  20.056  0.00  0.00    +0.000 OA
BRANCH  19  21
ATOM     21  C   UNL     1       3.677   5.834  18.019  0.00  0.00    +0.000 A 
ATOM     22  C   UNL     1       4.624   6.695  17.449  0.00  0.00    +0.000 A 
ATOM     23  C   UNL     1       5.483   6.230  16.452  0.00  0.00    +0.000 A 
ATOM     24  C   UNL     1       5.402   4.906  16.004  0.00  0.00    +0.000 A 
ATOM     25  C   UNL     1       4.451   4.043  16.567  0.00  0.00    +0.000 A 
ATOM     26  C   UNL     1       3.580   4.513  17.556  0.00  0.00    +0.000 A 
BRANCH  24  27
ATOM     27  C   UNL     1       6.382   4.462  14.978  0.00  0.00    +0.000 C 
ATOM     28  O   UNL     1       6.054   3.827  13.990  0.00  0.00    +0.000 OA
BRANCH  27  29
ATOM     29  O   UNL     1       7.663   4.798  15.239  0.00  0.00    +0.000 OA
ATOM     30  H   UNL     1       7.918   4.804  16.178  0.00  0.00    +0.000 HD
ENDBRANCH  27  29
ENDBRANCH  24  27
ENDBRANCH  19  21
ENDBRANCH   4  19
TORSDOF 7
ENDMDL
MODEL 8
REMARK VINA RESULT:      -8.7      0.305      1.645
REMARK  Name = 
REMARK  10 active torsions:
REMARK  status: ('A' for Active; 'I' for Inactive)
REMARK    1  A    between atoms: C_1  and  C_2
REMARK    2  A    between atoms: C_2  and  C_3
REMARK    3  A    between atoms: C_2  and  C_4
REMARK    4  A    between atoms: C_2  and  C_5
REMARK    5  A    between atoms: C_8  and  C_9
REMARK    6  A    between atoms: C_9  and  C_11
REMARK    7  A    between atoms: C_14  and  C_15
REMARK    8  A    between atoms: C_15  and  C_17
REMARK    9  A    between atoms: C_20  and  C_21
REMARK   10  A    between atoms: C_21  and  O_23
REMARK                            x       y       z     vdW  Elec       q    Type
REMARK                         _______ _______ _______ _____ _____    ______ ____
ROOT
ATOM      1  C   UNL     1       1.055  10.069  19.266  0.00  0.00    +0.000 A 
ATOM      2  C   UNL     1       1.158   9.242  20.388  0.00  0.00    +0.000 A 
ATOM      3  C   UNL     1       1.745   7.978  20.274  0.00  0.00    +0.000 A 
ATOM      4  C   UNL     1       2.241   7.540  19.040  0.00  0.00    +0.000 A 
ATOM      5  C   UNL     1       2.151   8.375  17.921  0.00  0.00    +0.000 A 
ATOM      6  C   UNL     1       1.590   9.649  18.041  0.00  0.00    +0.000 A 
ENDROOT
BRANCH   1   7
ATOM      7  C   UNL     1       0.374  11.381  19.410  0.00  0.00    +0.000 C 
ATOM      8  O   UNL     1       1.038  12.364  19.730  0.00  0.00    +0.000 OA
BRANCH   7  12
ATOM      9  C   UNL     1      -3.875  11.731  18.691  0.00  0.00    +0.000 A 
ATOM     10  C   UNL     1      -3.055  10.904  17.904  0.00  0.00    +0.000 A 
ATOM     11  C   UNL     1      -1.679  10.803  18.145  0.00  0.00    +0.000 A 
ATOM     12  C   UNL     1      -1.089  11.527  19.182  0.00  0.00    +0.000 A 
ATOM     13  C   UNL     1      -1.879  12.386  19.948  0.00  0.00    +0.000 A 
ATOM     14  C   UNL     1      -3.255  12.470  19.716  0.00  0.00    +0.000 A 
BRANCH   9  16
ATOM     15  C   UNL     1      -5.768  12.411  17.073  0.00  0.00    +0.000 C 
ATOM     16  C   UNL     1      -5.392  11.856  18.465  0.00  0.00    +0.000 C 
ATOM     17  C   UNL     1      -5.997  12.809  19.519  0.00  0.00    +0.000 C 
ATOM     18  C   UNL     1      -6.048  10.465  18.598  0.00  0.00    +0.000 C 
ENDBRANCH   9  16
ENDBRANCH   7  12
ENDBRANCH   1   7
BRANCH   4  19
ATOM     19  C   UNL     1       2.804   6.168  18.952  0.00  0.00    +0.000 C 
ATOM     20  O   UNL     1       2.484   5.335  19.800  0.00  0.00    +0.000 OA
BRANCH  19  21
ATOM     21  C   UNL     1       3.728   5.758  17.866  0.00  0.00    +0.000 A 
ATOM     22  C   UNL     1       4.656   6.694  17.393  0.00  0.00    +0.000 A 
ATOM     23  C   UNL     1       5.554   6.341  16.384  0.00  0.00    +0.000 A 
ATOM     24  C   UNL     1       5.530   5.057  15.828  0.00  0.00    +0.000 A 
ATOM     25  C   UNL     1       4.597   4.119  16.294  0.00  0.00    +0.000 A 
ATOM     26  C   UNL     1       3.687   4.478  17.295  0.00  0.00    +0.000 A 
BRANCH  24  27
ATOM     27  C   UNL     1       6.549   4.732  14.795  0.00  0.00    +0.000 C 
ATOM     28  O   UNL     1       6.409   3.815  14.004  0.00  0.00    +0.000 OA
BRANCH  27  29
ATOM     29  O   UNL     1       7.646   5.516  14.819  0.00  0.00    +0.000 OA
ATOM     30  H   UNL     1       8.184   5.522  14.009  0.00  0.00    +0.000 HD
ENDBRANCH  27  29
ENDBRANCH  24  27
ENDBRANCH  19  21
ENDBRANCH   4  19
TORSDOF 7
ENDMDL
MODEL 9
REMARK VINA RESULT:      -8.7      2.616      4.286
REMARK  Name = 
REMARK  10 active torsions:
REMARK  status: ('A' for Active; 'I' for Inactive)
REMARK    1  A    between atoms: C_1  and  C_2
REMARK    2  A    between atoms: C_2  and  C_3
REMARK    3  A    between atoms: C_2  and  C_4
REMARK    4  A    between atoms: C_2  and  C_5
REMARK    5  A    between atoms: C_8  and  C_9
REMARK    6  A    between atoms: C_9  and  C_11
REMARK    7  A    between atoms: C_14  and  C_15
REMARK    8  A    between atoms: C_15  and  C_17
REMARK    9  A    between atoms: C_20  and  C_21
REMARK   10  A    between atoms: C_21  and  O_23
REMARK                            x       y       z     vdW  Elec       q    Type
REMARK                         _______ _______ _______ _____ _____    ______ ____
ROOT
ATOM      1  C   UNL     1       0.899   9.536  18.961  0.00  0.00    +0.000 A 
ATOM      2  C   UNL     1       1.471   9.025  17.791  0.00  0.00    +0.000 A 
ATOM      3  C   UNL     1       2.274   7.882  17.847  0.00  0.00    +0.000 A 
ATOM      4  C   UNL     1       2.501   7.238  19.070  0.00  0.00    +0.000 A 
ATOM      5  C   UNL     1       1.917   7.743  20.238  0.00  0.00    +0.000 A 
ATOM      6  C   UNL     1       1.091   8.869  20.178  0.00  0.00    +0.000 A 
ENDROOT
BRANCH   1   7
ATOM      7  C   UNL     1       0.100  10.784  18.874  0.00  0.00    +0.000 C 
ATOM      8  O   UNL     1      -1.126  10.707  18.880  0.00  0.00    +0.000 OA
BRANCH   7  12
ATOM      9  C   UNL     1       1.911  14.702  18.620  0.00  0.00    +0.000 A 
ATOM     10  C   UNL     1       0.531  14.535  18.830  0.00  0.00    +0.000 A 
ATOM     11  C   UNL     1      -0.043  13.260  18.906  0.00  0.00    +0.000 A 
ATOM     12  C   UNL     1       0.750  12.119  18.774  0.00  0.00    +0.000 A 
ATOM     13  C   UNL     1       2.116  12.264  18.523  0.00  0.00    +0.000 A 
ATOM     14  C   UNL     1       2.688  13.538  18.467  0.00  0.00    +0.000 A 
BRANCH   9  16
ATOM     15  C   UNL     1       1.575  17.260  18.524  0.00  0.00    +0.000 C 
ATOM     16  C   UNL     1       2.579  16.086  18.544  0.00  0.00    +0.000 C 
ATOM     17  C   UNL     1       3.428  16.184  17.258  0.00  0.00    +0.000 C 
ATOM     18  C   UNL     1       3.493  16.283  19.774  0.00  0.00    +0.000 C 
ENDBRANCH   9  16
ENDBRANCH   7  12
ENDBRANCH   1   7
BRANCH   4  19
ATOM     19  C   UNL     1       3.408   6.062  19.091  0.00  0.00    +0.000 C 
ATOM     20  O   UNL     1       3.402   5.318  20.071  0.00  0.00    +0.000 OA
BRANCH  19  21
ATOM     21  C   UNL     1       4.312   5.739  17.960  0.00  0.00    +0.000 A 
ATOM     22  C   UNL     1       4.024   4.615  17.175  0.00  0.00    +0.000 A 
ATOM     23  C   UNL     1       4.841   4.289  16.092  0.00  0.00    +0.000 A 
ATOM     24  C   UNL     1       5.960   5.071  15.784  0.00  0.00    +0.000 A 
ATOM     25  C   UNL     1       6.256   6.193  16.572  0.00  0.00    +0.000 A 
ATOM     26  C   UNL     1       5.445   6.512  17.667  0.00  0.00    +0.000 A 
BRANCH  24  27
ATOM     27  C   UNL     1       6.756   4.698  14.585  0.00  0.00    +0.000 C 
ATOM     28  O   UNL     1       7.644   5.407  14.142  0.00  0.00    +0.000 OA
BRANCH  27  29
ATOM     29  O   UNL     1       6.402   3.527  14.016  0.00  0.00    +0.000 OA
ATOM     30  H   UNL     1       6.529   3.466  13.054  0.00  0.00    +0.000 HD
ENDBRANCH  27  29
ENDBRANCH  24  27
ENDBRANCH  19  21
ENDBRANCH   4  19
TORSDOF 7
ENDMDL
