MODEL 1
REMARK VINA RESULT:      -7.5      0.000      0.000
REMARK  Name = 
REMARK  3 active torsions:
REMARK  status: ('A' for Active; 'I' for Inactive)
REMARK    1  A    between atoms: C_1  and  C_2
REMARK    2  A    between atoms: C_4  and  C_5
REMARK    3  A    between atoms: C_10  and  C_11
REMARK                            x       y       z     vdW  Elec       q    Type
REMARK                         _______ _______ _______ _____ _____    ______ ____
ROOT
ATOM      1  C   UNL     1       1.516   2.808  21.911  0.00  0.00    +0.000 C 
ATOM      2  C   UNL     1       1.973   3.784  20.893  0.00  0.00    +0.000 A 
ATOM      3  C   UNL     1       1.828   5.182  20.905  0.00  0.00    +0.000 A 
ATOM      4  C   UNL     1       2.424   5.625  19.742  0.00  0.00    +0.000 A 
ATOM      5  C   UNL     1       2.536   7.009  19.214  0.00  0.00    +0.000 C 
ATOM      6  N   UNL     1       2.931   4.496  19.110  0.00  0.00    +0.000 N 
ATOM      7  C   UNL     1       3.707   4.422  17.915  0.00  0.00    +0.000 A 
ATOM      8  C   UNL     1       4.072   3.188  17.399  0.00  0.00    +0.000 A 
ATOM      9  C   UNL     1       4.838   3.148  16.235  0.00  0.00    +0.000 A 
ATOM     10  C   UNL     1       5.227   4.337  15.627  0.00  0.00    +0.000 A 
ATOM     11  N   UNL     1       4.848   5.521  16.162  0.00  0.00    +0.000 NA
ATOM     12  N   UNL     1       4.086   5.566  17.305  0.00  0.00    +0.000 NA
ATOM     13  N   UNL     1       2.612   3.360  19.799  0.00  0.00    +0.000 NA
ENDROOT
BRANCH  10  14
ATOM     14  C   UNL     1       6.030   4.407  14.393  0.00  0.00    +0.000 A 
ATOM     15  C   UNL     1       5.695   3.623  13.272  0.00  0.00    +0.000 A 
ATOM     16  C   UNL     1       6.454   3.662  12.100  0.00  0.00    +0.000 A 
ATOM     17  C   UNL     1       7.565   4.493  12.019  0.00  0.00    +0.000 A 
ATOM     18  C   UNL     1       7.911   5.292  13.105  0.00  0.00    +0.000 A 
ATOM     19  C   UNL     1       7.150   5.252  14.276  0.00  0.00    +0.000 A 
ENDBRANCH  10  14
TORSDOF 1
ENDMDL
MODEL 2
REMARK VINA RESULT:      -7.5      1.366      2.489
REMARK  Name = 
REMARK  3 active torsions:
REMARK  status: ('A' for Active; 'I' for Inactive)
REMARK    1  A    between atoms: C_1  and  C_2
REMARK    2  A    between atoms: C_4  and  C_5
REMARK    3  A    between atoms: C_10  and  C_11
REMARK                            x       y       z     vdW  Elec       q    Type
REMARK                         _______ _______ _______ _____ _____    ______ ____
ROOT
ATOM      1  C   UNL     1       1.327   7.989  21.165  0.00  0.00    +0.000 C 
ATOM      2  C   UNL     1       1.903   6.808  20.477  0.00  0.00    +0.000 A 
ATOM      3  C   UNL     1       1.738   5.450  20.800  0.00  0.00    +0.000 A 
ATOM      4  C   UNL     1       2.468   4.755  19.859  0.00  0.00    +0.000 A 
ATOM      5  C   UNL     1       2.683   3.290  19.732  0.00  0.00    +0.000 C 
ATOM      6  N   UNL     1       2.998   5.708  18.996  0.00  0.00    +0.000 N 
ATOM      7  C   UNL     1       3.761   5.501  17.809  0.00  0.00    +0.000 A 
ATOM      8  C   UNL     1       4.262   6.588  17.108  0.00  0.00    +0.000 A 
ATOM      9  C   UNL     1       4.996   6.355  15.946  0.00  0.00    +0.000 A 
ATOM     10  C   UNL     1       5.199   5.050  15.511  0.00  0.00    +0.000 A 
ATOM     11  N   UNL     1       4.695   4.017  16.226  0.00  0.00    +0.000 NA
ATOM     12  N   UNL     1       3.977   4.241  17.376  0.00  0.00    +0.000 NA
ATOM     13  N   UNL     1       2.685   6.972  19.407  0.00  0.00    +0.000 NA
ENDROOT
BRANCH  10  14
ATOM     14  C   UNL     1       5.965   4.694  14.303  0.00  0.00    +0.000 A 
ATOM     15  C   UNL     1       7.211   5.292  14.039  0.00  0.00    +0.000 A 
ATOM     16  C   UNL     1       7.944   4.981  12.891  0.00  0.00    +0.000 A 
ATOM     17  C   UNL     1       7.446   4.057  11.979  0.00  0.00    +0.000 A 
ATOM     18  C   UNL     1       6.224   3.438  12.220  0.00  0.00    +0.000 A 
ATOM     19  C   UNL     1       5.494   3.750  13.371  0.00  0.00    +0.000 A 
ENDBRANCH  10  14
TORSDOF 1
ENDMDL
MODEL 3
REMARK VINA RESULT:      -7.4      4.444      6.587
REMARK  Name = 
REMARK  3 active torsions:
REMARK  status: ('A' for Active; 'I' for Inactive)
REMARK    1  A    between atoms: C_1  and  C_2
REMARK    2  A    between atoms: C_4  and  C_5
REMARK    3  A    between atoms: C_10  and  C_11
REMARK                            x       y       z     vdW  Elec       q    Type
REMARK                         _______ _______ _______ _____ _____    ______ ____
ROOT
ATOM      1  C   UNL     1      -2.072  13.277  20.398  0.00  0.00    +0.000 C 
ATOM      2  C   UNL     1      -1.252  12.104  20.785  0.00  0.00    +0.000 A 
ATOM      3  C   UNL     1      -1.128  11.513  22.055  0.00  0.00    +0.000 A 
ATOM      4  C   UNL     1      -0.258  10.456  21.887  0.00  0.00    +0.000 A 
ATOM      5  C   UNL     1       0.265   9.501  22.899  0.00  0.00    +0.000 C 
ATOM      6  N   UNL     1       0.066  10.429  20.535  0.00  0.00    +0.000 N 
ATOM      7  C   UNL     1       0.867   9.480  19.835  0.00  0.00    +0.000 A 
ATOM      8  C   UNL     1       1.132   9.656  18.486  0.00  0.00    +0.000 A 
ATOM      9  C   UNL     1       1.910   8.707  17.826  0.00  0.00    +0.000 A 
ATOM     10  C   UNL     1       2.390   7.604  18.525  0.00  0.00    +0.000 A 
ATOM     11  N   UNL     1       2.109   7.470  19.843  0.00  0.00    +0.000 NA
ATOM     12  N   UNL     1       1.349   8.408  20.499  0.00  0.00    +0.000 NA
ATOM     13  N   UNL     1      -0.512  11.472  19.870  0.00  0.00    +0.000 NA
ENDROOT
BRANCH  10  14
ATOM     14  C   UNL     1       3.225   6.548  17.926  0.00  0.00    +0.000 A 
ATOM     15  C   UNL     1       4.430   6.868  17.272  0.00  0.00    +0.000 A 
ATOM     16  C   UNL     1       5.227   5.883  16.683  0.00  0.00    +0.000 A 
ATOM     17  C   UNL     1       4.837   4.550  16.739  0.00  0.00    +0.000 A 
ATOM     18  C   UNL     1       3.658   4.201  17.391  0.00  0.00    +0.000 A 
ATOM     19  C   UNL     1       2.864   5.188  17.981  0.00  0.00    +0.000 A 
ENDBRANCH  10  14
TORSDOF 1
ENDMDL
MODEL 4
REMARK VINA RESULT:      -7.4      0.126      1.110
REMARK  Name = 
REMARK  3 active torsions:
REMARK  status: ('A' for Active; 'I' for Inactive)
REMARK    1  A    between atoms: C_1  and  C_2
REMARK    2  A    between atoms: C_4  and  C_5
REMARK    3  A    between atoms: C_10  and  C_11
REMARK                            x       y       z     vdW  Elec       q    Type
REMARK                         _______ _______ _______ _____ _____    ______ ____
ROOT
ATOM      1  C   UNL     1       1.499   2.636  21.940  0.00  0.00    +0.000 C 
ATOM      2  C   UNL     1       1.954   3.632  20.940  0.00  0.00    +0.000 A 
ATOM      3  C   UNL     1       1.806   5.029  20.978  0.00  0.00    +0.000 A 
ATOM      4  C   UNL     1       2.401   5.496  19.824  0.00  0.00    +0.000 A 
ATOM      5  C   UNL     1       2.510   6.890  19.322  0.00  0.00    +0.000 C 
ATOM      6  N   UNL     1       2.912   4.380  19.172  0.00  0.00    +0.000 N 
ATOM      7  C   UNL     1       3.689   4.331  17.977  0.00  0.00    +0.000 A 
ATOM      8  C   UNL     1       4.058   3.108  17.438  0.00  0.00    +0.000 A 
ATOM      9  C   UNL     1       4.825   3.091  16.275  0.00  0.00    +0.000 A 
ATOM     10  C   UNL     1       5.211   4.292  15.689  0.00  0.00    +0.000 A 
ATOM     11  N   UNL     1       4.828   5.465  16.246  0.00  0.00    +0.000 NA
ATOM     12  N   UNL     1       4.065   5.486  17.389  0.00  0.00    +0.000 NA
ATOM     13  N   UNL     1       2.595   3.231  19.840  0.00  0.00    +0.000 NA
ENDROOT
BRANCH  10  14
ATOM     14  C   UNL     1       6.015   4.388  14.457  0.00  0.00    +0.000 A 
ATOM     15  C   UNL     1       7.130   5.244  14.391  0.00  0.00    +0.000 A 
ATOM     16  C   UNL     1       7.894   5.362  13.227  0.00  0.00    +0.000 A 
ATOM     17  C   UNL     1       7.561   4.619  12.101  0.00  0.00    +0.000 A 
ATOM     18  C   UNL     1       6.474   3.751  12.141  0.00  0.00    +0.000 A 
ATOM     19  C   UNL     1       5.713   3.635  13.307  0.00  0.00    +0.000 A 
ENDBRANCH  10  14
TORSDOF 1
ENDMDL
MODEL 5
REMARK VINA RESULT:      -7.4      1.361      2.209
REMARK  Name = 
REMARK  3 active torsions:
REMARK  status: ('A' for Active; 'I' for Inactive)
REMARK    1  A    between atoms: C_1  and  C_2
REMARK    2  A    between atoms: C_4  and  C_5
REMARK    3  A    between atoms: C_10  and  C_11
REMARK                            x       y       z     vdW  Elec       q    Type
REMARK                         _______ _______ _______ _____ _____    ______ ____
ROOT
ATOM      1  C   UNL     1       1.438   7.890  21.256  0.00  0.00    +0.000 C 
ATOM      2  C   UNL     1       1.973   6.715  20.528  0.00  0.00    +0.000 A 
ATOM      3  C   UNL     1       1.757   5.353  20.800  0.00  0.00    +0.000 A 
ATOM      4  C   UNL     1       2.466   4.666  19.836  0.00  0.00    +0.000 A 
ATOM      5  C   UNL     1       2.627   3.200  19.657  0.00  0.00    +0.000 C 
ATOM      6  N   UNL     1       3.035   5.629  19.012  0.00  0.00    +0.000 N 
ATOM      7  C   UNL     1       3.797   5.438  17.822  0.00  0.00    +0.000 A 
ATOM      8  C   UNL     1       4.342   6.530  17.163  0.00  0.00    +0.000 A 
ATOM      9  C   UNL     1       5.073   6.314  15.997  0.00  0.00    +0.000 A 
ATOM     10  C   UNL     1       5.230   5.019  15.515  0.00  0.00    +0.000 A 
ATOM     11  N   UNL     1       4.684   3.979  16.188  0.00  0.00    +0.000 NA
ATOM     12  N   UNL     1       3.968   4.187  17.343  0.00  0.00    +0.000 NA
ATOM     13  N   UNL     1       2.767   6.889  19.468  0.00  0.00    +0.000 NA
ENDROOT
BRANCH  10  14
ATOM     14  C   UNL     1       5.989   4.679  14.297  0.00  0.00    +0.000 A 
ATOM     15  C   UNL     1       5.486   3.740  13.376  0.00  0.00    +0.000 A 
ATOM     16  C   UNL     1       6.198   3.391  12.225  0.00  0.00    +0.000 A 
ATOM     17  C   UNL     1       7.430   3.980  11.967  0.00  0.00    +0.000 A 
ATOM     18  C   UNL     1       7.946   4.923  12.851  0.00  0.00    +0.000 A 
ATOM     19  C   UNL     1       7.231   5.271  14.000  0.00  0.00    +0.000 A 
ENDBRANCH  10  14
TORSDOF 1
ENDMDL
MODEL 6
REMARK VINA RESULT:      -7.2      2.789      7.981
REMARK  Name = 
REMARK  3 active torsions:
REMARK  status: ('A' for Active; 'I' for Inactive)
REMARK    1  A    between atoms: C_1  and  C_2
REMARK    2  A    between atoms: C_4  and  C_5
REMARK    3  A    between atoms: C_10  and  C_11
REMARK                            x       y       z     vdW  Elec       q    Type
REMARK                         _______ _______ _______ _____ _____    ______ ____
ROOT
ATOM      1  C   UNL     1       6.186   4.629  14.871  0.00  0.00    +0.000 C 
ATOM      2  C   UNL     1       5.319   4.595  16.073  0.00  0.00    +0.000 A 
ATOM      3  C   UNL     1       5.095   3.520  16.950  0.00  0.00    +0.000 A 
ATOM      4  C   UNL     1       4.219   3.997  17.903  0.00  0.00    +0.000 A 
ATOM      5  C   UNL     1       3.608   3.286  19.056  0.00  0.00    +0.000 C 
ATOM      6  N   UNL     1       3.991   5.332  17.588  0.00  0.00    +0.000 N 
ATOM      7  C   UNL     1       3.224   6.293  18.310  0.00  0.00    +0.000 A 
ATOM      8  C   UNL     1       3.058   7.572  17.801  0.00  0.00    +0.000 A 
ATOM      9  C   UNL     1       2.311   8.494  18.533  0.00  0.00    +0.000 A 
ATOM     10  C   UNL     1       1.762   8.118  19.754  0.00  0.00    +0.000 A 
ATOM     11  N   UNL     1       1.947   6.859  20.216  0.00  0.00    +0.000 NA
ATOM     12  N   UNL     1       2.676   5.945  19.494  0.00  0.00    +0.000 NA
ATOM     13  N   UNL     1       4.634   5.682  16.436  0.00  0.00    +0.000 NA
ENDROOT
BRANCH  10  14
ATOM     14  C   UNL     1       0.952   9.010  20.603  0.00  0.00    +0.000 A 
ATOM     15  C   UNL     1       0.816   8.762  21.982  0.00  0.00    +0.000 A 
ATOM     16  C   UNL     1       0.039   9.586  22.801  0.00  0.00    +0.000 A 
ATOM     17  C   UNL     1      -0.619  10.683  22.256  0.00  0.00    +0.000 A 
ATOM     18  C   UNL     1      -0.491  10.963  20.899  0.00  0.00    +0.000 A 
ATOM     19  C   UNL     1       0.289  10.138  20.084  0.00  0.00    +0.000 A 
ENDBRANCH  10  14
TORSDOF 1
ENDMDL
MODEL 7
REMARK VINA RESULT:      -7.2      3.299      8.024
REMARK  Name = 
REMARK  3 active torsions:
REMARK  status: ('A' for Active; 'I' for Inactive)
REMARK    1  A    between atoms: C_1  and  C_2
REMARK    2  A    between atoms: C_4  and  C_5
REMARK    3  A    between atoms: C_10  and  C_11
REMARK                            x       y       z     vdW  Elec       q    Type
REMARK                         _______ _______ _______ _____ _____    ______ ____
ROOT
ATOM      1  C   UNL     1       3.709   1.490  18.172  0.00  0.00    +0.000 C 
ATOM      2  C   UNL     1       3.689   2.971  18.105  0.00  0.00    +0.000 A 
ATOM      3  C   UNL     1       4.313   3.805  17.160  0.00  0.00    +0.000 A 
ATOM      4  C   UNL     1       3.986   5.093  17.532  0.00  0.00    +0.000 A 
ATOM      5  C   UNL     1       4.400   6.380  16.916  0.00  0.00    +0.000 C 
ATOM      6  N   UNL     1       3.158   4.979  18.642  0.00  0.00    +0.000 N 
ATOM      7  C   UNL     1       2.485   6.015  19.355  0.00  0.00    +0.000 A 
ATOM      8  C   UNL     1       1.744   5.711  20.487  0.00  0.00    +0.000 A 
ATOM      9  C   UNL     1       1.090   6.743  21.158  0.00  0.00    +0.000 A 
ATOM     10  C   UNL     1       1.182   8.043  20.674  0.00  0.00    +0.000 A 
ATOM     11  N   UNL     1       1.916   8.299  19.566  0.00  0.00    +0.000 NA
ATOM     12  N   UNL     1       2.569   7.286  18.906  0.00  0.00    +0.000 NA
ATOM     13  N   UNL     1       3.014   3.674  19.018  0.00  0.00    +0.000 NA
ENDROOT
BRANCH  10  14
ATOM     14  C   UNL     1       0.536   9.206  21.309  0.00  0.00    +0.000 A 
ATOM     15  C   UNL     1       0.594  10.478  20.708  0.00  0.00    +0.000 A 
ATOM     16  C   UNL     1       0.003  11.596  21.303  0.00  0.00    +0.000 A 
ATOM     17  C   UNL     1      -0.666  11.465  22.514  0.00  0.00    +0.000 A 
ATOM     18  C   UNL     1      -0.754  10.218  23.124  0.00  0.00    +0.000 A 
ATOM     19  C   UNL     1      -0.164   9.101  22.526  0.00  0.00    +0.000 A 
ENDBRANCH  10  14
TORSDOF 1
ENDMDL
MODEL 8
REMARK VINA RESULT:      -7.1      2.787      8.002
REMARK  Name = 
REMARK  3 active torsions:
REMARK  status: ('A' for Active; 'I' for Inactive)
REMARK    1  A    between atoms: C_1  and  C_2
REMARK    2  A    between atoms: C_4  and  C_5
REMARK    3  A    between atoms: C_10  and  C_11
REMARK                            x       y       z     vdW  Elec       q    Type
REMARK                         _______ _______ _______ _____ _____    ______ ____
ROOT
ATOM      1  C   UNL     1       6.217   4.860  14.654  0.00  0.00    +0.000 C 
ATOM      2  C   UNL     1       5.446   4.810  15.920  0.00  0.00    +0.000 A 
ATOM      3  C   UNL     1       5.400   3.771  16.866  0.00  0.00    +0.000 A 
ATOM      4  C   UNL     1       4.548   4.213  17.858  0.00  0.00    +0.000 A 
ATOM      5  C   UNL     1       4.100   3.513  19.090  0.00  0.00    +0.000 C 
ATOM      6  N   UNL     1       4.157   5.496  17.492  0.00  0.00    +0.000 N 
ATOM      7  C   UNL     1       3.345   6.415  18.219  0.00  0.00    +0.000 A 
ATOM      8  C   UNL     1       3.008   7.637  17.658  0.00  0.00    +0.000 A 
ATOM      9  C   UNL     1       2.221   8.519  18.396  0.00  0.00    +0.000 A 
ATOM     10  C   UNL     1       1.803   8.163  19.674  0.00  0.00    +0.000 A 
ATOM     11  N   UNL     1       2.153   6.959  20.185  0.00  0.00    +0.000 NA
ATOM     12  N   UNL     1       2.922   6.083  19.458  0.00  0.00    +0.000 NA
ATOM     13  N   UNL     1       4.676   5.841  16.277  0.00  0.00    +0.000 NA
ENDROOT
BRANCH  10  14
ATOM     14  C   UNL     1       0.964   9.017  20.535  0.00  0.00    +0.000 A 
ATOM     15  C   UNL     1       0.694  10.352  20.178  0.00  0.00    +0.000 A 
ATOM     16  C   UNL     1      -0.085  11.182  20.989  0.00  0.00    +0.000 A 
ATOM     17  C   UNL     1      -0.615  10.693  22.177  0.00  0.00    +0.000 A 
ATOM     18  C   UNL     1      -0.377   9.373  22.549  0.00  0.00    +0.000 A 
ATOM     19  C   UNL     1       0.400   8.544  21.735  0.00  0.00    +0.000 A 
ENDBRANCH  10  14
TORSDOF 1
ENDMDL
MODEL 9
REMARK VINA RESULT:      -7.1      3.345      4.798
REMARK  Name = 
REMARK  3 active torsions:
REMARK  status: ('A' for Active; 'I' for Inactive)
REMARK    1  A    between atoms: C_1  and  C_2
REMARK    2  A    between atoms: C_4  and  C_5
REMARK    3  A    between atoms: C_10  and  C_11
REMARK                            x       y       z     vdW  Elec       q    Type
REMARK                         _______ _______ _______ _____ _____    ______ ____
ROOT
ATOM      1  C   UNL     1      -0.609   9.902  23.369  0.00  0.00    +0.000 C 
ATOM      2  C   UNL     1      -0.070   9.889  21.988  0.00  0.00    +0.000 A 
ATOM      3  C   UNL     1      -0.152  10.901  21.016  0.00  0.00    +0.000 A 
ATOM      4  C   UNL     1       0.505  10.405  19.909  0.00  0.00    +0.000 A 
ATOM      5  C   UNL     1       0.700  11.029  18.575  0.00  0.00    +0.000 C 
ATOM      6  N   UNL     1       0.984   9.151  20.271  0.00  0.00    +0.000 N 
ATOM      7  C   UNL     1       1.799   8.261  19.511  0.00  0.00    +0.000 A 
ATOM      8  C   UNL     1       2.127   7.014  20.021  0.00  0.00    +0.000 A 
ATOM      9  C   UNL     1       2.933   6.169  19.260  0.00  0.00    +0.000 A 
ATOM     10  C   UNL     1       3.398   6.595  18.020  0.00  0.00    +0.000 A 
ATOM     11  N   UNL     1       3.053   7.820  17.558  0.00  0.00    +0.000 NA
ATOM     12  N   UNL     1       2.252   8.653  18.301  0.00  0.00    +0.000 NA
ATOM     13  N   UNL     1       0.589   8.819  21.536  0.00  0.00    +0.000 NA
ENDROOT
BRANCH  10  14
ATOM     14  C   UNL     1       4.248   5.780  17.134  0.00  0.00    +0.000 A 
ATOM     15  C   UNL     1       4.236   4.375  17.220  0.00  0.00    +0.000 A 
ATOM     16  C   UNL     1       5.047   3.585  16.401  0.00  0.00    +0.000 A 
ATOM     17  C   UNL     1       5.888   4.186  15.471  0.00  0.00    +0.000 A 
ATOM     18  C   UNL     1       5.911   5.572  15.353  0.00  0.00    +0.000 A 
ATOM     19  C   UNL     1       5.097   6.359  16.172  0.00  0.00    +0.000 A 
ENDBRANCH  10  14
TORSDOF 1
ENDMDL
