MODEL 1
REMARK VINA RESULT:      -8.1      0.000      0.000
REMARK  Name = 
REMARK  5 active torsions:
REMARK  status: ('A' for Active; 'I' for Inactive)
REMARK    1  A    between atoms: C_2  and  O_3
REMARK    2  A    between atoms: C_2  and  C_4
REMARK    3  A    between atoms: C_13  and  O_14
REMARK    4  A    between atoms: O_14  and  C_15
REMARK    5  A    between atoms: C_15  and  C_16
REMARK                            x       y       z     vdW  Elec       q    Type
REMARK                         _______ _______ _______ _____ _____    ______ ____
ROOT
ATOM      1  C   UNL     1       6.381   4.884  16.108  0.00  0.00    +0.000 A 
ATOM      2  C   UNL     1       6.958   5.878  16.892  0.00  0.00    +0.000 A 
ATOM      3  C   UNL     1       6.404   6.129  18.132  0.00  0.00    +0.000 A 
ATOM      4  N   UNL     1       5.320   5.481  18.615  0.00  0.00    +0.000 NA
ATOM      5  C   UNL     1       4.769   4.506  17.849  0.00  0.00    +0.000 A 
ATOM      6  N   UNL     1       3.605   3.801  18.307  0.00  0.00    +0.000 N 
ATOM      7  N   UNL     1       3.109   2.762  17.561  0.00  0.00    +0.000 NA
ATOM      8  C   UNL     1       2.078   2.304  18.263  0.00  0.00    +0.000 A 
ATOM      9  C   UNL     1       1.861   3.032  19.437  0.00  0.00    +0.000 A 
ATOM     10  C   UNL     1       2.841   4.007  19.460  0.00  0.00    +0.000 A 
ATOM     11  C   UNL     1       5.293   4.162  16.597  0.00  0.00    +0.000 A 
ENDROOT
BRANCH   1  13
ATOM     12  O   UNL     1       7.819   5.326  14.276  0.00  0.00    +0.000 OA
ATOM     13  C   UNL     1       6.978   4.603  14.781  0.00  0.00    +0.000 C 
BRANCH  13  14
ATOM     14  O   UNL     1       6.471   3.516  14.163  0.00  0.00    +0.000 OA
ATOM     15  H   UNL     1       6.820   2.653  14.452  0.00  0.00    +0.000 HD
ENDBRANCH  13  14
ENDBRANCH   1  13
BRANCH  10  16
ATOM     16  O   UNL     1       3.087   5.007  20.322  0.00  0.00    +0.000 OA
BRANCH  16  17
ATOM     17  C   UNL     1       1.949   5.798  20.687  0.00  0.00    +0.000 C 
BRANCH  17  18
ATOM     18  C   UNL     1       1.899   7.120  19.951  0.00  0.00    +0.000 A 
ATOM     19  C   UNL     1       2.322   7.180  18.608  0.00  0.00    +0.000 A 
ATOM     20  C   UNL     1       2.214   8.366  17.874  0.00  0.00    +0.000 A 
ATOM     21  C   UNL     1       1.677   9.504  18.469  0.00  0.00    +0.000 A 
ATOM     22  C   UNL     1       1.252   9.452  19.797  0.00  0.00    +0.000 A 
ATOM     23 BR   UNL     1       0.501  10.991  20.601  0.00  0.00    +0.000 Br
ATOM     24  C   UNL     1       1.359   8.271  20.537  0.00  0.00    +0.000 A 
ENDBRANCH  17  18
ENDBRANCH  16  17
ENDBRANCH  10  16
TORSDOF 5
ENDMDL
MODEL 2
REMARK VINA RESULT:      -7.5      1.375      1.588
REMARK  Name = 
REMARK  5 active torsions:
REMARK  status: ('A' for Active; 'I' for Inactive)
REMARK    1  A    between atoms: C_2  and  O_3
REMARK    2  A    between atoms: C_2  and  C_4
REMARK    3  A    between atoms: C_13  and  O_14
REMARK    4  A    between atoms: O_14  and  C_15
REMARK    5  A    between atoms: C_15  and  C_16
REMARK                            x       y       z     vdW  Elec       q    Type
REMARK                         _______ _______ _______ _____ _____    ______ ____
ROOT
ATOM      1  C   UNL     1       5.754   5.142  15.792  0.00  0.00    +0.000 A 
ATOM      2  C   UNL     1       5.309   6.444  15.585  0.00  0.00    +0.000 A 
ATOM      3  C   UNL     1       4.381   6.960  16.467  0.00  0.00    +0.000 A 
ATOM      4  N   UNL     1       3.864   6.264  17.505  0.00  0.00    +0.000 NA
ATOM      5  C   UNL     1       4.310   4.999  17.706  0.00  0.00    +0.000 A 
ATOM      6  N   UNL     1       3.779   4.211  18.783  0.00  0.00    +0.000 N 
ATOM      7  N   UNL     1       4.299   2.964  19.026  0.00  0.00    +0.000 NA
ATOM      8  C   UNL     1       3.636   2.522  20.089  0.00  0.00    +0.000 A 
ATOM      9  C   UNL     1       2.670   3.430  20.535  0.00  0.00    +0.000 A 
ATOM     10  C   UNL     1       2.755   4.517  19.684  0.00  0.00    +0.000 A 
ATOM     11  C   UNL     1       5.278   4.415  16.882  0.00  0.00    +0.000 A 
ENDROOT
BRANCH   1  13
ATOM     12  O   UNL     1       7.761   5.199  14.530  0.00  0.00    +0.000 OA
ATOM     13  C   UNL     1       6.758   4.588  14.853  0.00  0.00    +0.000 C 
BRANCH  13  14
ATOM     14  O   UNL     1       6.435   3.378  14.349  0.00  0.00    +0.000 OA
ATOM     15  H   UNL     1       6.210   2.686  14.997  0.00  0.00    +0.000 HD
ENDBRANCH  13  14
ENDBRANCH   1  13
BRANCH  10  16
ATOM     16  O   UNL     1       2.045   5.655  19.614  0.00  0.00    +0.000 OA
BRANCH  16  17
ATOM     17  C   UNL     1       1.858   6.342  20.857  0.00  0.00    +0.000 C 
BRANCH  17  18
ATOM     18  C   UNL     1       1.399   7.772  20.668  0.00  0.00    +0.000 A 
ATOM     19  C   UNL     1       1.621   8.412  19.433  0.00  0.00    +0.000 A 
ATOM     20  C   UNL     1       1.138   9.704  19.198  0.00  0.00    +0.000 A 
ATOM     21  C   UNL     1       0.424  10.370  20.190  0.00  0.00    +0.000 A 
ATOM     22  C   UNL     1       0.197   9.741  21.414  0.00  0.00    +0.000 A 
ATOM     23 BR   UNL     1      -0.793  10.635  22.756  0.00  0.00    +0.000 Br
ATOM     24  C   UNL     1       0.678   8.451  21.657  0.00  0.00    +0.000 A 
ENDBRANCH  17  18
ENDBRANCH  16  17
ENDBRANCH  10  16
TORSDOF 5
ENDMDL
MODEL 3
REMARK VINA RESULT:      -7.4      3.925      7.303
REMARK  Name = 
REMARK  5 active torsions:
REMARK  status: ('A' for Active; 'I' for Inactive)
REMARK    1  A    between atoms: C_2  and  O_3
REMARK    2  A    between atoms: C_2  and  C_4
REMARK    3  A    between atoms: C_13  and  O_14
REMARK    4  A    between atoms: O_14  and  C_15
REMARK    5  A    between atoms: C_15  and  C_16
REMARK                            x       y       z     vdW  Elec       q    Type
REMARK                         _______ _______ _______ _____ _____    ______ ____
ROOT
ATOM      1  C   UNL     1       2.581   3.420  19.872  0.00  0.00    +0.000 A 
ATOM      2  C   UNL     1       1.981   3.056  18.671  0.00  0.00    +0.000 A 
ATOM      3  C   UNL     1       2.668   3.308  17.500  0.00  0.00    +0.000 A 
ATOM      4  N   UNL     1       3.879   3.910  17.455  0.00  0.00    +0.000 NA
ATOM      5  C   UNL     1       4.462   4.253  18.631  0.00  0.00    +0.000 A 
ATOM      6  N   UNL     1       5.738   4.912  18.636  0.00  0.00    +0.000 N 
ATOM      7  N   UNL     1       6.354   5.178  19.834  0.00  0.00    +0.000 NA
ATOM      8  C   UNL     1       7.509   5.742  19.501  0.00  0.00    +0.000 A 
ATOM      9  C   UNL     1       7.660   5.885  18.118  0.00  0.00    +0.000 A 
ATOM     10  C   UNL     1       6.510   5.359  17.560  0.00  0.00    +0.000 A 
ATOM     11  C   UNL     1       3.851   3.997  19.864  0.00  0.00    +0.000 A 
ENDROOT
BRANCH   1  13
ATOM     12  O   UNL     1       2.408   3.103  22.215  0.00  0.00    +0.000 OA
ATOM     13  C   UNL     1       1.852   3.142  21.132  0.00  0.00    +0.000 C 
BRANCH  13  14
ATOM     14  O   UNL     1       0.538   2.883  20.966  0.00  0.00    +0.000 OA
ATOM     15  H   UNL     1       0.147   3.162  20.118  0.00  0.00    +0.000 HD
ENDBRANCH  13  14
ENDBRANCH   1  13
BRANCH  10  16
ATOM     16  O   UNL     1       6.094   5.271  16.285  0.00  0.00    +0.000 OA
BRANCH  16  17
ATOM     17  C   UNL     1       6.342   4.014  15.643  0.00  0.00    +0.000 C 
BRANCH  17  18
ATOM     18  C   UNL     1       6.314   4.118  14.132  0.00  0.00    +0.000 A 
ATOM     19  C   UNL     1       7.437   4.629  13.453  0.00  0.00    +0.000 A 
ATOM     20  C   UNL     1       7.476   4.663  12.055  0.00  0.00    +0.000 A 
ATOM     21  C   UNL     1       6.396   4.184  11.319  0.00  0.00    +0.000 A 
ATOM     22  C   UNL     1       5.282   3.673  11.984  0.00  0.00    +0.000 A 
ATOM     23 BR   UNL     1       3.823   2.999  10.985  0.00  0.00    +0.000 Br
ATOM     24  C   UNL     1       5.235   3.637  13.381  0.00  0.00    +0.000 A 
ENDBRANCH  17  18
ENDBRANCH  16  17
ENDBRANCH  10  16
TORSDOF 5
ENDMDL
MODEL 4
REMARK VINA RESULT:      -7.4      3.240      4.860
REMARK  Name = 
REMARK  5 active torsions:
REMARK  status: ('A' for Active; 'I' for Inactive)
REMARK    1  A    between atoms: C_2  and  O_3
REMARK    2  A    between atoms: C_2  and  C_4
REMARK    3  A    between atoms: C_13  and  O_14
REMARK    4  A    between atoms: O_14  and  C_15
REMARK    5  A    between atoms: C_15  and  C_16
REMARK                            x       y       z     vdW  Elec       q    Type
REMARK                         _______ _______ _______ _____ _____    ______ ____
ROOT
ATOM      1  C   UNL     1       3.542   2.830  20.193  0.00  0.00    +0.000 A 
ATOM      2  C   UNL     1       2.662   2.612  21.248  0.00  0.00    +0.000 A 
ATOM      3  C   UNL     1       1.794   3.630  21.590  0.00  0.00    +0.000 A 
ATOM      4  N   UNL     1       1.770   4.834  20.974  0.00  0.00    +0.000 NA
ATOM      5  C   UNL     1       2.625   5.036  19.941  0.00  0.00    +0.000 A 
ATOM      6  N   UNL     1       2.653   6.304  19.266  0.00  0.00    +0.000 N 
ATOM      7  N   UNL     1       3.462   6.466  18.169  0.00  0.00    +0.000 NA
ATOM      8  C   UNL     1       3.232   7.709  17.761  0.00  0.00    +0.000 A 
ATOM      9  C   UNL     1       2.315   8.381  18.575  0.00  0.00    +0.000 A 
ATOM     10  C   UNL     1       1.950   7.477  19.555  0.00  0.00    +0.000 A 
ATOM     11  C   UNL     1       3.509   4.042  19.505  0.00  0.00    +0.000 A 
ENDROOT
BRANCH   1  13
ATOM     12  O   UNL     1       5.384   1.376  20.534  0.00  0.00    +0.000 OA
ATOM     13  C   UNL     1       4.468   1.736  19.816  0.00  0.00    +0.000 C 
BRANCH  13  14
ATOM     14  O   UNL     1       4.242   1.217  18.590  0.00  0.00    +0.000 OA
ATOM     15  H   UNL     1       3.648   1.727  18.009  0.00  0.00    +0.000 HD
ENDBRANCH  13  14
ENDBRANCH   1  13
BRANCH  10  16
ATOM     16  O   UNL     1       1.139   7.591  20.619  0.00  0.00    +0.000 OA
BRANCH  16  17
ATOM     17  C   UNL     1       1.512   8.595  21.572  0.00  0.00    +0.000 C 
BRANCH  17  18
ATOM     18  C   UNL     1       0.445   9.655  21.748  0.00  0.00    +0.000 A 
ATOM     19  C   UNL     1      -0.268   9.723  22.961  0.00  0.00    +0.000 A 
ATOM     20  C   UNL     1      -1.203  10.740  23.186  0.00  0.00    +0.000 A 
ATOM     21  C   UNL     1      -1.433  11.702  22.207  0.00  0.00    +0.000 A 
ATOM     22  C   UNL     1      -0.727  11.644  21.005  0.00  0.00    +0.000 A 
ATOM     23 BR   UNL     1      -1.019  12.964  19.682  0.00  0.00    +0.000 Br
ATOM     24  C   UNL     1       0.207  10.630  20.772  0.00  0.00    +0.000 A 
ENDBRANCH  17  18
ENDBRANCH  16  17
ENDBRANCH  10  16
TORSDOF 5
ENDMDL
MODEL 5
REMARK VINA RESULT:      -7.3      2.807      6.365
REMARK  Name = 
REMARK  5 active torsions:
REMARK  status: ('A' for Active; 'I' for Inactive)
REMARK    1  A    between atoms: C_2  and  O_3
REMARK    2  A    between atoms: C_2  and  C_4
REMARK    3  A    between atoms: C_13  and  O_14
REMARK    4  A    between atoms: O_14  and  C_15
REMARK    5  A    between atoms: C_15  and  C_16
REMARK                            x       y       z     vdW  Elec       q    Type
REMARK                         _______ _______ _______ _____ _____    ______ ____
ROOT
ATOM      1  C   UNL     1       1.452   8.012  20.733  0.00  0.00    +0.000 A 
ATOM      2  C   UNL     1       1.859   8.633  19.557  0.00  0.00    +0.000 A 
ATOM      3  C   UNL     1       2.262   7.834  18.506  0.00  0.00    +0.000 A 
ATOM      4  N   UNL     1       2.307   6.483  18.566  0.00  0.00    +0.000 NA
ATOM      5  C   UNL     1       1.900   5.884  19.712  0.00  0.00    +0.000 A 
ATOM      6  N   UNL     1       1.947   4.453  19.833  0.00  0.00    +0.000 N 
ATOM      7  N   UNL     1       1.454   3.856  20.967  0.00  0.00    +0.000 NA
ATOM      8  C   UNL     1       1.602   2.554  20.754  0.00  0.00    +0.000 A 
ATOM      9  C   UNL     1       2.208   2.275  19.525  0.00  0.00    +0.000 A 
ATOM     10  C   UNL     1       2.441   3.503  18.934  0.00  0.00    +0.000 A 
ATOM     11  C   UNL     1       1.439   6.619  20.810  0.00  0.00    +0.000 A 
ENDROOT
BRANCH   1  13
ATOM     12  O   UNL     1       1.792   9.465  22.576  0.00  0.00    +0.000 OA
ATOM     13  C   UNL     1       1.009   8.866  21.860  0.00  0.00    +0.000 C 
BRANCH  13  14
ATOM     14  O   UNL     1      -0.326   8.876  22.056  0.00  0.00    +0.000 OA
ATOM     15  H   UNL     1      -0.630   9.142  22.944  0.00  0.00    +0.000 HD
ENDBRANCH  13  14
ENDBRANCH   1  13
BRANCH  10  16
ATOM     16  O   UNL     1       3.034   3.842  17.777  0.00  0.00    +0.000 OA
BRANCH  16  17
ATOM     17  C   UNL     1       4.187   3.067  17.428  0.00  0.00    +0.000 C 
BRANCH  17  18
ATOM     18  C   UNL     1       5.273   3.901  16.781  0.00  0.00    +0.000 A 
ATOM     19  C   UNL     1       5.674   3.612  15.462  0.00  0.00    +0.000 A 
ATOM     20  C   UNL     1       6.617   4.411  14.807  0.00  0.00    +0.000 A 
ATOM     21  C   UNL     1       7.166   5.512  15.458  0.00  0.00    +0.000 A 
ATOM     22  C   UNL     1       6.771   5.808  16.763  0.00  0.00    +0.000 A 
ATOM     23 BR   UNL     1       7.499   7.317  17.643  0.00  0.00    +0.000 Br
ATOM     24  C   UNL     1       5.831   5.012  17.425  0.00  0.00    +0.000 A 
ENDBRANCH  17  18
ENDBRANCH  16  17
ENDBRANCH  10  16
TORSDOF 5
ENDMDL
MODEL 6
REMARK VINA RESULT:      -7.3      3.088      4.811
REMARK  Name = 
REMARK  5 active torsions:
REMARK  status: ('A' for Active; 'I' for Inactive)
REMARK    1  A    between atoms: C_2  and  O_3
REMARK    2  A    between atoms: C_2  and  C_4
REMARK    3  A    between atoms: C_13  and  O_14
REMARK    4  A    between atoms: O_14  and  C_15
REMARK    5  A    between atoms: C_15  and  C_16
REMARK                            x       y       z     vdW  Elec       q    Type
REMARK                         _______ _______ _______ _____ _____    ______ ____
ROOT
ATOM      1  C   UNL     1       3.694   3.006  20.333  0.00  0.00    +0.000 A 
ATOM      2  C   UNL     1       2.679   3.031  21.283  0.00  0.00    +0.000 A 
ATOM      3  C   UNL     1       1.857   4.140  21.327  0.00  0.00    +0.000 A 
ATOM      4  N   UNL     1       1.999   5.211  20.513  0.00  0.00    +0.000 NA
ATOM      5  C   UNL     1       2.985   5.176  19.583  0.00  0.00    +0.000 A 
ATOM      6  N   UNL     1       3.191   6.297  18.709  0.00  0.00    +0.000 N 
ATOM      7  N   UNL     1       4.137   6.214  17.717  0.00  0.00    +0.000 NA
ATOM      8  C   UNL     1       4.053   7.372  17.073  0.00  0.00    +0.000 A 
ATOM      9  C   UNL     1       3.099   8.230  17.629  0.00  0.00    +0.000 A 
ATOM     10  C   UNL     1       2.550   7.539  18.694  0.00  0.00    +0.000 A 
ATOM     11  C   UNL     1       3.837   4.074  19.447  0.00  0.00    +0.000 A 
ENDROOT
BRANCH   1  13
ATOM     12  O   UNL     1       5.312   1.502  21.193  0.00  0.00    +0.000 OA
ATOM     13  C   UNL     1       4.572   1.814  20.276  0.00  0.00    +0.000 C 
BRANCH  13  14
ATOM     14  O   UNL     1       4.522   1.144  19.107  0.00  0.00    +0.000 OA
ATOM     15  H   UNL     1       5.374   0.834  18.750  0.00  0.00    +0.000 HD
ENDBRANCH  13  14
ENDBRANCH   1  13
BRANCH  10  16
ATOM     16  O   UNL     1       1.627   7.888  19.606  0.00  0.00    +0.000 OA
BRANCH  16  17
ATOM     17  C   UNL     1       1.197   9.254  19.555  0.00  0.00    +0.000 C 
BRANCH  17  18
ATOM     18  C   UNL     1       0.433   9.670  20.794  0.00  0.00    +0.000 A 
ATOM     19  C   UNL     1       0.659   8.990  22.007  0.00  0.00    +0.000 A 
ATOM     20  C   UNL     1       0.029   9.400  23.187  0.00  0.00    +0.000 A 
ATOM     21  C   UNL     1      -0.827  10.497  23.172  0.00  0.00    +0.000 A 
ATOM     22  C   UNL     1      -1.053  11.179  21.976  0.00  0.00    +0.000 A 
ATOM     23 BR   UNL     1      -2.199  12.684  21.957  0.00  0.00    +0.000 Br
ATOM     24  C   UNL     1      -0.429  10.773  20.792  0.00  0.00    +0.000 A 
ENDBRANCH  17  18
ENDBRANCH  16  17
ENDBRANCH  10  16
TORSDOF 5
ENDMDL
MODEL 7
REMARK VINA RESULT:      -7.3      1.171      1.815
REMARK  Name = 
REMARK  5 active torsions:
REMARK  status: ('A' for Active; 'I' for Inactive)
REMARK    1  A    between atoms: C_2  and  O_3
REMARK    2  A    between atoms: C_2  and  C_4
REMARK    3  A    between atoms: C_13  and  O_14
REMARK    4  A    between atoms: O_14  and  C_15
REMARK    5  A    between atoms: C_15  and  C_16
REMARK                            x       y       z     vdW  Elec       q    Type
REMARK                         _______ _______ _______ _____ _____    ______ ____
ROOT
ATOM      1  C   UNL     1       6.111   5.212  15.650  0.00  0.00    +0.000 A 
ATOM      2  C   UNL     1       6.726   6.314  16.235  0.00  0.00    +0.000 A 
ATOM      3  C   UNL     1       6.160   6.843  17.378  0.00  0.00    +0.000 A 
ATOM      4  N   UNL     1       5.029   6.365  17.946  0.00  0.00    +0.000 NA
ATOM      5  C   UNL     1       4.440   5.284  17.375  0.00  0.00    +0.000 A 
ATOM      6  N   UNL     1       3.227   4.750  17.928  0.00  0.00    +0.000 N 
ATOM      7  N   UNL     1       2.689   3.606  17.392  0.00  0.00    +0.000 NA
ATOM      8  C   UNL     1       1.617   3.356  18.136  0.00  0.00    +0.000 A 
ATOM      9  C   UNL     1       1.416   4.319  19.130  0.00  0.00    +0.000 A 
ATOM     10  C   UNL     1       2.450   5.227  18.988  0.00  0.00    +0.000 A 
ATOM     11  C   UNL     1       4.972   4.664  16.239  0.00  0.00    +0.000 A 
ENDROOT
BRANCH   1  13
ATOM     12  O   UNL     1       7.485   5.265  13.719  0.00  0.00    +0.000 OA
ATOM     13  C   UNL     1       6.721   4.635  14.430  0.00  0.00    +0.000 C 
BRANCH  13  14
ATOM     14  O   UNL     1       6.314   3.380  14.147  0.00  0.00    +0.000 OA
ATOM     15  H   UNL     1       5.582   3.298  13.509  0.00  0.00    +0.000 HD
ENDBRANCH  13  14
ENDBRANCH   1  13
BRANCH  10  16
ATOM     16  O   UNL     1       2.734   6.368  19.636  0.00  0.00    +0.000 OA
BRANCH  16  17
ATOM     17  C   UNL     1       2.278   7.568  18.999  0.00  0.00    +0.000 C 
BRANCH  17  18
ATOM     18  C   UNL     1       1.469   8.448  19.927  0.00  0.00    +0.000 A 
ATOM     19  C   UNL     1       1.392   8.124  21.296  0.00  0.00    +0.000 A 
ATOM     20  C   UNL     1       0.720   8.960  22.194  0.00  0.00    +0.000 A 
ATOM     21  C   UNL     1       0.122  10.132  21.739  0.00  0.00    +0.000 A 
ATOM     22  C   UNL     1       0.197  10.462  20.385  0.00  0.00    +0.000 A 
ATOM     23 BR   UNL     1      -0.595  12.065  19.767  0.00  0.00    +0.000 Br
ATOM     24  C   UNL     1       0.865   9.630  19.481  0.00  0.00    +0.000 A 
ENDBRANCH  17  18
ENDBRANCH  16  17
ENDBRANCH  10  16
TORSDOF 5
ENDMDL
MODEL 8
REMARK VINA RESULT:      -7.3      0.956      1.609
REMARK  Name = 
REMARK  5 active torsions:
REMARK  status: ('A' for Active; 'I' for Inactive)
REMARK    1  A    between atoms: C_2  and  O_3
REMARK    2  A    between atoms: C_2  and  C_4
REMARK    3  A    between atoms: C_13  and  O_14
REMARK    4  A    between atoms: O_14  and  C_15
REMARK    5  A    between atoms: C_15  and  C_16
REMARK                            x       y       z     vdW  Elec       q    Type
REMARK                         _______ _______ _______ _____ _____    ______ ____
ROOT
ATOM      1  C   UNL     1       6.132   4.957  15.816  0.00  0.00    +0.000 A 
ATOM      2  C   UNL     1       6.721   5.985  16.544  0.00  0.00    +0.000 A 
ATOM      3  C   UNL     1       6.194   6.288  17.784  0.00  0.00    +0.000 A 
ATOM      4  N   UNL     1       5.123   5.657  18.318  0.00  0.00    +0.000 NA
ATOM      5  C   UNL     1       4.560   4.649  17.607  0.00  0.00    +0.000 A 
ATOM      6  N   UNL     1       3.409   3.961  18.121  0.00  0.00    +0.000 N 
ATOM      7  N   UNL     1       2.901   2.888  17.431  0.00  0.00    +0.000 NA
ATOM      8  C   UNL     1       1.888   2.457  18.174  0.00  0.00    +0.000 A 
ATOM      9  C   UNL     1       1.694   3.234  19.320  0.00  0.00    +0.000 A 
ATOM     10  C   UNL     1       2.670   4.213  19.280  0.00  0.00    +0.000 A 
ATOM     11  C   UNL     1       5.058   4.253  16.360  0.00  0.00    +0.000 A 
ENDROOT
BRANCH   1  13
ATOM     12  O   UNL     1       6.285   3.698  13.813  0.00  0.00    +0.000 OA
ATOM     13  C   UNL     1       6.701   4.621  14.490  0.00  0.00    +0.000 C 
BRANCH  13  14
ATOM     14  O   UNL     1       7.751   5.388  14.127  0.00  0.00    +0.000 OA
ATOM     15  H   UNL     1       8.600   5.193  14.565  0.00  0.00    +0.000 HD
ENDBRANCH  13  14
ENDBRANCH   1  13
BRANCH  10  16
ATOM     16  O   UNL     1       2.930   5.251  20.093  0.00  0.00    +0.000 OA
BRANCH  16  17
ATOM     17  C   UNL     1       1.847   5.656  20.939  0.00  0.00    +0.000 C 
BRANCH  17  18
ATOM     18  C   UNL     1       1.399   7.077  20.669  0.00  0.00    +0.000 A 
ATOM     19  C   UNL     1       0.601   7.742  21.620  0.00  0.00    +0.000 A 
ATOM     20  C   UNL     1       0.237   9.081  21.440  0.00  0.00    +0.000 A 
ATOM     21  C   UNL     1       0.670   9.774  20.313  0.00  0.00    +0.000 A 
ATOM     22  C   UNL     1       1.465   9.123  19.369  0.00  0.00    +0.000 A 
ATOM     23 BR   UNL     1       2.075  10.068  17.848  0.00  0.00    +0.000 Br
ATOM     24  C   UNL     1       1.831   7.784  19.541  0.00  0.00    +0.000 A 
ENDBRANCH  17  18
ENDBRANCH  16  17
ENDBRANCH  10  16
TORSDOF 5
ENDMDL
MODEL 9
REMARK VINA RESULT:      -7.2      2.984      6.020
REMARK  Name = 
REMARK  5 active torsions:
REMARK  status: ('A' for Active; 'I' for Inactive)
REMARK    1  A    between atoms: C_2  and  O_3
REMARK    2  A    between atoms: C_2  and  C_4
REMARK    3  A    between atoms: C_13  and  O_14
REMARK    4  A    between atoms: O_14  and  C_15
REMARK    5  A    between atoms: C_15  and  C_16
REMARK                            x       y       z     vdW  Elec       q    Type
REMARK                         _______ _______ _______ _____ _____    ______ ____
ROOT
ATOM      1  C   UNL     1       1.719   8.045  20.204  0.00  0.00    +0.000 A 
ATOM      2  C   UNL     1       2.053   8.456  18.918  0.00  0.00    +0.000 A 
ATOM      3  C   UNL     1       2.274   7.484  17.963  0.00  0.00    +0.000 A 
ATOM      4  N   UNL     1       2.207   6.156  18.214  0.00  0.00    +0.000 NA
ATOM      5  C   UNL     1       1.871   5.763  19.468  0.00  0.00    +0.000 A 
ATOM      6  N   UNL     1       1.806   4.365  19.791  0.00  0.00    +0.000 N 
ATOM      7  N   UNL     1       1.383   3.981  21.039  0.00  0.00    +0.000 NA
ATOM      8  C   UNL     1       1.395   2.653  21.006  0.00  0.00    +0.000 A 
ATOM      9  C   UNL     1       1.843   2.150  19.781  0.00  0.00    +0.000 A 
ATOM     10  C   UNL     1       2.120   3.257  18.999  0.00  0.00    +0.000 A 
ATOM     11  C   UNL     1       1.593   6.685  20.484  0.00  0.00    +0.000 A 
ENDROOT
BRANCH   1  13
ATOM     12  O   UNL     1       0.937  10.148  20.968  0.00  0.00    +0.000 OA
ATOM     13  C   UNL     1       1.471   9.085  21.230  0.00  0.00    +0.000 C 
BRANCH  13  14
ATOM     14  O   UNL     1       1.936   8.774  22.458  0.00  0.00    +0.000 OA
ATOM     15  H   UNL     1       2.901   8.657  22.537  0.00  0.00    +0.000 HD
ENDBRANCH  13  14
ENDBRANCH   1  13
BRANCH  10  16
ATOM     16  O   UNL     1       2.616   3.372  17.756  0.00  0.00    +0.000 OA
BRANCH  16  17
ATOM     17  C   UNL     1       3.941   2.860  17.573  0.00  0.00    +0.000 C 
BRANCH  17  18
ATOM     18  C   UNL     1       4.947   3.946  17.256  0.00  0.00    +0.000 A 
ATOM     19  C   UNL     1       4.885   4.605  16.013  0.00  0.00    +0.000 A 
ATOM     20  C   UNL     1       5.747   5.667  15.720  0.00  0.00    +0.000 A 
ATOM     21  C   UNL     1       6.676   6.089  16.667  0.00  0.00    +0.000 A 
ATOM     22  C   UNL     1       6.741   5.445  17.902  0.00  0.00    +0.000 A 
ATOM     23 BR   UNL     1       7.987   6.031  19.200  0.00  0.00    +0.000 Br
ATOM     24  C   UNL     1       5.883   4.381  18.201  0.00  0.00    +0.000 A 
ENDBRANCH  17  18
ENDBRANCH  16  17
ENDBRANCH  10  16
TORSDOF 5
ENDMDL
