MODEL 1
REMARK VINA RESULT:      -4.7      0.000      0.000
REMARK  Name = 
REMARK  9 active torsions:
REMARK  status: ('A' for Active; 'I' for Inactive)
REMARK    1  A    between atoms: C_1  and  C_2
REMARK    2  A    between atoms: C_2  and  C_3
REMARK    3  A    between atoms: C_2  and  N_4
REMARK    4  A    between atoms: N_4  and  C_5
REMARK    5  A    between atoms: N_4  and  C_9
REMARK    6  A    between atoms: C_5  and  C_6
REMARK    7  A    between atoms: C_6  and  O_8
REMARK    8  A    between atoms: C_9  and  C_10
REMARK    9  A    between atoms: C_10  and  O_12
REMARK                            x       y       z     vdW  Elec       q    Type
REMARK                         _______ _______ _______ _____ _____    ______ ____
ROOT
ATOM      1  N   UNL     1       4.590   4.743  17.957  0.00  0.00    +0.000 NA
ENDROOT
BRANCH   1   3
ATOM      2  C   UNL     1       4.290   7.125  17.138  0.00  0.00    +0.000 C 
ATOM      3  C   UNL     1       3.940   6.070  18.202  0.00  0.00    +0.000 C 
ATOM      4  C   UNL     1       2.404   5.973  18.248  0.00  0.00    +0.000 C 
ENDBRANCH   1   3
BRANCH   1   5
ATOM      5  C   UNL     1       3.583   3.639  17.833  0.00  0.00    +0.000 C 
BRANCH   5   6
ATOM      6  C   UNL     1       3.863   2.395  18.689  0.00  0.00    +0.000 C 
ATOM      7  O   UNL     1       3.202   1.370  18.658  0.00  0.00    +0.000 OA
BRANCH   6   8
ATOM      8  O   UNL     1       4.928   2.527  19.516  0.00  0.00    +0.000 OA
ATOM      9  H   UNL     1       5.771   2.789  19.093  0.00  0.00    +0.000 HD
ENDBRANCH   6   8
ENDBRANCH   5   6
ENDBRANCH   1   5
BRANCH   1  10
ATOM     10  C   UNL     1       5.465   4.798  16.753  0.00  0.00    +0.000 C 
BRANCH  10  11
ATOM     11  C   UNL     1       6.925   4.512  17.094  0.00  0.00    +0.000 C 
ATOM     12  O   UNL     1       7.827   4.492  16.266  0.00  0.00    +0.000 OA
BRANCH  11  13
ATOM     13  O   UNL     1       7.121   4.199  18.392  0.00  0.00    +0.000 OA
ATOM     14  H   UNL     1       6.719   4.876  18.979  0.00  0.00    +0.000 HD
ENDBRANCH  11  13
ENDBRANCH  10  11
ENDBRANCH   1  10
TORSDOF 7
ENDMDL
MODEL 2
REMARK VINA RESULT:      -4.7      2.420      3.309
REMARK  Name = 
REMARK  9 active torsions:
REMARK  status: ('A' for Active; 'I' for Inactive)
REMARK    1  A    between atoms: C_1  and  C_2
REMARK    2  A    between atoms: C_2  and  C_3
REMARK    3  A    between atoms: C_2  and  N_4
REMARK    4  A    between atoms: N_4  and  C_5
REMARK    5  A    between atoms: N_4  and  C_9
REMARK    6  A    between atoms: C_5  and  C_6
REMARK    7  A    between atoms: C_6  and  O_8
REMARK    8  A    between atoms: C_9  and  C_10
REMARK    9  A    between atoms: C_10  and  O_12
REMARK                            x       y       z     vdW  Elec       q    Type
REMARK                         _______ _______ _______ _____ _____    ______ ____
ROOT
ATOM      1  N   UNL     1       2.941   4.669  19.825  0.00  0.00    +0.000 NA
ENDROOT
BRANCH   1   3
ATOM      2  C   UNL     1       3.104   6.489  18.064  0.00  0.00    +0.000 C 
ATOM      3  C   UNL     1       2.227   5.422  18.744  0.00  0.00    +0.000 C 
ATOM      4  C   UNL     1       1.704   4.496  17.630  0.00  0.00    +0.000 C 
ENDBRANCH   1   3
BRANCH   1   5
ATOM      5  C   UNL     1       2.123   4.571  21.077  0.00  0.00    +0.000 C 
BRANCH   5   6
ATOM      6  C   UNL     1       1.418   3.225  21.297  0.00  0.00    +0.000 C 
ATOM      7  O   UNL     1       1.755   2.392  22.122  0.00  0.00    +0.000 OA
BRANCH   6   8
ATOM      8  O   UNL     1       0.361   3.019  20.474  0.00  0.00    +0.000 OA
ATOM      9  H   UNL     1       0.541   2.495  19.667  0.00  0.00    +0.000 HD
ENDBRANCH   6   8
ENDBRANCH   5   6
ENDBRANCH   1   5
BRANCH   1  10
ATOM     10  C   UNL     1       3.342   3.315  19.349  0.00  0.00    +0.000 C 
BRANCH  10  11
ATOM     11  C   UNL     1       4.837   3.065  19.526  0.00  0.00    +0.000 C 
ATOM     12  O   UNL     1       5.703   3.886  19.253  0.00  0.00    +0.000 OA
BRANCH  11  13
ATOM     13  O   UNL     1       5.126   1.813  19.941  0.00  0.00    +0.000 OA
ATOM     14  H   UNL     1       4.442   1.486  20.565  0.00  0.00    +0.000 HD
ENDBRANCH  11  13
ENDBRANCH  10  11
ENDBRANCH   1  10
TORSDOF 7
ENDMDL
MODEL 3
REMARK VINA RESULT:      -4.7      2.629      3.722
REMARK  Name = 
REMARK  9 active torsions:
REMARK  status: ('A' for Active; 'I' for Inactive)
REMARK    1  A    between atoms: C_1  and  C_2
REMARK    2  A    between atoms: C_2  and  C_3
REMARK    3  A    between atoms: C_2  and  N_4
REMARK    4  A    between atoms: N_4  and  C_5
REMARK    5  A    between atoms: N_4  and  C_9
REMARK    6  A    between atoms: C_5  and  C_6
REMARK    7  A    between atoms: C_6  and  O_8
REMARK    8  A    between atoms: C_9  and  C_10
REMARK    9  A    between atoms: C_10  and  O_12
REMARK                            x       y       z     vdW  Elec       q    Type
REMARK                         _______ _______ _______ _____ _____    ______ ____
ROOT
ATOM      1  N   UNL     1       6.225   5.461  17.152  0.00  0.00    +0.000 NA
ENDROOT
BRANCH   1   3
ATOM      2  C   UNL     1       3.957   4.323  17.197  0.00  0.00    +0.000 C 
ATOM      3  C   UNL     1       4.771   5.571  16.809  0.00  0.00    +0.000 C 
ATOM      4  C   UNL     1       4.095   6.775  17.492  0.00  0.00    +0.000 C 
ENDBRANCH   1   3
BRANCH   1   5
ATOM      5  C   UNL     1       6.449   5.378  18.632  0.00  0.00    +0.000 C 
BRANCH   5   6
ATOM      6  C   UNL     1       7.747   6.024  19.137  0.00  0.00    +0.000 C 
ATOM      7  O   UNL     1       8.248   7.032  18.667  0.00  0.00    +0.000 OA
BRANCH   6   8
ATOM      8  O   UNL     1       8.320   5.365  20.173  0.00  0.00    +0.000 OA
ATOM      9  H   UNL     1       7.718   4.827  20.726  0.00  0.00    +0.000 HD
ENDBRANCH   6   8
ENDBRANCH   5   6
ENDBRANCH   1   5
BRANCH   1  10
ATOM     10  C   UNL     1       6.844   4.297  16.458  0.00  0.00    +0.000 C 
BRANCH  10  11
ATOM     11  C   UNL     1       6.994   4.539  14.959  0.00  0.00    +0.000 C 
ATOM     12  O   UNL     1       7.558   5.513  14.477  0.00  0.00    +0.000 OA
BRANCH  11  13
ATOM     13  O   UNL     1       6.370   3.611  14.201  0.00  0.00    +0.000 OA
ATOM     14  H   UNL     1       5.635   3.192  14.698  0.00  0.00    +0.000 HD
ENDBRANCH  11  13
ENDBRANCH  10  11
ENDBRANCH   1  10
TORSDOF 7
ENDMDL
MODEL 4
REMARK VINA RESULT:      -4.6      1.466      4.067
REMARK  Name = 
REMARK  9 active torsions:
REMARK  status: ('A' for Active; 'I' for Inactive)
REMARK    1  A    between atoms: C_1  and  C_2
REMARK    2  A    between atoms: C_2  and  C_3
REMARK    3  A    between atoms: C_2  and  N_4
REMARK    4  A    between atoms: N_4  and  C_5
REMARK    5  A    between atoms: N_4  and  C_9
REMARK    6  A    between atoms: C_5  and  C_6
REMARK    7  A    between atoms: C_6  and  O_8
REMARK    8  A    between atoms: C_9  and  C_10
REMARK    9  A    between atoms: C_10  and  O_12
REMARK                            x       y       z     vdW  Elec       q    Type
REMARK                         _______ _______ _______ _____ _____    ______ ____
ROOT
ATOM      1  N   UNL     1       4.630   4.394  16.878  0.00  0.00    +0.000 NA
ENDROOT
BRANCH   1   3
ATOM      2  C   UNL     1       4.135   6.814  17.464  0.00  0.00    +0.000 C 
ATOM      3  C   UNL     1       5.013   5.574  17.718  0.00  0.00    +0.000 C 
ATOM      4  C   UNL     1       4.934   5.272  19.226  0.00  0.00    +0.000 C 
ENDBRANCH   1   3
BRANCH   1   5
ATOM      5  C   UNL     1       5.742   3.970  15.966  0.00  0.00    +0.000 C 
BRANCH   5   6
ATOM      6  C   UNL     1       7.091   4.660  16.210  0.00  0.00    +0.000 C 
ATOM      7  O   UNL     1       7.894   4.330  17.068  0.00  0.00    +0.000 OA
BRANCH   6   8
ATOM      8  O   UNL     1       7.331   5.705  15.381  0.00  0.00    +0.000 OA
ATOM      9  H   UNL     1       8.267   5.852  15.134  0.00  0.00    +0.000 HD
ENDBRANCH   6   8
ENDBRANCH   5   6
ENDBRANCH   1   5
BRANCH   1  10
ATOM     10  C   UNL     1       4.186   3.258  17.734  0.00  0.00    +0.000 C 
BRANCH  10  11
ATOM     11  C   UNL     1       2.712   2.927  17.525  0.00  0.00    +0.000 C 
ATOM     12  O   UNL     1       1.873   3.742  17.163  0.00  0.00    +0.000 OA
BRANCH  11  13
ATOM     13  O   UNL     1       2.395   1.657  17.857  0.00  0.00    +0.000 OA
ATOM     14  H   UNL     1       2.011   1.618  18.760  0.00  0.00    +0.000 HD
ENDBRANCH  11  13
ENDBRANCH  10  11
ENDBRANCH   1  10
TORSDOF 7
ENDMDL
MODEL 5
REMARK VINA RESULT:      -4.6      2.547      3.751
REMARK  Name = 
REMARK  9 active torsions:
REMARK  status: ('A' for Active; 'I' for Inactive)
REMARK    1  A    between atoms: C_1  and  C_2
REMARK    2  A    between atoms: C_2  and  C_3
REMARK    3  A    between atoms: C_2  and  N_4
REMARK    4  A    between atoms: N_4  and  C_5
REMARK    5  A    between atoms: N_4  and  C_9
REMARK    6  A    between atoms: C_5  and  C_6
REMARK    7  A    between atoms: C_6  and  O_8
REMARK    8  A    between atoms: C_9  and  C_10
REMARK    9  A    between atoms: C_10  and  O_12
REMARK                            x       y       z     vdW  Elec       q    Type
REMARK                         _______ _______ _______ _____ _____    ______ ____
ROOT
ATOM      1  N   UNL     1       5.614   4.826  17.029  0.00  0.00    +0.000 NA
ENDROOT
BRANCH   1   3
ATOM      2  C   UNL     1       3.391   3.606  17.131  0.00  0.00    +0.000 C 
ATOM      3  C   UNL     1       4.279   4.726  17.702  0.00  0.00    +0.000 C 
ATOM      4  C   UNL     1       4.402   4.473  19.216  0.00  0.00    +0.000 C 
ENDBRANCH   1   3
BRANCH   1   5
ATOM      5  C   UNL     1       5.489   5.225  15.589  0.00  0.00    +0.000 C 
BRANCH   5   6
ATOM      6  C   UNL     1       6.608   4.718  14.668  0.00  0.00    +0.000 C 
ATOM      7  O   UNL     1       7.628   5.336  14.412  0.00  0.00    +0.000 OA
BRANCH   6   8
ATOM      8  O   UNL     1       6.368   3.496  14.135  0.00  0.00    +0.000 OA
ATOM      9  H   UNL     1       6.435   3.431  13.160  0.00  0.00    +0.000 HD
ENDBRANCH   6   8
ENDBRANCH   5   6
ENDBRANCH   1   5
BRANCH   1  10
ATOM     10  C   UNL     1       6.506   5.767  17.763  0.00  0.00    +0.000 C 
BRANCH  10  11
ATOM     11  C   UNL     1       7.675   5.047  18.427  0.00  0.00    +0.000 C 
ATOM     12  O   UNL     1       8.141   5.361  19.515  0.00  0.00    +0.000 OA
BRANCH  11  13
ATOM     13  O   UNL     1       8.209   4.070  17.662  0.00  0.00    +0.000 OA
ATOM     14  H   UNL     1       8.699   3.423  18.214  0.00  0.00    +0.000 HD
ENDBRANCH  11  13
ENDBRANCH  10  11
ENDBRANCH   1  10
TORSDOF 7
ENDMDL
MODEL 6
REMARK VINA RESULT:      -4.6      2.567      3.715
REMARK  Name = 
REMARK  9 active torsions:
REMARK  status: ('A' for Active; 'I' for Inactive)
REMARK    1  A    between atoms: C_1  and  C_2
REMARK    2  A    between atoms: C_2  and  C_3
REMARK    3  A    between atoms: C_2  and  N_4
REMARK    4  A    between atoms: N_4  and  C_5
REMARK    5  A    between atoms: N_4  and  C_9
REMARK    6  A    between atoms: C_5  and  C_6
REMARK    7  A    between atoms: C_6  and  O_8
REMARK    8  A    between atoms: C_9  and  C_10
REMARK    9  A    between atoms: C_10  and  O_12
REMARK                            x       y       z     vdW  Elec       q    Type
REMARK                         _______ _______ _______ _____ _____    ______ ____
ROOT
ATOM      1  N   UNL     1       6.269   4.625  17.457  0.00  0.00    +0.000 NA
ENDROOT
BRANCH   1   3
ATOM      2  C   UNL     1       4.172   5.965  17.955  0.00  0.00    +0.000 C 
ATOM      3  C   UNL     1       5.288   5.057  18.503  0.00  0.00    +0.000 C 
ATOM      4  C   UNL     1       4.597   3.864  19.190  0.00  0.00    +0.000 C 
ENDBRANCH   1   3
BRANCH   1   5
ATOM      5  C   UNL     1       6.139   5.429  16.199  0.00  0.00    +0.000 C 
BRANCH   5   6
ATOM      6  C   UNL     1       6.788   4.809  14.953  0.00  0.00    +0.000 C 
ATOM      7  O   UNL     1       6.415   3.777  14.418  0.00  0.00    +0.000 OA
BRANCH   6   8
ATOM      8  O   UNL     1       7.846   5.510  14.479  0.00  0.00    +0.000 OA
ATOM      9  H   UNL     1       8.014   5.438  13.517  0.00  0.00    +0.000 HD
ENDBRANCH   6   8
ENDBRANCH   5   6
ENDBRANCH   1   5
BRANCH   1  10
ATOM     10  C   UNL     1       7.662   4.685  17.982  0.00  0.00    +0.000 C 
BRANCH  10  11
ATOM     11  C   UNL     1       7.866   5.863  18.930  0.00  0.00    +0.000 C 
ATOM     12  O   UNL     1       8.052   7.014  18.558  0.00  0.00    +0.000 OA
BRANCH  11  13
ATOM     13  O   UNL     1       7.902   5.504  20.231  0.00  0.00    +0.000 OA
ATOM     14  H   UNL     1       7.001   5.518  20.622  0.00  0.00    +0.000 HD
ENDBRANCH  11  13
ENDBRANCH  10  11
ENDBRANCH   1  10
TORSDOF 7
ENDMDL
MODEL 7
REMARK VINA RESULT:      -4.6      1.387      1.872
REMARK  Name = 
REMARK  9 active torsions:
REMARK  status: ('A' for Active; 'I' for Inactive)
REMARK    1  A    between atoms: C_1  and  C_2
REMARK    2  A    between atoms: C_2  and  C_3
REMARK    3  A    between atoms: C_2  and  N_4
REMARK    4  A    between atoms: N_4  and  C_5
REMARK    5  A    between atoms: N_4  and  C_9
REMARK    6  A    between atoms: C_5  and  C_6
REMARK    7  A    between atoms: C_6  and  O_8
REMARK    8  A    between atoms: C_9  and  C_10
REMARK    9  A    between atoms: C_10  and  O_12
REMARK                            x       y       z     vdW  Elec       q    Type
REMARK                         _______ _______ _______ _____ _____    ______ ____
ROOT
ATOM      1  N   UNL     1       4.487   4.782  19.142  0.00  0.00    +0.000 NA
ENDROOT
BRANCH   1   3
ATOM      2  C   UNL     1       2.343   5.677  18.122  0.00  0.00    +0.000 C 
ATOM      3  C   UNL     1       3.263   5.618  19.355  0.00  0.00    +0.000 C 
ATOM      4  C   UNL     1       2.405   5.116  20.531  0.00  0.00    +0.000 C 
ENDBRANCH   1   3
BRANCH   1   5
ATOM      5  C   UNL     1       4.213   3.598  18.264  0.00  0.00    +0.000 C 
BRANCH   5   6
ATOM      6  C   UNL     1       4.000   2.269  19.001  0.00  0.00    +0.000 C 
ATOM      7  O   UNL     1       3.023   1.550  18.867  0.00  0.00    +0.000 OA
BRANCH   6   8
ATOM      8  O   UNL     1       5.007   1.944  19.848  0.00  0.00    +0.000 OA
ATOM      9  H   UNL     1       4.928   2.288  20.761  0.00  0.00    +0.000 HD
ENDBRANCH   6   8
ENDBRANCH   5   6
ENDBRANCH   1   5
BRANCH   1  10
ATOM     10  C   UNL     1       5.599   5.604  18.588  0.00  0.00    +0.000 C 
BRANCH  10  11
ATOM     11  C   UNL     1       6.965   5.114  19.060  0.00  0.00    +0.000 C 
ATOM     12  O   UNL     1       7.461   5.412  20.138  0.00  0.00    +0.000 OA
BRANCH  11  13
ATOM     13  O   UNL     1       7.618   4.377  18.137  0.00  0.00    +0.000 OA
ATOM     14  H   UNL     1       8.546   4.214  18.413  0.00  0.00    +0.000 HD
ENDBRANCH  11  13
ENDBRANCH  10  11
ENDBRANCH   1  10
TORSDOF 7
ENDMDL
MODEL 8
REMARK VINA RESULT:      -4.5      2.410      4.835
REMARK  Name = 
REMARK  9 active torsions:
REMARK  status: ('A' for Active; 'I' for Inactive)
REMARK    1  A    between atoms: C_1  and  C_2
REMARK    2  A    between atoms: C_2  and  C_3
REMARK    3  A    between atoms: C_2  and  N_4
REMARK    4  A    between atoms: N_4  and  C_5
REMARK    5  A    between atoms: N_4  and  C_9
REMARK    6  A    between atoms: C_5  and  C_6
REMARK    7  A    between atoms: C_6  and  O_8
REMARK    8  A    between atoms: C_9  and  C_10
REMARK    9  A    between atoms: C_10  and  O_12
REMARK                            x       y       z     vdW  Elec       q    Type
REMARK                         _______ _______ _______ _____ _____    ______ ____
ROOT
ATOM      1  N   UNL     1       3.470   4.145  19.698  0.00  0.00    +0.000 NA
ENDROOT
BRANCH   1   3
ATOM      2  C   UNL     1       2.008   4.450  17.646  0.00  0.00    +0.000 C 
ATOM      3  C   UNL     1       2.709   3.466  18.601  0.00  0.00    +0.000 C 
ATOM      4  C   UNL     1       3.606   2.564  17.734  0.00  0.00    +0.000 C 
ENDBRANCH   1   3
BRANCH   1   5
ATOM      5  C   UNL     1       4.136   5.402  19.225  0.00  0.00    +0.000 C 
BRANCH   5   6
ATOM      6  C   UNL     1       5.646   5.288  18.969  0.00  0.00    +0.000 C 
ATOM      7  O   UNL     1       6.495   5.223  19.842  0.00  0.00    +0.000 OA
BRANCH   6   8
ATOM      8  O   UNL     1       5.979   5.273  17.655  0.00  0.00    +0.000 OA
ATOM      9  H   UNL     1       5.348   5.708  17.046  0.00  0.00    +0.000 HD
ENDBRANCH   6   8
ENDBRANCH   5   6
ENDBRANCH   1   5
BRANCH   1  10
ATOM     10  C   UNL     1       2.582   4.424  20.862  0.00  0.00    +0.000 C 
BRANCH  10  11
ATOM     11  C   UNL     1       2.055   3.142  21.500  0.00  0.00    +0.000 C 
ATOM     12  O   UNL     1       2.755   2.350  22.118  0.00  0.00    +0.000 OA
BRANCH  11  13
ATOM     13  O   UNL     1       0.748   2.916  21.249  0.00  0.00    +0.000 OA
ATOM     14  H   UNL     1       0.285   3.754  21.030  0.00  0.00    +0.000 HD
ENDBRANCH  11  13
ENDBRANCH  10  11
ENDBRANCH   1  10
TORSDOF 7
ENDMDL
MODEL 9
REMARK VINA RESULT:      -4.5      2.648      3.727
REMARK  Name = 
REMARK  9 active torsions:
REMARK  status: ('A' for Active; 'I' for Inactive)
REMARK    1  A    between atoms: C_1  and  C_2
REMARK    2  A    between atoms: C_2  and  C_3
REMARK    3  A    between atoms: C_2  and  N_4
REMARK    4  A    between atoms: N_4  and  C_5
REMARK    5  A    between atoms: N_4  and  C_9
REMARK    6  A    between atoms: C_5  and  C_6
REMARK    7  A    between atoms: C_6  and  O_8
REMARK    8  A    between atoms: C_9  and  C_10
REMARK    9  A    between atoms: C_10  and  O_12
REMARK                            x       y       z     vdW  Elec       q    Type
REMARK                         _______ _______ _______ _____ _____    ______ ____
ROOT
ATOM      1  N   UNL     1       5.980   5.048  17.455  0.00  0.00    +0.000 NA
ENDROOT
BRANCH   1   3
ATOM      2  C   UNL     1       3.523   5.480  17.916  0.00  0.00    +0.000 C 
ATOM      3  C   UNL     1       4.898   5.090  18.489  0.00  0.00    +0.000 C 
ATOM      4  C   UNL     1       4.717   3.739  19.206  0.00  0.00    +0.000 C 
ENDBRANCH   1   3
BRANCH   1   5
ATOM      5  C   UNL     1       7.327   4.791  18.061  0.00  0.00    +0.000 C 
BRANCH   5   6
ATOM      6  C   UNL     1       7.832   5.875  19.024  0.00  0.00    +0.000 C 
ATOM      7  O   UNL     1       8.161   7.001  18.689  0.00  0.00    +0.000 OA
BRANCH   6   8
ATOM      8  O   UNL     1       7.895   5.474  20.316  0.00  0.00    +0.000 OA
ATOM      9  H   UNL     1       8.581   5.904  20.867  0.00  0.00    +0.000 HD
ENDBRANCH   6   8
ENDBRANCH   5   6
ENDBRANCH   1   5
BRANCH   1  10
ATOM     10  C   UNL     1       5.671   4.035  16.406  0.00  0.00    +0.000 C 
BRANCH  10  11
ATOM     11  C   UNL     1       6.033   4.529  15.009  0.00  0.00    +0.000 C 
ATOM     12  O   UNL     1       6.370   3.792  14.091  0.00  0.00    +0.000 OA
BRANCH  11  13
ATOM     13  O   UNL     1       6.027   5.875  14.897  0.00  0.00    +0.000 OA
ATOM     14  H   UNL     1       6.275   6.150  13.988  0.00  0.00    +0.000 HD
ENDBRANCH  11  13
ENDBRANCH  10  11
ENDBRANCH   1  10
TORSDOF 7
ENDMDL
