MODEL 1
REMARK VINA RESULT:      -7.3      0.000      0.000
REMARK  Name = 
REMARK  4 active torsions:
REMARK  status: ('A' for Active; 'I' for Inactive)
REMARK    1  A    between atoms: C_1  and  N_2
REMARK    2  A    between atoms: C_8  and  C_9
REMARK    3  A    between atoms: C_14  and  C_16
REMARK    4  A    between atoms: C_16  and  C_17
REMARK                            x       y       z     vdW  Elec       q    Type
REMARK                         _______ _______ _______ _____ _____    ______ ____
ROOT
ATOM      1  C   UNL     1       3.274   6.896  18.646  0.00  0.00    +0.000 C 
ATOM      2  C   UNL     1       3.382   5.773  19.690  0.00  0.00    +0.000 C 
ATOM      3  C   UNL     1       4.671   4.981  19.425  0.00  0.00    +0.000 C 
ATOM      4  C   UNL     1       4.743   4.462  17.984  0.00  0.00    +0.000 C 
ATOM      5  N   UNL     1       4.460   5.522  17.009  0.00  0.00    +0.000 N 
ATOM      6  C   UNL     1       5.340   5.998  16.041  0.00  0.00    +0.000 C 
ATOM      7  O   UNL     1       5.061   6.984  15.349  0.00  0.00    +0.000 OA
ATOM      8  C   UNL     1       3.201   6.260  17.252  0.00  0.00    +0.000 C 
ENDROOT
BRANCH   1  16
ATOM      9  C   UNL     1       0.535   9.226  22.851  0.00  0.00    +0.000 C 
ATOM     10  N   UNL     1       0.328   9.673  21.497  0.00  0.00    +0.000 N 
ATOM     11  N   UNL     1      -0.526  10.703  21.277  0.00  0.00    +0.000 NA
ATOM     12  C   UNL     1      -0.481  10.864  19.953  0.00  0.00    +0.000 A 
ATOM     13  C   UNL     1       0.394   9.956  19.327  0.00  0.00    +0.000 A 
ATOM     14  C   UNL     1       0.811   9.698  18.022  0.00  0.00    +0.000 A 
ATOM     15  C   UNL     1       1.732   8.671  17.853  0.00  0.00    +0.000 A 
ATOM     16  C   UNL     1       2.214   7.946  18.955  0.00  0.00    +0.000 A 
ATOM     17  N   UNL     1       1.820   8.169  20.242  0.00  0.00    +0.000 NA
ATOM     18  C   UNL     1       0.913   9.180  20.359  0.00  0.00    +0.000 A 
ENDBRANCH   1  16
BRANCH   6  19
ATOM     19  C   UNL     1       6.684   5.308  15.830  0.00  0.00    +0.000 C 
BRANCH  19  20
ATOM     20  C   UNL     1       6.797   4.806  14.418  0.00  0.00    +0.000 A 
ATOM     21  C   UNL     1       7.708   5.183  13.449  0.00  0.00    +0.000 A 
ATOM     22  C   UNL     1       7.502   4.506  12.213  0.00  0.00    +0.000 A 
ATOM     23  C   UNL     1       6.432   3.642  12.273  0.00  0.00    +0.000 A 
ATOM     24  S   UNL     1       5.682   3.655  13.809  0.00  0.00    +0.000 S 
ENDBRANCH  19  20
ENDBRANCH   6  19
TORSDOF 3
ENDMDL
MODEL 2
REMARK VINA RESULT:      -7.2      4.402      8.984
REMARK  Name = 
REMARK  4 active torsions:
REMARK  status: ('A' for Active; 'I' for Inactive)
REMARK    1  A    between atoms: C_1  and  N_2
REMARK    2  A    between atoms: C_8  and  C_9
REMARK    3  A    between atoms: C_14  and  C_16
REMARK    4  A    between atoms: C_16  and  C_17
REMARK                            x       y       z     vdW  Elec       q    Type
REMARK                         _______ _______ _______ _____ _____    ______ ____
ROOT
ATOM      1  C   UNL     1       2.237   7.894  19.233  0.00  0.00    +0.000 C 
ATOM      2  C   UNL     1       1.840   8.333  17.814  0.00  0.00    +0.000 C 
ATOM      3  C   UNL     1       1.482   9.826  17.846  0.00  0.00    +0.000 C 
ATOM      4  C   UNL     1       0.402  10.139  18.888  0.00  0.00    +0.000 C 
ATOM      5  N   UNL     1       0.723   9.554  20.196  0.00  0.00    +0.000 N 
ATOM      6  C   UNL     1       0.943  10.261  21.375  0.00  0.00    +0.000 C 
ATOM      7  O   UNL     1       1.338   9.692  22.400  0.00  0.00    +0.000 OA
ATOM      8  C   UNL     1       1.036   8.108  20.163  0.00  0.00    +0.000 C 
ENDROOT
BRANCH   1  16
ATOM      9  C   UNL     1       1.787   2.954  21.683  0.00  0.00    +0.000 C 
ATOM     10  N   UNL     1       2.819   3.203  20.710  0.00  0.00    +0.000 N 
ATOM     11  N   UNL     1       3.658   2.191  20.379  0.00  0.00    +0.000 NA
ATOM     12  C   UNL     1       4.466   2.743  19.472  0.00  0.00    +0.000 A 
ATOM     13  C   UNL     1       4.150   4.091  19.215  0.00  0.00    +0.000 A 
ATOM     14  C   UNL     1       4.643   5.100  18.389  0.00  0.00    +0.000 A 
ATOM     15  C   UNL     1       3.998   6.330  18.453  0.00  0.00    +0.000 A 
ATOM     16  C   UNL     1       2.901   6.526  19.309  0.00  0.00    +0.000 A 
ATOM     17  N   UNL     1       2.401   5.561  20.134  0.00  0.00    +0.000 NA
ATOM     18  C   UNL     1       3.067   4.375  20.041  0.00  0.00    +0.000 A 
ENDBRANCH   1  16
BRANCH   6  19
ATOM     19  C   UNL     1       0.712  11.768  21.412  0.00  0.00    +0.000 C 
BRANCH  19  20
ATOM     20  C   UNL     1      -0.677  12.071  21.900  0.00  0.00    +0.000 A 
ATOM     21  C   UNL     1      -1.323  11.555  23.008  0.00  0.00    +0.000 A 
ATOM     22  C   UNL     1      -2.648  12.059  23.151  0.00  0.00    +0.000 A 
ATOM     23  C   UNL     1      -2.976  12.933  22.141  0.00  0.00    +0.000 A 
ATOM     24  S   UNL     1      -1.695  13.138  21.027  0.00  0.00    +0.000 S 
ENDBRANCH  19  20
ENDBRANCH   6  19
TORSDOF 3
ENDMDL
MODEL 3
REMARK VINA RESULT:      -7.1      4.254      9.149
REMARK  Name = 
REMARK  4 active torsions:
REMARK  status: ('A' for Active; 'I' for Inactive)
REMARK    1  A    between atoms: C_1  and  N_2
REMARK    2  A    between atoms: C_8  and  C_9
REMARK    3  A    between atoms: C_14  and  C_16
REMARK    4  A    between atoms: C_16  and  C_17
REMARK                            x       y       z     vdW  Elec       q    Type
REMARK                         _______ _______ _______ _____ _____    ______ ____
ROOT
ATOM      1  C   UNL     1       2.032   8.008  19.436  0.00  0.00    +0.000 C 
ATOM      2  C   UNL     1       1.940   8.415  17.957  0.00  0.00    +0.000 C 
ATOM      3  C   UNL     1       1.837   9.946  17.875  0.00  0.00    +0.000 C 
ATOM      4  C   UNL     1       0.675  10.491  18.715  0.00  0.00    +0.000 C 
ATOM      5  N   UNL     1       0.686   9.946  20.078  0.00  0.00    +0.000 N 
ATOM      6  C   UNL     1       0.837  10.681  21.251  0.00  0.00    +0.000 C 
ATOM      7  O   UNL     1       0.966  10.122  22.346  0.00  0.00    +0.000 OA
ATOM      8  C   UNL     1       0.754   8.469  20.149  0.00  0.00    +0.000 C 
ENDROOT
BRANCH   1  16
ATOM      9  C   UNL     1       5.993   4.338  18.231  0.00  0.00    +0.000 C 
ATOM     10  N   UNL     1       4.894   3.982  19.092  0.00  0.00    +0.000 N 
ATOM     11  N   UNL     1       4.869   2.738  19.631  0.00  0.00    +0.000 NA
ATOM     12  C   UNL     1       3.752   2.742  20.363  0.00  0.00    +0.000 A 
ATOM     13  C   UNL     1       3.070   3.972  20.302  0.00  0.00    +0.000 A 
ATOM     14  C   UNL     1       1.906   4.504  20.855  0.00  0.00    +0.000 A 
ATOM     15  C   UNL     1       1.600   5.818  20.520  0.00  0.00    +0.000 A 
ATOM     16  C   UNL     1       2.437   6.559  19.669  0.00  0.00    +0.000 A 
ATOM     17  N   UNL     1       3.578   6.064  19.107  0.00  0.00    +0.000 NA
ATOM     18  C   UNL     1       3.835   4.772  19.459  0.00  0.00    +0.000 A 
ENDBRANCH   1  16
BRANCH   6  19
ATOM     19  C   UNL     1       0.859  12.205  21.195  0.00  0.00    +0.000 C 
BRANCH  19  20
ATOM     20  C   UNL     1      -0.492  12.760  21.552  0.00  0.00    +0.000 A 
ATOM     21  C   UNL     1      -1.074  12.849  22.803  0.00  0.00    +0.000 A 
ATOM     22  C   UNL     1      -2.379  13.417  22.759  0.00  0.00    +0.000 A 
ATOM     23  C   UNL     1      -2.758  13.732  21.474  0.00  0.00    +0.000 A 
ATOM     24  S   UNL     1      -1.548  13.339  20.332  0.00  0.00    +0.000 S 
ENDBRANCH  19  20
ENDBRANCH   6  19
TORSDOF 3
ENDMDL
MODEL 4
REMARK VINA RESULT:      -7.0      1.313      2.028
REMARK  Name = 
REMARK  4 active torsions:
REMARK  status: ('A' for Active; 'I' for Inactive)
REMARK    1  A    between atoms: C_1  and  N_2
REMARK    2  A    between atoms: C_8  and  C_9
REMARK    3  A    between atoms: C_14  and  C_16
REMARK    4  A    between atoms: C_16  and  C_17
REMARK                            x       y       z     vdW  Elec       q    Type
REMARK                         _______ _______ _______ _____ _____    ______ ____
ROOT
ATOM      1  C   UNL     1       3.434   5.834  18.878  0.00  0.00    +0.000 C 
ATOM      2  C   UNL     1       3.260   4.388  19.370  0.00  0.00    +0.000 C 
ATOM      3  C   UNL     1       4.439   3.550  18.853  0.00  0.00    +0.000 C 
ATOM      4  C   UNL     1       4.591   3.646  17.330  0.00  0.00    +0.000 C 
ATOM      5  N   UNL     1       4.577   5.039  16.869  0.00  0.00    +0.000 N 
ATOM      6  C   UNL     1       5.619   5.696  16.219  0.00  0.00    +0.000 C 
ATOM      7  O   UNL     1       5.566   6.909  15.985  0.00  0.00    +0.000 OA
ATOM      8  C   UNL     1       3.422   5.833  17.344  0.00  0.00    +0.000 C 
ENDROOT
BRANCH   1  16
ATOM      9  C   UNL     1       1.517  10.999  18.375  0.00  0.00    +0.000 C 
ATOM     10  N   UNL     1       1.062  10.145  19.442  0.00  0.00    +0.000 N 
ATOM     11  N   UNL     1       0.127  10.620  20.300  0.00  0.00    +0.000 NA
ATOM     12  C   UNL     1      -0.070   9.599  21.138  0.00  0.00    +0.000 A 
ATOM     13  C   UNL     1       0.723   8.479  20.821  0.00  0.00    +0.000 A 
ATOM     14  C   UNL     1       0.903   7.196  21.337  0.00  0.00    +0.000 A 
ATOM     15  C   UNL     1       1.819   6.383  20.680  0.00  0.00    +0.000 A 
ATOM     16  C   UNL     1       2.514   6.845  19.550  0.00  0.00    +0.000 A 
ATOM     17  N   UNL     1       2.365   8.096  19.027  0.00  0.00    +0.000 NA
ATOM     18  C   UNL     1       1.462   8.859  19.705  0.00  0.00    +0.000 A 
ENDBRANCH   1  16
BRANCH   6  19
ATOM     19  C   UNL     1       6.860   4.918  15.796  0.00  0.00    +0.000 C 
BRANCH  19  20
ATOM     20  C   UNL     1       6.755   4.512  14.352  0.00  0.00    +0.000 A 
ATOM     21  C   UNL     1       5.860   3.628  13.779  0.00  0.00    +0.000 A 
ATOM     22  C   UNL     1       6.068   3.472  12.378  0.00  0.00    +0.000 A 
ATOM     23  C   UNL     1       7.124   4.232  11.929  0.00  0.00    +0.000 A 
ATOM     24  S   UNL     1       7.858   5.121  13.191  0.00  0.00    +0.000 S 
ENDBRANCH  19  20
ENDBRANCH   6  19
TORSDOF 3
ENDMDL
MODEL 5
REMARK VINA RESULT:      -7.0      4.664      9.982
REMARK  Name = 
REMARK  4 active torsions:
REMARK  status: ('A' for Active; 'I' for Inactive)
REMARK    1  A    between atoms: C_1  and  N_2
REMARK    2  A    between atoms: C_8  and  C_9
REMARK    3  A    between atoms: C_14  and  C_16
REMARK    4  A    between atoms: C_16  and  C_17
REMARK                            x       y       z     vdW  Elec       q    Type
REMARK                         _______ _______ _______ _____ _____    ______ ____
ROOT
ATOM      1  C   UNL     1       1.127   9.206  19.746  0.00  0.00    +0.000 C 
ATOM      2  C   UNL     1       0.818   9.843  18.382  0.00  0.00    +0.000 C 
ATOM      3  C   UNL     1       0.450  11.318  18.602  0.00  0.00    +0.000 C 
ATOM      4  C   UNL     1      -0.696  11.483  19.608  0.00  0.00    +0.000 C 
ATOM      5  N   UNL     1      -0.455  10.717  20.837  0.00  0.00    +0.000 N 
ATOM      6  C   UNL     1      -0.314  11.249  22.116  0.00  0.00    +0.000 C 
ATOM      7  O   UNL     1       0.018  10.539  23.072  0.00  0.00    +0.000 OA
ATOM      8  C   UNL     1      -0.132   9.290  20.619  0.00  0.00    +0.000 C 
ENDROOT
BRANCH   1  16
ATOM      9  C   UNL     1       4.779   6.293  16.782  0.00  0.00    +0.000 C 
ATOM     10  N   UNL     1       4.168   5.731  17.959  0.00  0.00    +0.000 N 
ATOM     11  N   UNL     1       4.533   4.484  18.347  0.00  0.00    +0.000 NA
ATOM     12  C   UNL     1       3.804   4.277  19.445  0.00  0.00    +0.000 A 
ATOM     13  C   UNL     1       2.985   5.376  19.766  0.00  0.00    +0.000 A 
ATOM     14  C   UNL     1       2.067   5.688  20.768  0.00  0.00    +0.000 A 
ATOM     15  C   UNL     1       1.470   6.941  20.700  0.00  0.00    +0.000 A 
ATOM     16  C   UNL     1       1.793   7.839  19.669  0.00  0.00    +0.000 A 
ATOM     17  N   UNL     1       2.680   7.560  18.671  0.00  0.00    +0.000 NA
ATOM     18  C   UNL     1       3.236   6.320  18.775  0.00  0.00    +0.000 A 
ENDBRANCH   1  16
BRANCH   6  19
ATOM     19  C   UNL     1      -0.556  12.736  22.352  0.00  0.00    +0.000 C 
BRANCH  19  20
ATOM     20  C   UNL     1      -1.809  12.939  23.158  0.00  0.00    +0.000 A 
ATOM     21  C   UNL     1      -2.879  12.076  23.303  0.00  0.00    +0.000 A 
ATOM     22  C   UNL     1      -3.904  12.613  24.133  0.00  0.00    +0.000 A 
ATOM     23  C   UNL     1      -3.591  13.874  24.585  0.00  0.00    +0.000 A 
ATOM     24  S   UNL     1      -2.073  14.405  24.006  0.00  0.00    +0.000 S 
ENDBRANCH  19  20
ENDBRANCH   6  19
TORSDOF 3
ENDMDL
MODEL 6
REMARK VINA RESULT:      -7.0      1.129      1.295
REMARK  Name = 
REMARK  4 active torsions:
REMARK  status: ('A' for Active; 'I' for Inactive)
REMARK    1  A    between atoms: C_1  and  N_2
REMARK    2  A    between atoms: C_8  and  C_9
REMARK    3  A    between atoms: C_14  and  C_16
REMARK    4  A    between atoms: C_16  and  C_17
REMARK                            x       y       z     vdW  Elec       q    Type
REMARK                         _______ _______ _______ _____ _____    ______ ____
ROOT
ATOM      1  C   UNL     1       2.614   6.838  19.211  0.00  0.00    +0.000 C 
ATOM      2  C   UNL     1       2.218   5.619  20.060  0.00  0.00    +0.000 C 
ATOM      3  C   UNL     1       3.240   4.499  19.814  0.00  0.00    +0.000 C 
ATOM      4  C   UNL     1       3.382   4.165  18.324  0.00  0.00    +0.000 C 
ATOM      5  N   UNL     1       3.583   5.371  17.513  0.00  0.00    +0.000 N 
ATOM      6  C   UNL     1       4.706   5.660  16.741  0.00  0.00    +0.000 C 
ATOM      7  O   UNL     1       4.844   6.761  16.196  0.00  0.00    +0.000 OA
ATOM      8  C   UNL     1       2.577   6.435  17.732  0.00  0.00    +0.000 C 
ENDROOT
BRANCH   1  16
ATOM      9  C   UNL     1       0.177   9.437  23.444  0.00  0.00    +0.000 C 
ATOM     10  N   UNL     1       0.279  10.066  22.152  0.00  0.00    +0.000 N 
ATOM     11  N   UNL     1      -0.203  11.325  22.004  0.00  0.00    +0.000 NA
ATOM     12  C   UNL     1       0.051  11.603  20.724  0.00  0.00    +0.000 A 
ATOM     13  C   UNL     1       0.694  10.542  20.056  0.00  0.00    +0.000 A 
ATOM     14  C   UNL     1       1.175  10.308  18.769  0.00  0.00    +0.000 A 
ATOM     15  C   UNL     1       1.770   9.073  18.540  0.00  0.00    +0.000 A 
ATOM     16  C   UNL     1       1.877   8.123  19.569  0.00  0.00    +0.000 A 
ATOM     17  N   UNL     1       1.410   8.319  20.835  0.00  0.00    +0.000 NA
ATOM     18  C   UNL     1       0.831   9.541  21.012  0.00  0.00    +0.000 A 
ENDBRANCH   1  16
BRANCH   6  19
ATOM     19  C   UNL     1       5.801   4.612  16.572  0.00  0.00    +0.000 C 
BRANCH  19  20
ATOM     20  C   UNL     1       6.076   4.377  15.112  0.00  0.00    +0.000 A 
ATOM     21  C   UNL     1       5.330   3.639  14.212  0.00  0.00    +0.000 A 
ATOM     22  C   UNL     1       5.908   3.622  12.910  0.00  0.00    +0.000 A 
ATOM     23  C   UNL     1       7.083   4.336  12.860  0.00  0.00    +0.000 A 
ATOM     24  S   UNL     1       7.485   5.017  14.376  0.00  0.00    +0.000 S 
ENDBRANCH  19  20
ENDBRANCH   6  19
TORSDOF 3
ENDMDL
MODEL 7
REMARK VINA RESULT:      -7.0      2.755      4.547
REMARK  Name = 
REMARK  4 active torsions:
REMARK  status: ('A' for Active; 'I' for Inactive)
REMARK    1  A    between atoms: C_1  and  N_2
REMARK    2  A    between atoms: C_8  and  C_9
REMARK    3  A    between atoms: C_14  and  C_16
REMARK    4  A    between atoms: C_16  and  C_17
REMARK                            x       y       z     vdW  Elec       q    Type
REMARK                         _______ _______ _______ _____ _____    ______ ____
ROOT
ATOM      1  C   UNL     1       0.871   8.941  19.804  0.00  0.00    +0.000 C 
ATOM      2  C   UNL     1       1.424   9.764  18.630  0.00  0.00    +0.000 C 
ATOM      3  C   UNL     1       1.853   8.800  17.514  0.00  0.00    +0.000 C 
ATOM      4  C   UNL     1       2.844   7.742  18.017  0.00  0.00    +0.000 C 
ATOM      5  N   UNL     1       2.370   7.093  19.244  0.00  0.00    +0.000 N 
ATOM      6  C   UNL     1       2.074   5.740  19.392  0.00  0.00    +0.000 C 
ATOM      7  O   UNL     1       1.555   5.306  20.426  0.00  0.00    +0.000 OA
ATOM      8  C   UNL     1       1.987   8.027  20.326  0.00  0.00    +0.000 C 
ENDROOT
BRANCH   1  16
ATOM      9  C   UNL     1      -2.224  13.485  20.421  0.00  0.00    +0.000 C 
ATOM     10  N   UNL     1      -1.946  12.624  21.542  0.00  0.00    +0.000 N 
ATOM     11  N   UNL     1      -2.490  12.930  22.746  0.00  0.00    +0.000 NA
ATOM     12  C   UNL     1      -2.051  11.951  23.540  0.00  0.00    +0.000 A 
ATOM     13  C   UNL     1      -1.242  11.022  22.857  0.00  0.00    +0.000 A 
ATOM     14  C   UNL     1      -0.557   9.853  23.186  0.00  0.00    +0.000 A 
ATOM     15  C   UNL     1       0.138   9.227  22.157  0.00  0.00    +0.000 A 
ATOM     16  C   UNL     1       0.133   9.758  20.856  0.00  0.00    +0.000 A 
ATOM     17  N   UNL     1      -0.520  10.903  20.506  0.00  0.00    +0.000 NA
ATOM     18  C   UNL     1      -1.183  11.484  21.546  0.00  0.00    +0.000 A 
ENDBRANCH   1  16
BRANCH   6  19
ATOM     19  C   UNL     1       2.378   4.768  18.257  0.00  0.00    +0.000 C 
BRANCH  19  20
ATOM     20  C   UNL     1       3.856   4.725  17.988  0.00  0.00    +0.000 A 
ATOM     21  C   UNL     1       4.499   4.643  16.767  0.00  0.00    +0.000 A 
ATOM     22  C   UNL     1       5.918   4.605  16.899  0.00  0.00    +0.000 A 
ATOM     23  C   UNL     1       6.312   4.646  18.216  0.00  0.00    +0.000 A 
ATOM     24  S   UNL     1       4.979   4.725  19.283  0.00  0.00    +0.000 S 
ENDBRANCH  19  20
ENDBRANCH   6  19
TORSDOF 3
ENDMDL
MODEL 8
REMARK VINA RESULT:      -7.0      3.767      4.983
REMARK  Name = 
REMARK  4 active torsions:
REMARK  status: ('A' for Active; 'I' for Inactive)
REMARK    1  A    between atoms: C_1  and  N_2
REMARK    2  A    between atoms: C_8  and  C_9
REMARK    3  A    between atoms: C_14  and  C_16
REMARK    4  A    between atoms: C_16  and  C_17
REMARK                            x       y       z     vdW  Elec       q    Type
REMARK                         _______ _______ _______ _____ _____    ______ ____
ROOT
ATOM      1  C   UNL     1       0.961   8.955  19.723  0.00  0.00    +0.000 C 
ATOM      2  C   UNL     1       1.659   9.828  18.668  0.00  0.00    +0.000 C 
ATOM      3  C   UNL     1       2.102   8.929  17.504  0.00  0.00    +0.000 C 
ATOM      4  C   UNL     1       2.973   7.759  17.978  0.00  0.00    +0.000 C 
ATOM      5  N   UNL     1       2.361   7.048  19.107  0.00  0.00    +0.000 N 
ATOM      6  C   UNL     1       1.958   5.715  19.113  0.00  0.00    +0.000 C 
ATOM      7  O   UNL     1       1.332   5.239  20.067  0.00  0.00    +0.000 OA
ATOM      8  C   UNL     1       1.966   7.917  20.239  0.00  0.00    +0.000 C 
ENDROOT
BRANCH   1  16
ATOM      9  C   UNL     1      -2.301  13.371  20.408  0.00  0.00    +0.000 C 
ATOM     10  N   UNL     1      -1.974  12.516  21.520  0.00  0.00    +0.000 N 
ATOM     11  N   UNL     1      -2.513  12.794  22.733  0.00  0.00    +0.000 NA
ATOM     12  C   UNL     1      -2.026  11.829  23.516  0.00  0.00    +0.000 A 
ATOM     13  C   UNL     1      -1.190  10.936  22.817  0.00  0.00    +0.000 A 
ATOM     14  C   UNL     1      -0.456   9.793  23.129  0.00  0.00    +0.000 A 
ATOM     15  C   UNL     1       0.249   9.200  22.088  0.00  0.00    +0.000 A 
ATOM     16  C   UNL     1       0.206   9.737  20.790  0.00  0.00    +0.000 A 
ATOM     17  N   UNL     1      -0.496  10.858  20.456  0.00  0.00    +0.000 NA
ATOM     18  C   UNL     1      -1.167  11.407  21.508  0.00  0.00    +0.000 A 
ENDBRANCH   1  16
BRANCH   6  19
ATOM     19  C   UNL     1       2.276   4.821  17.920  0.00  0.00    +0.000 C 
BRANCH  19  20
ATOM     20  C   UNL     1       2.972   3.569  18.378  0.00  0.00    +0.000 A 
ATOM     21  C   UNL     1       2.637   2.257  18.099  0.00  0.00    +0.000 A 
ATOM     22  C   UNL     1       3.517   1.325  18.721  0.00  0.00    +0.000 A 
ATOM     23  C   UNL     1       4.488   1.954  19.465  0.00  0.00    +0.000 A 
ATOM     24  S   UNL     1       4.333   3.656  19.415  0.00  0.00    +0.000 S 
ENDBRANCH  19  20
ENDBRANCH   6  19
TORSDOF 3
ENDMDL
MODEL 9
REMARK VINA RESULT:      -6.9      1.696      2.595
REMARK  Name = 
REMARK  4 active torsions:
REMARK  status: ('A' for Active; 'I' for Inactive)
REMARK    1  A    between atoms: C_1  and  N_2
REMARK    2  A    between atoms: C_8  and  C_9
REMARK    3  A    between atoms: C_14  and  C_16
REMARK    4  A    between atoms: C_16  and  C_17
REMARK                            x       y       z     vdW  Elec       q    Type
REMARK                         _______ _______ _______ _____ _____    ______ ____
ROOT
ATOM      1  C   UNL     1       2.109   6.890  20.135  0.00  0.00    +0.000 C 
ATOM      2  C   UNL     1       1.480   5.606  20.700  0.00  0.00    +0.000 C 
ATOM      3  C   UNL     1       2.434   4.433  20.428  0.00  0.00    +0.000 C 
ATOM      4  C   UNL     1       2.794   4.315  18.942  0.00  0.00    +0.000 C 
ATOM      5  N   UNL     1       3.224   5.601  18.382  0.00  0.00    +0.000 N 
ATOM      6  C   UNL     1       4.479   5.882  17.848  0.00  0.00    +0.000 C 
ATOM      7  O   UNL     1       4.794   7.031  17.520  0.00  0.00    +0.000 OA
ATOM      8  C   UNL     1       2.285   6.721  18.621  0.00  0.00    +0.000 C 
ENDROOT
BRANCH   1  16
ATOM      9  C   UNL     1       1.261  12.141  18.613  0.00  0.00    +0.000 C 
ATOM     10  N   UNL     1       0.672  11.618  19.820  0.00  0.00    +0.000 N 
ATOM     11  N   UNL     1      -0.124  12.430  20.558  0.00  0.00    +0.000 NA
ATOM     12  C   UNL     1      -0.500  11.652  21.575  0.00  0.00    +0.000 A 
ATOM     13  C   UNL     1       0.041  10.355  21.492  0.00  0.00    +0.000 A 
ATOM     14  C   UNL     1      -0.028   9.186  22.250  0.00  0.00    +0.000 A 
ATOM     15  C   UNL     1       0.687   8.092  21.775  0.00  0.00    +0.000 A 
ATOM     16  C   UNL     1       1.430   8.177  20.586  0.00  0.00    +0.000 A 
ATOM     17  N   UNL     1       1.522   9.307  19.828  0.00  0.00    +0.000 NA
ATOM     18  C   UNL     1       0.811  10.354  20.333  0.00  0.00    +0.000 A 
ENDBRANCH   1  16
BRANCH   6  19
ATOM     19  C   UNL     1       5.498   4.761  17.674  0.00  0.00    +0.000 C 
BRANCH  19  20
ATOM     20  C   UNL     1       5.868   4.613  16.224  0.00  0.00    +0.000 A 
ATOM     21  C   UNL     1       5.146   4.000  15.218  0.00  0.00    +0.000 A 
ATOM     22  C   UNL     1       5.819   4.035  13.963  0.00  0.00    +0.000 A 
ATOM     23  C   UNL     1       7.040   4.663  14.053  0.00  0.00    +0.000 A 
ATOM     24  S   UNL     1       7.369   5.200  15.642  0.00  0.00    +0.000 S 
ENDBRANCH  19  20
ENDBRANCH   6  19
TORSDOF 3
ENDMDL
