MODEL 1
REMARK VINA RESULT:      -6.9      0.000      0.000
REMARK  Name = 
REMARK  11 active torsions:
REMARK  status: ('A' for Active; 'I' for Inactive)
REMARK    1  A    between atoms: C_1  and  C_2
REMARK    2  A    between atoms: C_2  and  C_3
REMARK    3  A    between atoms: C_3  and  C_4
REMARK    4  A    between atoms: C_4  and  N_5
REMARK    5  A    between atoms: C_4  and  C_6
REMARK    6  A    between atoms: C_8  and  C_9
REMARK    7  A    between atoms: C_8  and  C_16
REMARK    8  A    between atoms: N_11  and  C_12
REMARK    9  A    between atoms: N_11  and  C_14
REMARK   10  A    between atoms: C_12  and  C_13
REMARK   11  A    between atoms: C_14  and  C_15
REMARK                            x       y       z     vdW  Elec       q    Type
REMARK                         _______ _______ _______ _____ _____    ______ ____
ROOT
ATOM      1  C   UNL     1       2.882   3.914  18.225  0.00  0.00    +0.000 C 
ATOM      2  C   UNL     1       3.469   4.324  16.906  0.00  0.00    +0.000 C 
ATOM      3  C   UNL     1       3.771   5.199  18.122  0.00  0.00    +0.000 C 
ENDROOT
BRANCH   3   4
ATOM      4  C   UNL     1       2.936   6.448  18.443  0.00  0.00    +0.000 A 
ATOM      5  C   UNL     1       2.824   7.485  17.499  0.00  0.00    +0.000 A 
ATOM      6  C   UNL     1       2.217   8.699  17.822  0.00  0.00    +0.000 A 
ATOM      7  C   UNL     1       1.702   8.902  19.102  0.00  0.00    +0.000 A 
ATOM      8  C   UNL     1       1.742   7.871  20.033  0.00  0.00    +0.000 A 
ATOM      9  C   UNL     1       2.342   6.655  19.700  0.00  0.00    +0.000 A 
ENDBRANCH   3   4
BRANCH   3  10
ATOM     10  C   UNL     1       5.201   5.192  18.635  0.00  0.00    +0.000 C 
ATOM     11  O   UNL     1       5.380   5.106  19.850  0.00  0.00    +0.000 OA
ATOM     12  N   UNL     1       6.281   5.341  17.731  0.00  0.00    +0.000 N 
BRANCH  12  13
ATOM     13  C   UNL     1       6.083   5.831  16.364  0.00  0.00    +0.000 C 
ATOM     14  C   UNL     1       6.719   4.999  15.256  0.00  0.00    +0.000 C 
ENDBRANCH  12  13
BRANCH  12  15
ATOM     15  C   UNL     1       7.590   5.522  18.366  0.00  0.00    +0.000 C 
ATOM     16  C   UNL     1       8.012   6.983  18.417  0.00  0.00    +0.000 C 
ENDBRANCH  12  15
ENDBRANCH   3  10
BRANCH   1  17
ATOM     17  C   UNL     1       3.279   2.627  18.899  0.00  0.00    +0.000 C 
BRANCH  17  18
ATOM     18  N   UNL     1       3.817   1.760  17.844  0.00  0.00    +0.000 NA
ATOM     19  H   UNL     1       3.707   2.215  16.940  0.00  0.00    +0.000 HD
ATOM     20  H   UNL     1       3.251   0.914  17.803  0.00  0.00    +0.000 HD
ENDBRANCH  17  18
BRANCH  17  21
ATOM     21  C   UNL     1       2.057   1.970  19.584  0.00  0.00    +0.000 C 
BRANCH  21  23
ATOM     22  C   UNL     1       1.925   3.277  21.748  0.00  0.00    +0.000 C 
ATOM     23  C   UNL     1       1.234   2.945  20.432  0.00  0.00    +0.000 C 
ENDBRANCH  21  23
ENDBRANCH  17  21
ENDBRANCH   1  17
TORSDOF 8
ENDMDL
MODEL 2
REMARK VINA RESULT:      -6.9      0.250      1.079
REMARK  Name = 
REMARK  11 active torsions:
REMARK  status: ('A' for Active; 'I' for Inactive)
REMARK    1  A    between atoms: C_1  and  C_2
REMARK    2  A    between atoms: C_2  and  C_3
REMARK    3  A    between atoms: C_3  and  C_4
REMARK    4  A    between atoms: C_4  and  N_5
REMARK    5  A    between atoms: C_4  and  C_6
REMARK    6  A    between atoms: C_8  and  C_9
REMARK    7  A    between atoms: C_8  and  C_16
REMARK    8  A    between atoms: N_11  and  C_12
REMARK    9  A    between atoms: N_11  and  C_14
REMARK   10  A    between atoms: C_12  and  C_13
REMARK   11  A    between atoms: C_14  and  C_15
REMARK                            x       y       z     vdW  Elec       q    Type
REMARK                         _______ _______ _______ _____ _____    ______ ____
ROOT
ATOM      1  C   UNL     1       2.904   3.904  18.283  0.00  0.00    +0.000 C 
ATOM      2  C   UNL     1       3.490   4.245  16.945  0.00  0.00    +0.000 C 
ATOM      3  C   UNL     1       3.915   5.091  18.144  0.00  0.00    +0.000 C 
ENDROOT
BRANCH   3   4
ATOM      4  C   UNL     1       3.220   6.420  18.478  0.00  0.00    +0.000 A 
ATOM      5  C   UNL     1       2.585   6.593  19.722  0.00  0.00    +0.000 A 
ATOM      6  C   UNL     1       1.806   7.719  19.990  0.00  0.00    +0.000 A 
ATOM      7  C   UNL     1       1.647   8.704  19.015  0.00  0.00    +0.000 A 
ATOM      8  C   UNL     1       2.315   8.589  17.803  0.00  0.00    +0.000 A 
ATOM      9  C   UNL     1       3.102   7.465  17.545  0.00  0.00    +0.000 A 
ENDBRANCH   3   4
BRANCH   3  10
ATOM     10  C   UNL     1       5.351   4.943  18.616  0.00  0.00    +0.000 C 
ATOM     11  O   UNL     1       5.547   4.712  19.809  0.00  0.00    +0.000 OA
ATOM     12  N   UNL     1       6.420   5.126  17.706  0.00  0.00    +0.000 N 
BRANCH  12  13
ATOM     13  C   UNL     1       6.227   5.777  16.407  0.00  0.00    +0.000 C 
ATOM     14  C   UNL     1       6.703   4.993  15.189  0.00  0.00    +0.000 C 
ENDBRANCH  12  13
BRANCH  12  15
ATOM     15  C   UNL     1       7.750   5.158  18.323  0.00  0.00    +0.000 C 
ATOM     16  C   UNL     1       8.147   6.556  18.775  0.00  0.00    +0.000 C 
ENDBRANCH  12  15
ENDBRANCH   3  10
BRANCH   1  17
ATOM     17  C   UNL     1       3.188   2.587  18.957  0.00  0.00    +0.000 C 
BRANCH  17  18
ATOM     18  N   UNL     1       3.703   1.694  17.912  0.00  0.00    +0.000 NA
ATOM     19  H   UNL     1       4.438   2.167  17.392  0.00  0.00    +0.000 HD
ATOM     20  H   UNL     1       2.955   1.518  17.242  0.00  0.00    +0.000 HD
ENDBRANCH  17  18
BRANCH  17  21
ATOM     21  C   UNL     1       1.901   2.010  19.592  0.00  0.00    +0.000 C 
BRANCH  21  23
ATOM     22  C   UNL     1       2.039   3.332  21.747  0.00  0.00    +0.000 C 
ATOM     23  C   UNL     1       1.189   2.990  20.530  0.00  0.00    +0.000 C 
ENDBRANCH  21  23
ENDBRANCH  17  21
ENDBRANCH   1  17
TORSDOF 8
ENDMDL
MODEL 3
REMARK VINA RESULT:      -6.6      1.911      5.105
REMARK  Name = 
REMARK  11 active torsions:
REMARK  status: ('A' for Active; 'I' for Inactive)
REMARK    1  A    between atoms: C_1  and  C_2
REMARK    2  A    between atoms: C_2  and  C_3
REMARK    3  A    between atoms: C_3  and  C_4
REMARK    4  A    between atoms: C_4  and  N_5
REMARK    5  A    between atoms: C_4  and  C_6
REMARK    6  A    between atoms: C_8  and  C_9
REMARK    7  A    between atoms: C_8  and  C_16
REMARK    8  A    between atoms: N_11  and  C_12
REMARK    9  A    between atoms: N_11  and  C_14
REMARK   10  A    between atoms: C_12  and  C_13
REMARK   11  A    between atoms: C_14  and  C_15
REMARK                            x       y       z     vdW  Elec       q    Type
REMARK                         _______ _______ _______ _____ _____    ______ ____
ROOT
ATOM      1  C   UNL     1       4.402   5.956  17.970  0.00  0.00    +0.000 C 
ATOM      2  C   UNL     1       4.389   5.547  19.413  0.00  0.00    +0.000 C 
ATOM      3  C   UNL     1       3.055   5.914  18.766  0.00  0.00    +0.000 C 
ENDROOT
BRANCH   3   4
ATOM      4  C   UNL     1       2.464   7.327  18.882  0.00  0.00    +0.000 A 
ATOM      5  C   UNL     1       1.888   7.755  20.092  0.00  0.00    +0.000 A 
ATOM      6  C   UNL     1       1.196   8.964  20.181  0.00  0.00    +0.000 A 
ATOM      7  C   UNL     1       1.069   9.777  19.055  0.00  0.00    +0.000 A 
ATOM      8  C   UNL     1       1.683   9.409  17.865  0.00  0.00    +0.000 A 
ATOM      9  C   UNL     1       2.383   8.203  17.786  0.00  0.00    +0.000 A 
ENDBRANCH   3   4
BRANCH   3  10
ATOM     10  C   UNL     1       2.064   4.784  18.548  0.00  0.00    +0.000 C 
ATOM     11  O   UNL     1       1.517   4.697  17.449  0.00  0.00    +0.000 OA
ATOM     12  N   UNL     1       1.747   3.902  19.609  0.00  0.00    +0.000 N 
BRANCH  12  13
ATOM     13  C   UNL     1       2.075   4.218  21.002  0.00  0.00    +0.000 C 
ATOM     14  C   UNL     1       2.163   3.032  21.956  0.00  0.00    +0.000 C 
ENDBRANCH  12  13
BRANCH  12  15
ATOM     15  C   UNL     1       0.634   2.987  19.335  0.00  0.00    +0.000 C 
ATOM     16  C   UNL     1       1.101   1.672  18.727  0.00  0.00    +0.000 C 
ENDBRANCH  12  15
ENDBRANCH   3  10
BRANCH   1  17
ATOM     17  C   UNL     1       4.807   4.996  16.882  0.00  0.00    +0.000 C 
BRANCH  17  18
ATOM     18  N   UNL     1       5.774   4.073  17.488  0.00  0.00    +0.000 NA
ATOM     19  H   UNL     1       6.189   3.490  16.764  0.00  0.00    +0.000 HD
ATOM     20  H   UNL     1       5.270   3.437  18.104  0.00  0.00    +0.000 HD
ENDBRANCH  17  18
BRANCH  17  21
ATOM     21  C   UNL     1       5.438   5.755  15.691  0.00  0.00    +0.000 C 
BRANCH  21  23
ATOM     22  C   UNL     1       5.950   4.028  13.913  0.00  0.00    +0.000 C 
ATOM     23  C   UNL     1       6.530   4.960  14.969  0.00  0.00    +0.000 C 
ENDBRANCH  21  23
ENDBRANCH  17  21
ENDBRANCH   1  17
TORSDOF 8
ENDMDL
MODEL 4
REMARK VINA RESULT:      -6.5      1.525      5.093
REMARK  Name = 
REMARK  11 active torsions:
REMARK  status: ('A' for Active; 'I' for Inactive)
REMARK    1  A    between atoms: C_1  and  C_2
REMARK    2  A    between atoms: C_2  and  C_3
REMARK    3  A    between atoms: C_3  and  C_4
REMARK    4  A    between atoms: C_4  and  N_5
REMARK    5  A    between atoms: C_4  and  C_6
REMARK    6  A    between atoms: C_8  and  C_9
REMARK    7  A    between atoms: C_8  and  C_16
REMARK    8  A    between atoms: N_11  and  C_12
REMARK    9  A    between atoms: N_11  and  C_14
REMARK   10  A    between atoms: C_12  and  C_13
REMARK   11  A    between atoms: C_14  and  C_15
REMARK                            x       y       z     vdW  Elec       q    Type
REMARK                         _______ _______ _______ _____ _____    ______ ____
ROOT
ATOM      1  C   UNL     1       5.605   5.218  17.793  0.00  0.00    +0.000 C 
ATOM      2  C   UNL     1       5.559   4.740  19.214  0.00  0.00    +0.000 C 
ATOM      3  C   UNL     1       4.230   4.986  18.503  0.00  0.00    +0.000 C 
ENDROOT
BRANCH   3   4
ATOM      4  C   UNL     1       3.475   6.317  18.644  0.00  0.00    +0.000 A 
ATOM      5  C   UNL     1       2.702   6.574  19.791  0.00  0.00    +0.000 A 
ATOM      6  C   UNL     1       1.874   7.695  19.875  0.00  0.00    +0.000 A 
ATOM      7  C   UNL     1       1.805   8.589  18.808  0.00  0.00    +0.000 A 
ATOM      8  C   UNL     1       2.606   8.394  17.690  0.00  0.00    +0.000 A 
ATOM      9  C   UNL     1       3.440   7.276  17.617  0.00  0.00    +0.000 A 
ENDBRANCH   3   4
BRANCH   3  10
ATOM     10  C   UNL     1       3.388   3.765  18.178  0.00  0.00    +0.000 C 
ATOM     11  O   UNL     1       2.935   3.661  17.038  0.00  0.00    +0.000 OA
ATOM     12  N   UNL     1       3.096   2.814  19.186  0.00  0.00    +0.000 N 
BRANCH  12  13
ATOM     13  C   UNL     1       3.285   3.112  20.608  0.00  0.00    +0.000 C 
ATOM     14  C   UNL     1       2.087   2.844  21.514  0.00  0.00    +0.000 C 
ENDBRANCH  12  13
BRANCH  12  15
ATOM     15  C   UNL     1       2.114   1.795  18.801  0.00  0.00    +0.000 C 
ATOM     16  C   UNL     1       0.701   2.356  18.713  0.00  0.00    +0.000 C 
ENDBRANCH  12  15
ENDBRANCH   3  10
BRANCH   1  17
ATOM     17  C   UNL     1       6.176   4.364  16.691  0.00  0.00    +0.000 C 
BRANCH  17  18
ATOM     18  N   UNL     1       7.632   4.376  16.876  0.00  0.00    +0.000 NA
ATOM     19  H   UNL     1       8.090   4.163  15.992  0.00  0.00    +0.000 HD
ATOM     20  H   UNL     1       7.883   3.619  17.511  0.00  0.00    +0.000 HD
ENDBRANCH  17  18
BRANCH  17  21
ATOM     21  C   UNL     1       5.790   4.932  15.305  0.00  0.00    +0.000 C 
BRANCH  21  23
ATOM     22  C   UNL     1       6.005   3.715  13.096  0.00  0.00    +0.000 C 
ATOM     23  C   UNL     1       6.735   4.495  14.181  0.00  0.00    +0.000 C 
ENDBRANCH  21  23
ENDBRANCH  17  21
ENDBRANCH   1  17
TORSDOF 8
ENDMDL
MODEL 5
REMARK VINA RESULT:      -6.5      1.076      1.585
REMARK  Name = 
REMARK  11 active torsions:
REMARK  status: ('A' for Active; 'I' for Inactive)
REMARK    1  A    between atoms: C_1  and  C_2
REMARK    2  A    between atoms: C_2  and  C_3
REMARK    3  A    between atoms: C_3  and  C_4
REMARK    4  A    between atoms: C_4  and  N_5
REMARK    5  A    between atoms: C_4  and  C_6
REMARK    6  A    between atoms: C_8  and  C_9
REMARK    7  A    between atoms: C_8  and  C_16
REMARK    8  A    between atoms: N_11  and  C_12
REMARK    9  A    between atoms: N_11  and  C_14
REMARK   10  A    between atoms: C_12  and  C_13
REMARK   11  A    between atoms: C_14  and  C_15
REMARK                            x       y       z     vdW  Elec       q    Type
REMARK                         _______ _______ _______ _____ _____    ______ ____
ROOT
ATOM      1  C   UNL     1       1.737   4.599  18.528  0.00  0.00    +0.000 C 
ATOM      2  C   UNL     1       2.317   4.824  17.163  0.00  0.00    +0.000 C 
ATOM      3  C   UNL     1       2.909   5.617  18.327  0.00  0.00    +0.000 C 
ENDROOT
BRANCH   3   4
ATOM      4  C   UNL     1       2.435   7.041  18.655  0.00  0.00    +0.000 A 
ATOM      5  C   UNL     1       2.003   7.361  19.955  0.00  0.00    +0.000 A 
ATOM      6  C   UNL     1       1.412   8.592  20.242  0.00  0.00    +0.000 A 
ATOM      7  C   UNL     1       1.244   9.536  19.231  0.00  0.00    +0.000 A 
ATOM      8  C   UNL     1       1.720   9.271  17.953  0.00  0.00    +0.000 A 
ATOM      9  C   UNL     1       2.320   8.042  17.675  0.00  0.00    +0.000 A 
ENDBRANCH   3   4
BRANCH   3  10
ATOM     10  C   UNL     1       4.323   5.261  18.753  0.00  0.00    +0.000 C 
ATOM     11  O   UNL     1       4.536   5.067  19.949  0.00  0.00    +0.000 OA
ATOM     12  N   UNL     1       5.363   5.215  17.793  0.00  0.00    +0.000 N 
BRANCH  12  13
ATOM     13  C   UNL     1       5.217   5.815  16.464  0.00  0.00    +0.000 C 
ATOM     14  C   UNL     1       5.571   4.918  15.282  0.00  0.00    +0.000 C 
ENDBRANCH  12  13
BRANCH  12  15
ATOM     15  C   UNL     1       6.709   5.062  18.356  0.00  0.00    +0.000 C 
ATOM     16  C   UNL     1       7.511   6.354  18.301  0.00  0.00    +0.000 C 
ENDBRANCH  12  15
ENDBRANCH   3  10
BRANCH   1  17
ATOM     17  C   UNL     1       1.844   3.265  19.221  0.00  0.00    +0.000 C 
BRANCH  17  18
ATOM     18  N   UNL     1       1.535   2.250  18.207  0.00  0.00    +0.000 NA
ATOM     19  H   UNL     1       2.009   1.380  18.440  0.00  0.00    +0.000 HD
ATOM     20  H   UNL     1       1.928   2.553  17.317  0.00  0.00    +0.000 HD
ENDBRANCH  17  18
BRANCH  17  21
ATOM     21  C   UNL     1       0.851   3.184  20.404  0.00  0.00    +0.000 C 
BRANCH  21  23
ATOM     22  C   UNL     1       2.969   2.407  21.552  0.00  0.00    +0.000 C 
ATOM     23  C   UNL     1       1.461   2.581  21.673  0.00  0.00    +0.000 C 
ENDBRANCH  21  23
ENDBRANCH  17  21
ENDBRANCH   1  17
TORSDOF 8
ENDMDL
MODEL 6
REMARK VINA RESULT:      -6.4      1.409      4.782
REMARK  Name = 
REMARK  11 active torsions:
REMARK  status: ('A' for Active; 'I' for Inactive)
REMARK    1  A    between atoms: C_1  and  C_2
REMARK    2  A    between atoms: C_2  and  C_3
REMARK    3  A    between atoms: C_3  and  C_4
REMARK    4  A    between atoms: C_4  and  N_5
REMARK    5  A    between atoms: C_4  and  C_6
REMARK    6  A    between atoms: C_8  and  C_9
REMARK    7  A    between atoms: C_8  and  C_16
REMARK    8  A    between atoms: N_11  and  C_12
REMARK    9  A    between atoms: N_11  and  C_14
REMARK   10  A    between atoms: C_12  and  C_13
REMARK   11  A    between atoms: C_14  and  C_15
REMARK                            x       y       z     vdW  Elec       q    Type
REMARK                         _______ _______ _______ _____ _____    ______ ____
ROOT
ATOM      1  C   UNL     1       5.920   5.410  17.347  0.00  0.00    +0.000 C 
ATOM      2  C   UNL     1       6.509   5.486  18.725  0.00  0.00    +0.000 C 
ATOM      3  C   UNL     1       5.012   5.207  18.606  0.00  0.00    +0.000 C 
ENDROOT
BRANCH   3   4
ATOM      4  C   UNL     1       3.972   6.335  18.697  0.00  0.00    +0.000 A 
ATOM      5  C   UNL     1       3.119   6.422  19.813  0.00  0.00    +0.000 A 
ATOM      6  C   UNL     1       2.058   7.328  19.848  0.00  0.00    +0.000 A 
ATOM      7  C   UNL     1       1.829   8.174  18.764  0.00  0.00    +0.000 A 
ATOM      8  C   UNL     1       2.695   8.153  17.677  0.00  0.00    +0.000 A 
ATOM      9  C   UNL     1       3.761   7.252  17.653  0.00  0.00    +0.000 A 
ENDBRANCH   3   4
BRANCH   3  10
ATOM     10  C   UNL     1       4.538   3.819  19.001  0.00  0.00    +0.000 C 
ATOM     11  O   UNL     1       5.236   3.168  19.779  0.00  0.00    +0.000 OA
ATOM     12  N   UNL     1       3.355   3.284  18.435  0.00  0.00    +0.000 N 
BRANCH  12  13
ATOM     13  C   UNL     1       2.739   3.864  17.239  0.00  0.00    +0.000 C 
ATOM     14  C   UNL     1       1.302   4.350  17.394  0.00  0.00    +0.000 C 
ENDBRANCH  12  13
BRANCH  12  15
ATOM     15  C   UNL     1       3.116   1.869  18.738  0.00  0.00    +0.000 C 
ATOM     16  C   UNL     1       1.932   1.669  19.673  0.00  0.00    +0.000 C 
ENDBRANCH  12  15
ENDBRANCH   3  10
BRANCH   1  17
ATOM     17  C   UNL     1       6.322   4.332  16.375  0.00  0.00    +0.000 C 
BRANCH  17  18
ATOM     18  N   UNL     1       7.779   4.435  16.228  0.00  0.00    +0.000 NA
ATOM     19  H   UNL     1       8.110   5.275  16.696  0.00  0.00    +0.000 HD
ATOM     20  H   UNL     1       7.994   4.562  15.240  0.00  0.00    +0.000 HD
ENDBRANCH  17  18
BRANCH  17  21
ATOM     21  C   UNL     1       5.613   4.532  15.015  0.00  0.00    +0.000 C 
BRANCH  21  23
ATOM     22  C   UNL     1       5.846   3.503  12.714  0.00  0.00    +0.000 C 
ATOM     23  C   UNL     1       6.531   4.310  13.809  0.00  0.00    +0.000 C 
ENDBRANCH  21  23
ENDBRANCH  17  21
ENDBRANCH   1  17
TORSDOF 8
ENDMDL
MODEL 7
REMARK VINA RESULT:      -6.4      1.502      4.953
REMARK  Name = 
REMARK  11 active torsions:
REMARK  status: ('A' for Active; 'I' for Inactive)
REMARK    1  A    between atoms: C_1  and  C_2
REMARK    2  A    between atoms: C_2  and  C_3
REMARK    3  A    between atoms: C_3  and  C_4
REMARK    4  A    between atoms: C_4  and  N_5
REMARK    5  A    between atoms: C_4  and  C_6
REMARK    6  A    between atoms: C_8  and  C_9
REMARK    7  A    between atoms: C_8  and  C_16
REMARK    8  A    between atoms: N_11  and  C_12
REMARK    9  A    between atoms: N_11  and  C_14
REMARK   10  A    between atoms: C_12  and  C_13
REMARK   11  A    between atoms: C_14  and  C_15
REMARK                            x       y       z     vdW  Elec       q    Type
REMARK                         _______ _______ _______ _____ _____    ______ ____
ROOT
ATOM      1  C   UNL     1       5.265   5.513  17.888  0.00  0.00    +0.000 C 
ATOM      2  C   UNL     1       5.243   5.050  19.315  0.00  0.00    +0.000 C 
ATOM      3  C   UNL     1       3.906   5.174  18.587  0.00  0.00    +0.000 C 
ENDROOT
BRANCH   3   4
ATOM      4  C   UNL     1       3.039   6.438  18.703  0.00  0.00    +0.000 A 
ATOM      5  C   UNL     1       2.983   7.356  17.638  0.00  0.00    +0.000 A 
ATOM      6  C   UNL     1       2.344   8.589  17.775  0.00  0.00    +0.000 A 
ATOM      7  C   UNL     1       1.741   8.930  18.985  0.00  0.00    +0.000 A 
ATOM      8  C   UNL     1       1.726   8.015  20.031  0.00  0.00    +0.000 A 
ATOM      9  C   UNL     1       2.359   6.779  19.884  0.00  0.00    +0.000 A 
ENDBRANCH   3   4
BRANCH   3  10
ATOM     10  C   UNL     1       3.174   3.881  18.268  0.00  0.00    +0.000 C 
ATOM     11  O   UNL     1       2.725   3.735  17.132  0.00  0.00    +0.000 OA
ATOM     12  N   UNL     1       2.974   2.911  19.280  0.00  0.00    +0.000 N 
BRANCH  12  13
ATOM     13  C   UNL     1       3.144   3.227  20.701  0.00  0.00    +0.000 C 
ATOM     14  C   UNL     1       1.862   3.416  21.503  0.00  0.00    +0.000 C 
ENDBRANCH  12  13
BRANCH  12  15
ATOM     15  C   UNL     1       2.084   1.808  18.903  0.00  0.00    +0.000 C 
ATOM     16  C   UNL     1       0.628   2.241  18.816  0.00  0.00    +0.000 C 
ENDBRANCH  12  15
ENDBRANCH   3  10
BRANCH   1  17
ATOM     17  C   UNL     1       5.919   4.697  16.803  0.00  0.00    +0.000 C 
BRANCH  17  18
ATOM     18  N   UNL     1       7.272   4.389  17.281  0.00  0.00    +0.000 NA
ATOM     19  H   UNL     1       7.329   4.567  18.281  0.00  0.00    +0.000 HD
ATOM     20  H   UNL     1       7.923   5.039  16.843  0.00  0.00    +0.000 HD
ENDBRANCH  17  18
BRANCH  17  21
ATOM     21  C   UNL     1       5.968   5.492  15.477  0.00  0.00    +0.000 C 
BRANCH  21  23
ATOM     22  C   UNL     1       5.998   3.835  13.564  0.00  0.00    +0.000 C 
ATOM     23  C   UNL     1       6.814   4.819  14.392  0.00  0.00    +0.000 C 
ENDBRANCH  21  23
ENDBRANCH  17  21
ENDBRANCH   1  17
TORSDOF 8
ENDMDL
MODEL 8
REMARK VINA RESULT:      -6.4      1.674      5.052
REMARK  Name = 
REMARK  11 active torsions:
REMARK  status: ('A' for Active; 'I' for Inactive)
REMARK    1  A    between atoms: C_1  and  C_2
REMARK    2  A    between atoms: C_2  and  C_3
REMARK    3  A    between atoms: C_3  and  C_4
REMARK    4  A    between atoms: C_4  and  N_5
REMARK    5  A    between atoms: C_4  and  C_6
REMARK    6  A    between atoms: C_8  and  C_9
REMARK    7  A    between atoms: C_8  and  C_16
REMARK    8  A    between atoms: N_11  and  C_12
REMARK    9  A    between atoms: N_11  and  C_14
REMARK   10  A    between atoms: C_12  and  C_13
REMARK   11  A    between atoms: C_14  and  C_15
REMARK                            x       y       z     vdW  Elec       q    Type
REMARK                         _______ _______ _______ _____ _____    ______ ____
ROOT
ATOM      1  C   UNL     1       4.346   5.987  18.194  0.00  0.00    +0.000 C 
ATOM      2  C   UNL     1       4.248   5.536  19.621  0.00  0.00    +0.000 C 
ATOM      3  C   UNL     1       2.952   5.907  18.902  0.00  0.00    +0.000 C 
ENDROOT
BRANCH   3   4
ATOM      4  C   UNL     1       2.338   7.311  19.022  0.00  0.00    +0.000 A 
ATOM      5  C   UNL     1       1.822   7.754  20.253  0.00  0.00    +0.000 A 
ATOM      6  C   UNL     1       1.110   8.950  20.355  0.00  0.00    +0.000 A 
ATOM      7  C   UNL     1       0.901   9.734  19.221  0.00  0.00    +0.000 A 
ATOM      8  C   UNL     1       1.455   9.352  18.006  0.00  0.00    +0.000 A 
ATOM      9  C   UNL     1       2.176   8.159  17.913  0.00  0.00    +0.000 A 
ENDBRANCH   3   4
BRANCH   3  10
ATOM     10  C   UNL     1       1.991   4.774  18.590  0.00  0.00    +0.000 C 
ATOM     11  O   UNL     1       1.515   4.713  17.456  0.00  0.00    +0.000 OA
ATOM     12  N   UNL     1       1.618   3.858  19.604  0.00  0.00    +0.000 N 
BRANCH  12  13
ATOM     13  C   UNL     1       1.853   4.138  21.023  0.00  0.00    +0.000 C 
ATOM     14  C   UNL     1       2.233   2.941  21.888  0.00  0.00    +0.000 C 
ENDBRANCH  12  13
BRANCH  12  15
ATOM     15  C   UNL     1       0.536   2.941  19.234  0.00  0.00    +0.000 C 
ATOM     16  C   UNL     1       1.057   1.642  18.635  0.00  0.00    +0.000 C 
ENDBRANCH  12  15
ENDBRANCH   3  10
BRANCH   1  17
ATOM     17  C   UNL     1       4.829   5.063  17.106  0.00  0.00    +0.000 C 
BRANCH  17  18
ATOM     18  N   UNL     1       5.510   3.953  17.783  0.00  0.00    +0.000 NA
ATOM     19  H   UNL     1       5.613   4.169  18.772  0.00  0.00    +0.000 HD
ATOM     20  H   UNL     1       6.457   3.882  17.412  0.00  0.00    +0.000 HD
ENDBRANCH  17  18
BRANCH  17  21
ATOM     21  C   UNL     1       5.795   5.803  16.151  0.00  0.00    +0.000 C 
BRANCH  21  23
ATOM     22  C   UNL     1       7.481   7.215  17.406  0.00  0.00    +0.000 C 
ATOM     23  C   UNL     1       7.228   5.898  16.683  0.00  0.00    +0.000 C 
ENDBRANCH  21  23
ENDBRANCH  17  21
ENDBRANCH   1  17
TORSDOF 8
ENDMDL
MODEL 9
REMARK VINA RESULT:      -6.3      1.369      4.880
REMARK  Name = 
REMARK  11 active torsions:
REMARK  status: ('A' for Active; 'I' for Inactive)
REMARK    1  A    between atoms: C_1  and  C_2
REMARK    2  A    between atoms: C_2  and  C_3
REMARK    3  A    between atoms: C_3  and  C_4
REMARK    4  A    between atoms: C_4  and  N_5
REMARK    5  A    between atoms: C_4  and  C_6
REMARK    6  A    between atoms: C_8  and  C_9
REMARK    7  A    between atoms: C_8  and  C_16
REMARK    8  A    between atoms: N_11  and  C_12
REMARK    9  A    between atoms: N_11  and  C_14
REMARK   10  A    between atoms: C_12  and  C_13
REMARK   11  A    between atoms: C_14  and  C_15
REMARK                            x       y       z     vdW  Elec       q    Type
REMARK                         _______ _______ _______ _____ _____    ______ ____
ROOT
ATOM      1  C   UNL     1       5.088   5.890  18.355  0.00  0.00    +0.000 C 
ATOM      2  C   UNL     1       4.873   5.284  19.711  0.00  0.00    +0.000 C 
ATOM      3  C   UNL     1       3.651   5.468  18.811  0.00  0.00    +0.000 C 
ENDROOT
BRANCH   3   4
ATOM      4  C   UNL     1       2.747   6.705  18.924  0.00  0.00    +0.000 A 
ATOM      5  C   UNL     1       2.592   7.570  17.825  0.00  0.00    +0.000 A 
ATOM      6  C   UNL     1       1.916   8.785  17.946  0.00  0.00    +0.000 A 
ATOM      7  C   UNL     1       1.375   9.161  19.175  0.00  0.00    +0.000 A 
ATOM      8  C   UNL     1       1.458   8.297  20.260  0.00  0.00    +0.000 A 
ATOM      9  C   UNL     1       2.126   7.078  20.129  0.00  0.00    +0.000 A 
ENDBRANCH   3   4
BRANCH   3  10
ATOM     10  C   UNL     1       3.005   4.208  18.263  0.00  0.00    +0.000 C 
ATOM     11  O   UNL     1       2.545   4.242  17.122  0.00  0.00    +0.000 OA
ATOM     12  N   UNL     1       2.893   3.055  19.078  0.00  0.00    +0.000 N 
BRANCH  12  13
ATOM     13  C   UNL     1       3.069   3.115  20.532  0.00  0.00    +0.000 C 
ATOM     14  C   UNL     1       1.857   3.573  21.335  0.00  0.00    +0.000 C 
ENDBRANCH  12  13
BRANCH  12  15
ATOM     15  C   UNL     1       2.075   1.980  18.509  0.00  0.00    +0.000 C 
ATOM     16  C   UNL     1       0.586   2.204  18.731  0.00  0.00    +0.000 C 
ENDBRANCH  12  15
ENDBRANCH   3  10
BRANCH   1  17
ATOM     17  C   UNL     1       5.911   5.195  17.302  0.00  0.00    +0.000 C 
BRANCH  17  18
ATOM     18  N   UNL     1       6.486   4.008  17.948  0.00  0.00    +0.000 NA
ATOM     19  H   UNL     1       7.494   3.999  17.808  0.00  0.00    +0.000 HD
ATOM     20  H   UNL     1       6.130   3.179  17.474  0.00  0.00    +0.000 HD
ENDBRANCH  17  18
BRANCH  17  21
ATOM     21  C   UNL     1       7.024   6.130  16.774  0.00  0.00    +0.000 C 
BRANCH  21  23
ATOM     22  C   UNL     1       7.771   8.402  17.604  0.00  0.00    +0.000 C 
ATOM     23  C   UNL     1       7.748   6.905  17.880  0.00  0.00    +0.000 C 
ENDBRANCH  21  23
ENDBRANCH  17  21
ENDBRANCH   1  17
TORSDOF 8
ENDMDL
