MODEL 1
REMARK VINA RESULT:      -8.2      0.000      0.000
REMARK  Name = 
REMARK  10 active torsions:
REMARK  status: ('A' for Active; 'I' for Inactive)
REMARK    1  A    between atoms: C_1  and  O_2
REMARK    2  A    between atoms: O_2  and  C_3
REMARK    3  A    between atoms: N_7  and  C_8
REMARK    4  A    between atoms: C_8  and  C_9
REMARK    5  A    between atoms: C_9  and  C_10
REMARK    6  A    between atoms: C_10  and  C_11
REMARK    7  A    between atoms: C_11  and  O_12
REMARK    8  A    between atoms: O_12  and  C_13
REMARK    9  A    between atoms: C_18  and  C_19
REMARK   10  A    between atoms: C_20  and  C_21
REMARK                            x       y       z     vdW  Elec       q    Type
REMARK                         _______ _______ _______ _____ _____    ______ ____
ROOT
ATOM      1  C   UNL     1       6.973   4.832  16.405  0.00  0.00    +0.000 A 
ATOM      2  C   UNL     1       7.604   4.984  15.159  0.00  0.00    +0.000 A 
ATOM      3  C   UNL     1       6.909   4.763  13.970  0.00  0.00    +0.000 A 
ATOM      4  C   UNL     1       5.578   4.379  14.013  0.00  0.00    +0.000 A 
ATOM      5  C   UNL     1       4.947   4.188  15.245  0.00  0.00    +0.000 A 
ATOM      6  C   UNL     1       5.630   4.406  16.457  0.00  0.00    +0.000 A 
ENDROOT
BRANCH   6   7
ATOM      7  C   UNL     1       4.919   4.009  17.690  0.00  0.00    +0.000 C 
ATOM      8  C   UNL     1       3.652   3.574  17.768  0.00  0.00    +0.000 C 
BRANCH   8   9
ATOM      9  C   UNL     1       2.921   3.400  19.039  0.00  0.00    +0.000 A 
ATOM     10  C   UNL     1       3.596   2.787  20.107  0.00  0.00    +0.000 A 
ATOM     11  C   UNL     1       2.930   2.484  21.297  0.00  0.00    +0.000 A 
ATOM     12  C   UNL     1       1.587   2.808  21.430  0.00  0.00    +0.000 A 
ATOM     13  F   UNL     1       0.937   2.484  22.555  0.00  0.00    +0.000 F 
ATOM     14  C   UNL     1       0.907   3.456  20.408  0.00  0.00    +0.000 A 
ATOM     15  C   UNL     1       1.576   3.764  19.219  0.00  0.00    +0.000 A 
ENDBRANCH   8   9
ENDBRANCH   6   7
BRANCH   1  16
ATOM     16  O   UNL     1       7.664   5.009  17.585  0.00  0.00    +0.000 OA
BRANCH  16  17
ATOM     17  C   UNL     1       7.301   6.200  18.296  0.00  0.00    +0.000 C 
BRANCH  17  18
ATOM     18  C   UNL     1       7.756   7.420  17.508  0.00  0.00    +0.000 C 
BRANCH  18  19
ATOM     19  C   UNL     1       8.303   8.535  18.410  0.00  0.00    +0.000 C 
BRANCH  19  20
ATOM     20  C   UNL     1       8.492   9.874  17.678  0.00  0.00    +0.000 C 
BRANCH  20  25
ATOM     21  C   UNL     1       9.719  13.310  18.808  0.00  0.00    +0.000 C 
ATOM     22  C   UNL     1       9.865  13.045  20.308  0.00  0.00    +0.000 C 
ATOM     23  C   UNL     1      10.187  11.592  20.637  0.00  0.00    +0.000 C 
ATOM     24  C   UNL     1       9.326  10.592  19.859  0.00  0.00    +0.000 C 
ATOM     25  N   UNL     1       9.338  10.832  18.410  0.00  0.00    +0.000 NA
ATOM     26  C   UNL     1       8.898  12.212  18.102  0.00  0.00    +0.000 C 
BRANCH  21  28
ATOM     27  C   UNL     1      11.430  12.738  17.171  0.00  0.00    +0.000 C 
ATOM     28  O   UNL     1      10.943  13.646  18.142  0.00  0.00    +0.000 OA
ENDBRANCH  21  28
ENDBRANCH  20  25
ENDBRANCH  19  20
ENDBRANCH  18  19
ENDBRANCH  17  18
ENDBRANCH  16  17
ENDBRANCH   1  16
TORSDOF 9
ENDMDL
MODEL 2
REMARK VINA RESULT:      -8.0      1.289      2.050
REMARK  Name = 
REMARK  10 active torsions:
REMARK  status: ('A' for Active; 'I' for Inactive)
REMARK    1  A    between atoms: C_1  and  O_2
REMARK    2  A    between atoms: O_2  and  C_3
REMARK    3  A    between atoms: N_7  and  C_8
REMARK    4  A    between atoms: C_8  and  C_9
REMARK    5  A    between atoms: C_9  and  C_10
REMARK    6  A    between atoms: C_10  and  C_11
REMARK    7  A    between atoms: C_11  and  O_12
REMARK    8  A    between atoms: O_12  and  C_13
REMARK    9  A    between atoms: C_18  and  C_19
REMARK   10  A    between atoms: C_20  and  C_21
REMARK                            x       y       z     vdW  Elec       q    Type
REMARK                         _______ _______ _______ _____ _____    ______ ____
ROOT
ATOM      1  C   UNL     1       7.027   4.990  15.180  0.00  0.00    +0.000 A 
ATOM      2  C   UNL     1       7.843   5.317  14.084  0.00  0.00    +0.000 A 
ATOM      3  C   UNL     1       7.529   4.875  12.798  0.00  0.00    +0.000 A 
ATOM      4  C   UNL     1       6.402   4.095  12.595  0.00  0.00    +0.000 A 
ATOM      5  C   UNL     1       5.602   3.730  13.682  0.00  0.00    +0.000 A 
ATOM      6  C   UNL     1       5.900   4.165  14.987  0.00  0.00    +0.000 A 
ENDROOT
BRANCH   6   7
ATOM      7  C   UNL     1       5.088   3.580  16.074  0.00  0.00    +0.000 C 
ATOM      8  C   UNL     1       4.041   4.162  16.681  0.00  0.00    +0.000 C 
BRANCH   8   9
ATOM      9  C   UNL     1       3.404   3.632  17.903  0.00  0.00    +0.000 A 
ATOM     10  C   UNL     1       2.005   3.506  17.912  0.00  0.00    +0.000 A 
ATOM     11  C   UNL     1       1.327   3.124  19.073  0.00  0.00    +0.000 A 
ATOM     12  C   UNL     1       2.049   2.853  20.227  0.00  0.00    +0.000 A 
ATOM     13  F   UNL     1       1.399   2.525  21.351  0.00  0.00    +0.000 F 
ATOM     14  C   UNL     1       3.435   2.925  20.234  0.00  0.00    +0.000 A 
ATOM     15  C   UNL     1       4.112   3.302  19.069  0.00  0.00    +0.000 A 
ENDBRANCH   8   9
ENDBRANCH   6   7
BRANCH   1  16
ATOM     16  O   UNL     1       7.353   5.388  16.459  0.00  0.00    +0.000 OA
BRANCH  16  17
ATOM     17  C   UNL     1       6.895   6.705  16.791  0.00  0.00    +0.000 C 
BRANCH  17  18
ATOM     18  C   UNL     1       7.725   7.257  17.940  0.00  0.00    +0.000 C 
BRANCH  18  19
ATOM     19  C   UNL     1       7.945   8.772  17.836  0.00  0.00    +0.000 C 
BRANCH  19  20
ATOM     20  C   UNL     1       8.984   9.308  18.835  0.00  0.00    +0.000 C 
BRANCH  20  25
ATOM     21  C   UNL     1       9.566  12.776  20.326  0.00  0.00    +0.000 C 
ATOM     22  C   UNL     1      10.488  13.360  19.253  0.00  0.00    +0.000 C 
ATOM     23  C   UNL     1      10.246  12.779  17.866  0.00  0.00    +0.000 C 
ATOM     24  C   UNL     1      10.098  11.254  17.867  0.00  0.00    +0.000 C 
ATOM     25  N   UNL     1       9.102  10.776  18.833  0.00  0.00    +0.000 NA
ATOM     26  C   UNL     1       9.426  11.245  20.200  0.00  0.00    +0.000 C 
BRANCH  21  28
ATOM     27  C   UNL     1       8.281  14.835  20.114  0.00  0.00    +0.000 C 
ATOM     28  O   UNL     1       8.320  13.467  20.480  0.00  0.00    +0.000 OA
ENDBRANCH  21  28
ENDBRANCH  20  25
ENDBRANCH  19  20
ENDBRANCH  18  19
ENDBRANCH  17  18
ENDBRANCH  16  17
ENDBRANCH   1  16
TORSDOF 9
ENDMDL
MODEL 3
REMARK VINA RESULT:      -7.9      5.916      8.645
REMARK  Name = 
REMARK  10 active torsions:
REMARK  status: ('A' for Active; 'I' for Inactive)
REMARK    1  A    between atoms: C_1  and  O_2
REMARK    2  A    between atoms: O_2  and  C_3
REMARK    3  A    between atoms: N_7  and  C_8
REMARK    4  A    between atoms: C_8  and  C_9
REMARK    5  A    between atoms: C_9  and  C_10
REMARK    6  A    between atoms: C_10  and  C_11
REMARK    7  A    between atoms: C_11  and  O_12
REMARK    8  A    between atoms: O_12  and  C_13
REMARK    9  A    between atoms: C_18  and  C_19
REMARK   10  A    between atoms: C_20  and  C_21
REMARK                            x       y       z     vdW  Elec       q    Type
REMARK                         _______ _______ _______ _____ _____    ______ ____
ROOT
ATOM      1  C   UNL     1       2.069   4.657  18.728  0.00  0.00    +0.000 A 
ATOM      2  C   UNL     1       1.213   4.396  19.811  0.00  0.00    +0.000 A 
ATOM      3  C   UNL     1       1.214   3.153  20.443  0.00  0.00    +0.000 A 
ATOM      4  C   UNL     1       2.062   2.153  19.995  0.00  0.00    +0.000 A 
ATOM      5  C   UNL     1       2.893   2.386  18.895  0.00  0.00    +0.000 A 
ATOM      6  C   UNL     1       2.909   3.633  18.242  0.00  0.00    +0.000 A 
ENDROOT
BRANCH   6   7
ATOM      7  C   UNL     1       3.695   3.710  16.994  0.00  0.00    +0.000 C 
ATOM      8  C   UNL     1       5.002   4.000  16.898  0.00  0.00    +0.000 C 
BRANCH   8   9
ATOM      9  C   UNL     1       5.688   4.279  15.620  0.00  0.00    +0.000 A 
ATOM     10  C   UNL     1       5.205   3.646  14.463  0.00  0.00    +0.000 A 
ATOM     11  C   UNL     1       5.877   3.771  13.244  0.00  0.00    +0.000 A 
ATOM     12  C   UNL     1       7.028   4.542  13.175  0.00  0.00    +0.000 A 
ATOM     13  F   UNL     1       7.695   4.631  12.017  0.00  0.00    +0.000 F 
ATOM     14  C   UNL     1       7.502   5.216  14.292  0.00  0.00    +0.000 A 
ATOM     15  C   UNL     1       6.825   5.095  15.510  0.00  0.00    +0.000 A 
ENDBRANCH   8   9
ENDBRANCH   6   7
BRANCH   1  16
ATOM     16  O   UNL     1       2.046   5.869  18.072  0.00  0.00    +0.000 OA
BRANCH  16  17
ATOM     17  C   UNL     1       2.541   6.963  18.857  0.00  0.00    +0.000 C 
BRANCH  17  18
ATOM     18  C   UNL     1       2.822   8.152  17.950  0.00  0.00    +0.000 C 
BRANCH  18  19
ATOM     19  C   UNL     1       1.579   9.020  17.712  0.00  0.00    +0.000 C 
BRANCH  19  20
ATOM     20  C   UNL     1       1.182   9.864  18.934  0.00  0.00    +0.000 C 
BRANCH  20  25
ATOM     21  C   UNL     1      -1.801  12.243  19.115  0.00  0.00    +0.000 C 
ATOM     22  C   UNL     1      -2.647  11.674  17.974  0.00  0.00    +0.000 C 
ATOM     23  C   UNL     1      -2.433  10.182  17.749  0.00  0.00    +0.000 C 
ATOM     24  C   UNL     1      -0.957   9.775  17.758  0.00  0.00    +0.000 C 
ATOM     25  N   UNL     1      -0.240  10.248  18.948  0.00  0.00    +0.000 NA
ATOM     26  C   UNL     1      -0.351  11.719  19.080  0.00  0.00    +0.000 C 
BRANCH  21  28
ATOM     27  C   UNL     1      -1.568  12.171  21.540  0.00  0.00    +0.000 C 
ATOM     28  O   UNL     1      -2.418  12.171  20.407  0.00  0.00    +0.000 OA
ENDBRANCH  21  28
ENDBRANCH  20  25
ENDBRANCH  19  20
ENDBRANCH  18  19
ENDBRANCH  17  18
ENDBRANCH  16  17
ENDBRANCH   1  16
TORSDOF 9
ENDMDL
MODEL 4
REMARK VINA RESULT:      -7.8      6.024      8.642
REMARK  Name = 
REMARK  10 active torsions:
REMARK  status: ('A' for Active; 'I' for Inactive)
REMARK    1  A    between atoms: C_1  and  O_2
REMARK    2  A    between atoms: O_2  and  C_3
REMARK    3  A    between atoms: N_7  and  C_8
REMARK    4  A    between atoms: C_8  and  C_9
REMARK    5  A    between atoms: C_9  and  C_10
REMARK    6  A    between atoms: C_10  and  C_11
REMARK    7  A    between atoms: C_11  and  O_12
REMARK    8  A    between atoms: O_12  and  C_13
REMARK    9  A    between atoms: C_18  and  C_19
REMARK   10  A    between atoms: C_20  and  C_21
REMARK                            x       y       z     vdW  Elec       q    Type
REMARK                         _______ _______ _______ _____ _____    ______ ____
ROOT
ATOM      1  C   UNL     1       2.697   5.309  19.670  0.00  0.00    +0.000 A 
ATOM      2  C   UNL     1       1.734   4.954  20.629  0.00  0.00    +0.000 A 
ATOM      3  C   UNL     1       1.236   3.652  20.698  0.00  0.00    +0.000 A 
ATOM      4  C   UNL     1       1.686   2.694  19.804  0.00  0.00    +0.000 A 
ATOM      5  C   UNL     1       2.616   3.043  18.820  0.00  0.00    +0.000 A 
ATOM      6  C   UNL     1       3.132   4.349  18.732  0.00  0.00    +0.000 A 
ENDROOT
BRANCH   6   7
ATOM      7  C   UNL     1       3.973   4.644  17.554  0.00  0.00    +0.000 C 
ATOM      8  C   UNL     1       4.451   3.746  16.678  0.00  0.00    +0.000 C 
BRANCH   8   9
ATOM      9  C   UNL     1       5.462   4.062  15.649  0.00  0.00    +0.000 A 
ATOM     10  C   UNL     1       6.612   4.760  16.051  0.00  0.00    +0.000 A 
ATOM     11  C   UNL     1       7.552   5.195  15.112  0.00  0.00    +0.000 A 
ATOM     12  C   UNL     1       7.350   4.919  13.766  0.00  0.00    +0.000 A 
ATOM     13  F   UNL     1       8.229   5.369  12.861  0.00  0.00    +0.000 F 
ATOM     14  C   UNL     1       6.245   4.191  13.346  0.00  0.00    +0.000 A 
ATOM     15  C   UNL     1       5.309   3.752  14.288  0.00  0.00    +0.000 A 
ENDBRANCH   8   9
ENDBRANCH   6   7
BRANCH   1  16
ATOM     16  O   UNL     1       3.165   6.601  19.569  0.00  0.00    +0.000 OA
BRANCH  16  17
ATOM     17  C   UNL     1       2.150   7.562  19.249  0.00  0.00    +0.000 C 
BRANCH  17  18
ATOM     18  C   UNL     1       2.621   8.433  18.093  0.00  0.00    +0.000 C 
BRANCH  18  19
ATOM     19  C   UNL     1       1.608   9.525  17.726  0.00  0.00    +0.000 C 
BRANCH  19  20
ATOM     20  C   UNL     1       1.178  10.385  18.926  0.00  0.00    +0.000 C 
BRANCH  20  25
ATOM     21  C   UNL     1      -2.094  12.315  19.325  0.00  0.00    +0.000 C 
ATOM     22  C   UNL     1      -2.919  11.644  18.225  0.00  0.00    +0.000 C 
ATOM     23  C   UNL     1      -2.511  10.200  17.961  0.00  0.00    +0.000 C 
ATOM     24  C   UNL     1      -0.994  10.005  17.876  0.00  0.00    +0.000 C 
ATOM     25  N   UNL     1      -0.280  10.563  19.030  0.00  0.00    +0.000 NA
ATOM     26  C   UNL     1      -0.589  12.003  19.195  0.00  0.00    +0.000 C 
BRANCH  21  28
ATOM     27  C   UNL     1      -1.804  12.563  21.732  0.00  0.00    +0.000 C 
ATOM     28  O   UNL     1      -2.615  12.143  20.649  0.00  0.00    +0.000 OA
ENDBRANCH  21  28
ENDBRANCH  20  25
ENDBRANCH  19  20
ENDBRANCH  18  19
ENDBRANCH  17  18
ENDBRANCH  16  17
ENDBRANCH   1  16
TORSDOF 9
ENDMDL
MODEL 5
REMARK VINA RESULT:      -7.8      5.699      8.340
REMARK  Name = 
REMARK  10 active torsions:
REMARK  status: ('A' for Active; 'I' for Inactive)
REMARK    1  A    between atoms: C_1  and  O_2
REMARK    2  A    between atoms: O_2  and  C_3
REMARK    3  A    between atoms: N_7  and  C_8
REMARK    4  A    between atoms: C_8  and  C_9
REMARK    5  A    between atoms: C_9  and  C_10
REMARK    6  A    between atoms: C_10  and  C_11
REMARK    7  A    between atoms: C_11  and  O_12
REMARK    8  A    between atoms: O_12  and  C_13
REMARK    9  A    between atoms: C_18  and  C_19
REMARK   10  A    between atoms: C_20  and  C_21
REMARK                            x       y       z     vdW  Elec       q    Type
REMARK                         _______ _______ _______ _____ _____    ______ ____
ROOT
ATOM      1  C   UNL     1       2.678   4.936  19.692  0.00  0.00    +0.000 A 
ATOM      2  C   UNL     1       1.606   4.512  20.495  0.00  0.00    +0.000 A 
ATOM      3  C   UNL     1       1.059   3.238  20.346  0.00  0.00    +0.000 A 
ATOM      4  C   UNL     1       1.569   2.377  19.388  0.00  0.00    +0.000 A 
ATOM      5  C   UNL     1       2.612   2.799  18.557  0.00  0.00    +0.000 A 
ATOM      6  C   UNL     1       3.179   4.080  18.690  0.00  0.00    +0.000 A 
ENDROOT
BRANCH   6   7
ATOM      7  C   UNL     1       4.152   4.477  17.652  0.00  0.00    +0.000 C 
ATOM      8  C   UNL     1       4.256   3.949  16.422  0.00  0.00    +0.000 C 
BRANCH   8   9
ATOM      9  C   UNL     1       5.379   4.225  15.504  0.00  0.00    +0.000 A 
ATOM     10  C   UNL     1       6.483   4.932  16.010  0.00  0.00    +0.000 A 
ATOM     11  C   UNL     1       7.526   5.330  15.168  0.00  0.00    +0.000 A 
ATOM     12  C   UNL     1       7.475   5.010  13.819  0.00  0.00    +0.000 A 
ATOM     13  F   UNL     1       8.454   5.424  13.004  0.00  0.00    +0.000 F 
ATOM     14  C   UNL     1       6.419   4.273  13.301  0.00  0.00    +0.000 A 
ATOM     15  C   UNL     1       5.379   3.870  14.145  0.00  0.00    +0.000 A 
ENDBRANCH   8   9
ENDBRANCH   6   7
BRANCH   1  16
ATOM     16  O   UNL     1       3.198   6.208  19.805  0.00  0.00    +0.000 OA
BRANCH  16  17
ATOM     17  C   UNL     1       2.212   7.246  19.738  0.00  0.00    +0.000 C 
BRANCH  17  18
ATOM     18  C   UNL     1       2.169   7.816  18.327  0.00  0.00    +0.000 C 
BRANCH  18  19
ATOM     19  C   UNL     1       1.869   9.320  18.306  0.00  0.00    +0.000 C 
BRANCH  19  20
ATOM     20  C   UNL     1       0.442   9.651  17.836  0.00  0.00    +0.000 C 
BRANCH  20  25
ATOM     21  C   UNL     1      -0.299  11.376  21.162  0.00  0.00    +0.000 C 
ATOM     22  C   UNL     1      -1.264  12.459  20.675  0.00  0.00    +0.000 C 
ATOM     23  C   UNL     1      -2.057  12.050  19.439  0.00  0.00    +0.000 C 
ATOM     24  C   UNL     1      -1.197  11.384  18.362  0.00  0.00    +0.000 C 
ATOM     25  N   UNL     1      -0.393  10.269  18.879  0.00  0.00    +0.000 NA
ATOM     26  C   UNL     1       0.468  10.716  19.998  0.00  0.00    +0.000 C 
BRANCH  21  28
ATOM     27  C   UNL     1       0.019   9.744  22.943  0.00  0.00    +0.000 C 
ATOM     28  O   UNL     1      -0.869  10.445  22.090  0.00  0.00    +0.000 OA
ENDBRANCH  21  28
ENDBRANCH  20  25
ENDBRANCH  19  20
ENDBRANCH  18  19
ENDBRANCH  17  18
ENDBRANCH  16  17
ENDBRANCH   1  16
TORSDOF 9
ENDMDL
MODEL 6
REMARK VINA RESULT:      -7.8      6.042      8.186
REMARK  Name = 
REMARK  10 active torsions:
REMARK  status: ('A' for Active; 'I' for Inactive)
REMARK    1  A    between atoms: C_1  and  O_2
REMARK    2  A    between atoms: O_2  and  C_3
REMARK    3  A    between atoms: N_7  and  C_8
REMARK    4  A    between atoms: C_8  and  C_9
REMARK    5  A    between atoms: C_9  and  C_10
REMARK    6  A    between atoms: C_10  and  C_11
REMARK    7  A    between atoms: C_11  and  O_12
REMARK    8  A    between atoms: O_12  and  C_13
REMARK    9  A    between atoms: C_18  and  C_19
REMARK   10  A    between atoms: C_20  and  C_21
REMARK                            x       y       z     vdW  Elec       q    Type
REMARK                         _______ _______ _______ _____ _____    ______ ____
ROOT
ATOM      1  C   UNL     1       2.555   5.243  19.656  0.00  0.00    +0.000 A 
ATOM      2  C   UNL     1       1.532   4.882  20.549  0.00  0.00    +0.000 A 
ATOM      3  C   UNL     1       0.958   3.612  20.507  0.00  0.00    +0.000 A 
ATOM      4  C   UNL     1       1.392   2.690  19.567  0.00  0.00    +0.000 A 
ATOM      5  C   UNL     1       2.384   3.048  18.648  0.00  0.00    +0.000 A 
ATOM      6  C   UNL     1       2.977   4.324  18.673  0.00  0.00    +0.000 A 
ENDROOT
BRANCH   6   7
ATOM      7  C   UNL     1       3.885   4.646  17.553  0.00  0.00    +0.000 C 
ATOM      8  C   UNL     1       4.340   3.784  16.630  0.00  0.00    +0.000 C 
BRANCH   8   9
ATOM      9  C   UNL     1       5.412   4.104  15.667  0.00  0.00    +0.000 A 
ATOM     10  C   UNL     1       6.528   4.817  16.138  0.00  0.00    +0.000 A 
ATOM     11  C   UNL     1       7.521   5.255  15.259  0.00  0.00    +0.000 A 
ATOM     12  C   UNL     1       7.411   4.970  13.906  0.00  0.00    +0.000 A 
ATOM     13  F   UNL     1       8.342   5.424  13.056  0.00  0.00    +0.000 F 
ATOM     14  C   UNL     1       6.343   4.229  13.419  0.00  0.00    +0.000 A 
ATOM     15  C   UNL     1       5.351   3.785  14.301  0.00  0.00    +0.000 A 
ENDBRANCH   8   9
ENDBRANCH   6   7
BRANCH   1  16
ATOM     16  O   UNL     1       3.100   6.509  19.664  0.00  0.00    +0.000 OA
BRANCH  16  17
ATOM     17  C   UNL     1       2.142   7.554  19.452  0.00  0.00    +0.000 C 
BRANCH  17  18
ATOM     18  C   UNL     1       2.244   8.054  18.018  0.00  0.00    +0.000 C 
BRANCH  18  19
ATOM     19  C   UNL     1       1.898   9.543  17.887  0.00  0.00    +0.000 C 
BRANCH  19  20
ATOM     20  C   UNL     1       0.399   9.839  18.060  0.00  0.00    +0.000 C 
BRANCH  20  25
ATOM     21  C   UNL     1      -1.122  12.037  20.788  0.00  0.00    +0.000 C 
ATOM     22  C   UNL     1       0.110  12.863  21.163  0.00  0.00    +0.000 C 
ATOM     23  C   UNL     1       1.087  13.049  20.008  0.00  0.00    +0.000 C 
ATOM     24  C   UNL     1       1.356  11.758  19.230  0.00  0.00    +0.000 C 
ATOM     25  N   UNL     1       0.126  11.087  18.791  0.00  0.00    +0.000 NA
ATOM     26  C   UNL     1      -0.756  10.798  19.946  0.00  0.00    +0.000 C 
BRANCH  21  28
ATOM     27  C   UNL     1      -2.483  14.057  20.860  0.00  0.00    +0.000 C 
ATOM     28  O   UNL     1      -2.213  12.802  20.260  0.00  0.00    +0.000 OA
ENDBRANCH  21  28
ENDBRANCH  20  25
ENDBRANCH  19  20
ENDBRANCH  18  19
ENDBRANCH  17  18
ENDBRANCH  16  17
ENDBRANCH   1  16
TORSDOF 9
ENDMDL
MODEL 7
REMARK VINA RESULT:      -7.7      1.135      1.806
REMARK  Name = 
REMARK  10 active torsions:
REMARK  status: ('A' for Active; 'I' for Inactive)
REMARK    1  A    between atoms: C_1  and  O_2
REMARK    2  A    between atoms: O_2  and  C_3
REMARK    3  A    between atoms: N_7  and  C_8
REMARK    4  A    between atoms: C_8  and  C_9
REMARK    5  A    between atoms: C_9  and  C_10
REMARK    6  A    between atoms: C_10  and  C_11
REMARK    7  A    between atoms: C_11  and  O_12
REMARK    8  A    between atoms: O_12  and  C_13
REMARK    9  A    between atoms: C_18  and  C_19
REMARK   10  A    between atoms: C_20  and  C_21
REMARK                            x       y       z     vdW  Elec       q    Type
REMARK                         _______ _______ _______ _____ _____    ______ ____
ROOT
ATOM      1  C   UNL     1       6.428   5.375  16.299  0.00  0.00    +0.000 A 
ATOM      2  C   UNL     1       7.272   5.629  15.205  0.00  0.00    +0.000 A 
ATOM      3  C   UNL     1       7.136   4.917  14.013  0.00  0.00    +0.000 A 
ATOM      4  C   UNL     1       6.162   3.937  13.904  0.00  0.00    +0.000 A 
ATOM      5  C   UNL     1       5.340   3.647  14.997  0.00  0.00    +0.000 A 
ATOM      6  C   UNL     1       5.459   4.354  16.209  0.00  0.00    +0.000 A 
ENDROOT
BRANCH   6   7
ATOM      7  C   UNL     1       4.658   3.849  17.343  0.00  0.00    +0.000 C 
ATOM      8  C   UNL     1       3.412   4.229  17.663  0.00  0.00    +0.000 C 
BRANCH   8   9
ATOM      9  C   UNL     1       2.740   3.860  18.926  0.00  0.00    +0.000 A 
ATOM     10  C   UNL     1       3.495   3.182  19.897  0.00  0.00    +0.000 A 
ATOM     11  C   UNL     1       2.894   2.699  21.063  0.00  0.00    +0.000 A 
ATOM     12  C   UNL     1       1.538   2.906  21.268  0.00  0.00    +0.000 A 
ATOM     13  F   UNL     1       0.952   2.410  22.366  0.00  0.00    +0.000 F 
ATOM     14  C   UNL     1       0.778   3.613  20.346  0.00  0.00    +0.000 A 
ATOM     15  C   UNL     1       1.381   4.101  19.183  0.00  0.00    +0.000 A 
ENDBRANCH   8   9
ENDBRANCH   6   7
BRANCH   1  16
ATOM     16  O   UNL     1       6.581   6.045  17.494  0.00  0.00    +0.000 OA
BRANCH  16  17
ATOM     17  C   UNL     1       6.832   7.449  17.343  0.00  0.00    +0.000 C 
BRANCH  17  18
ATOM     18  C   UNL     1       8.236   7.770  17.838  0.00  0.00    +0.000 C 
BRANCH  18  19
ATOM     19  C   UNL     1       8.302   9.097  18.605  0.00  0.00    +0.000 C 
BRANCH  19  20
ATOM     20  C   UNL     1       8.904  10.248  17.782  0.00  0.00    +0.000 C 
BRANCH  20  25
ATOM     21  C   UNL     1      10.313  12.049  20.841  0.00  0.00    +0.000 C 
ATOM     22  C   UNL     1      11.229  13.056  20.141  0.00  0.00    +0.000 C 
ATOM     23  C   UNL     1      10.745  13.449  18.751  0.00  0.00    +0.000 C 
ATOM     24  C   UNL     1      10.293  12.253  17.908  0.00  0.00    +0.000 C 
ATOM     25  N   UNL     1       9.315  11.402  18.598  0.00  0.00    +0.000 NA
ATOM     26  C   UNL     1       9.855  10.924  19.892  0.00  0.00    +0.000 C 
BRANCH  21  28
ATOM     27  C   UNL     1       8.382  11.767  22.301  0.00  0.00    +0.000 C 
ATOM     28  O   UNL     1       9.253  12.640  21.604  0.00  0.00    +0.000 OA
ENDBRANCH  21  28
ENDBRANCH  20  25
ENDBRANCH  19  20
ENDBRANCH  18  19
ENDBRANCH  17  18
ENDBRANCH  16  17
ENDBRANCH   1  16
TORSDOF 9
ENDMDL
MODEL 8
REMARK VINA RESULT:      -7.7      3.334      3.976
REMARK  Name = 
REMARK  10 active torsions:
REMARK  status: ('A' for Active; 'I' for Inactive)
REMARK    1  A    between atoms: C_1  and  O_2
REMARK    2  A    between atoms: O_2  and  C_3
REMARK    3  A    between atoms: N_7  and  C_8
REMARK    4  A    between atoms: C_8  and  C_9
REMARK    5  A    between atoms: C_9  and  C_10
REMARK    6  A    between atoms: C_10  and  C_11
REMARK    7  A    between atoms: C_11  and  O_12
REMARK    8  A    between atoms: O_12  and  C_13
REMARK    9  A    between atoms: C_18  and  C_19
REMARK   10  A    between atoms: C_20  and  C_21
REMARK                            x       y       z     vdW  Elec       q    Type
REMARK                         _______ _______ _______ _____ _____    ______ ____
ROOT
ATOM      1  C   UNL     1       6.232   6.404  17.205  0.00  0.00    +0.000 A 
ATOM      2  C   UNL     1       7.143   5.627  16.470  0.00  0.00    +0.000 A 
ATOM      3  C   UNL     1       6.736   4.456  15.831  0.00  0.00    +0.000 A 
ATOM      4  C   UNL     1       5.416   4.043  15.926  0.00  0.00    +0.000 A 
ATOM      5  C   UNL     1       4.507   4.786  16.685  0.00  0.00    +0.000 A 
ATOM      6  C   UNL     1       4.897   5.971  17.337  0.00  0.00    +0.000 A 
ENDROOT
BRANCH   6   7
ATOM      7  C   UNL     1       3.901   6.577  18.245  0.00  0.00    +0.000 C 
ATOM      8  C   UNL     1       2.850   7.327  17.879  0.00  0.00    +0.000 C 
BRANCH   8   9
ATOM      9  C   UNL     1       2.014   8.088  18.830  0.00  0.00    +0.000 A 
ATOM     10  C   UNL     1       1.424   9.280  18.378  0.00  0.00    +0.000 A 
ATOM     11  C   UNL     1       0.721  10.109  19.256  0.00  0.00    +0.000 A 
ATOM     12  C   UNL     1       0.592   9.741  20.588  0.00  0.00    +0.000 A 
ATOM     13  F   UNL     1      -0.048  10.552  21.440  0.00  0.00    +0.000 F 
ATOM     14  C   UNL     1       1.126   8.546  21.051  0.00  0.00    +0.000 A 
ATOM     15  C   UNL     1       1.825   7.714  20.170  0.00  0.00    +0.000 A 
ENDBRANCH   8   9
ENDBRANCH   6   7
BRANCH   1  16
ATOM     16  O   UNL     1       6.635   7.540  17.873  0.00  0.00    +0.000 OA
BRANCH  16  17
ATOM     17  C   UNL     1       7.914   8.036  17.455  0.00  0.00    +0.000 C 
BRANCH  17  18
ATOM     18  C   UNL     1       8.083   9.472  17.932  0.00  0.00    +0.000 C 
BRANCH  18  19
ATOM     19  C   UNL     1       9.203   9.621  18.970  0.00  0.00    +0.000 C 
BRANCH  19  20
ATOM     20  C   UNL     1       9.240  11.010  19.630  0.00  0.00    +0.000 C 
BRANCH  20  25
ATOM     21  C   UNL     1       9.541  14.640  18.483  0.00  0.00    +0.000 C 
ATOM     22  C   UNL     1      10.800  14.529  17.621  0.00  0.00    +0.000 C 
ATOM     23  C   UNL     1      10.984  13.153  16.995  0.00  0.00    +0.000 C 
ATOM     24  C   UNL     1      10.740  12.004  17.978  0.00  0.00    +0.000 C 
ATOM     25  N   UNL     1       9.453  12.110  18.675  0.00  0.00    +0.000 NA
ATOM     26  C   UNL     1       9.344  13.406  19.386  0.00  0.00    +0.000 C 
BRANCH  21  28
ATOM     27  C   UNL     1       7.177  15.232  18.518  0.00  0.00    +0.000 C 
ATOM     28  O   UNL     1       8.363  15.036  17.768  0.00  0.00    +0.000 OA
ENDBRANCH  21  28
ENDBRANCH  20  25
ENDBRANCH  19  20
ENDBRANCH  18  19
ENDBRANCH  17  18
ENDBRANCH  16  17
ENDBRANCH   1  16
TORSDOF 9
ENDMDL
MODEL 9
REMARK VINA RESULT:      -7.7      6.062      8.470
REMARK  Name = 
REMARK  10 active torsions:
REMARK  status: ('A' for Active; 'I' for Inactive)
REMARK    1  A    between atoms: C_1  and  O_2
REMARK    2  A    between atoms: O_2  and  C_3
REMARK    3  A    between atoms: N_7  and  C_8
REMARK    4  A    between atoms: C_8  and  C_9
REMARK    5  A    between atoms: C_9  and  C_10
REMARK    6  A    between atoms: C_10  and  C_11
REMARK    7  A    between atoms: C_11  and  O_12
REMARK    8  A    between atoms: O_12  and  C_13
REMARK    9  A    between atoms: C_18  and  C_19
REMARK   10  A    between atoms: C_20  and  C_21
REMARK                            x       y       z     vdW  Elec       q    Type
REMARK                         _______ _______ _______ _____ _____    ______ ____
ROOT
ATOM      1  C   UNL     1       2.366   4.832  19.403  0.00  0.00    +0.000 A 
ATOM      2  C   UNL     1       1.568   4.666  20.547  0.00  0.00    +0.000 A 
ATOM      3  C   UNL     1       1.751   3.576  21.398  0.00  0.00    +0.000 A 
ATOM      4  C   UNL     1       2.726   2.635  21.110  0.00  0.00    +0.000 A 
ATOM      5  C   UNL     1       3.502   2.766  19.955  0.00  0.00    +0.000 A 
ATOM      6  C   UNL     1       3.335   3.859  19.083  0.00  0.00    +0.000 A 
ENDROOT
BRANCH   6   7
ATOM      7  C   UNL     1       4.087   3.804  17.813  0.00  0.00    +0.000 C 
ATOM      8  C   UNL     1       5.130   4.578  17.477  0.00  0.00    +0.000 C 
BRANCH   8   9
ATOM      9  C   UNL     1       5.705   4.635  16.118  0.00  0.00    +0.000 A 
ATOM     10  C   UNL     1       4.977   4.045  15.071  0.00  0.00    +0.000 A 
ATOM     11  C   UNL     1       5.515   3.958  13.784  0.00  0.00    +0.000 A 
ATOM     12  C   UNL     1       6.779   4.474  13.536  0.00  0.00    +0.000 A 
ATOM     13  F   UNL     1       7.313   4.356  12.313  0.00  0.00    +0.000 F 
ATOM     14  C   UNL     1       7.502   5.103  14.540  0.00  0.00    +0.000 A 
ATOM     15  C   UNL     1       6.960   5.195  15.827  0.00  0.00    +0.000 A 
ENDBRANCH   8   9
ENDBRANCH   6   7
BRANCH   1  16
ATOM     16  O   UNL     1       2.165   5.884  18.535  0.00  0.00    +0.000 OA
BRANCH  16  17
ATOM     17  C   UNL     1       2.526   7.161  19.078  0.00  0.00    +0.000 C 
BRANCH  17  18
ATOM     18  C   UNL     1       2.703   8.162  17.945  0.00  0.00    +0.000 C 
BRANCH  18  19
ATOM     19  C   UNL     1       1.494   9.093  17.787  0.00  0.00    +0.000 C 
BRANCH  19  20
ATOM     20  C   UNL     1       1.025   9.715  19.113  0.00  0.00    +0.000 C 
BRANCH  20  25
ATOM     21  C   UNL     1      -1.708  12.222  20.026  0.00  0.00    +0.000 C 
ATOM     22  C   UNL     1      -0.976  13.525  19.695  0.00  0.00    +0.000 C 
ATOM     23  C   UNL     1       0.060  13.371  18.588  0.00  0.00    +0.000 C 
ATOM     24  C   UNL     1       0.941  12.129  18.753  0.00  0.00    +0.000 C 
ATOM     25  N   UNL     1       0.164  10.897  18.938  0.00  0.00    +0.000 NA
ATOM     26  C   UNL     1      -0.747  11.019  20.099  0.00  0.00    +0.000 C 
BRANCH  21  28
ATOM     27  C   UNL     1      -4.120  12.446  19.759  0.00  0.00    +0.000 C 
ATOM     28  O   UNL     1      -2.884  11.985  19.241  0.00  0.00    +0.000 OA
ENDBRANCH  21  28
ENDBRANCH  20  25
ENDBRANCH  19  20
ENDBRANCH  18  19
ENDBRANCH  17  18
ENDBRANCH  16  17
ENDBRANCH   1  16
TORSDOF 9
ENDMDL
