MODEL 1
REMARK VINA RESULT:      -7.1      0.000      0.000
REMARK  Name = 
REMARK  12 active torsions:
REMARK  status: ('A' for Active; 'I' for Inactive)
REMARK    1  A    between atoms: C_1  and  O_2
REMARK    2  A    between atoms: O_2  and  C_3
REMARK    3  A    between atoms: C_3  and  C_5
REMARK    4  A    between atoms: C_5  and  C_6
REMARK    5  A    between atoms: C_5  and  N_15
REMARK    6  A    between atoms: C_6  and  C_7
REMARK    7  A    between atoms: C_10  and  O_11
REMARK    8  A    between atoms: C_12  and  O_13
REMARK    9  A    between atoms: C_16  and  C_18
REMARK   10  A    between atoms: C_18  and  C_19
REMARK   11  A    between atoms: C_18  and  C_20
REMARK   12  A    between atoms: C_18  and  N_21
REMARK                            x       y       z     vdW  Elec       q    Type
REMARK                         _______ _______ _______ _____ _____    ______ ____
ROOT
ATOM      1  C   UNL     1       3.008   6.872  17.932  0.00  0.00    +0.000 C 
ENDROOT
BRANCH   1   2
ATOM      2  N   UNL     1       4.488   6.873  17.943  0.00  0.00    +0.000 N 
ATOM      3  C   UNL     1       5.227   6.153  17.034  0.00  0.00    +0.000 C 
ATOM      4  O   UNL     1       4.701   5.482  16.148  0.00  0.00    +0.000 OA
ATOM      5  H   UNL     1       4.946   7.354  18.705  0.00  0.00    +0.000 HD
BRANCH   3   6
ATOM      6  C   UNL     1       6.780   6.225  17.200  0.00  0.00    +0.000 C 
ATOM      7  C   UNL     1       7.221   7.649  17.555  0.00  0.00    +0.000 C 
ATOM      8  C   UNL     1       7.254   5.229  18.261  0.00  0.00    +0.000 C 
BRANCH   6   9
ATOM      9  N   UNL     1       7.414   5.860  15.910  0.00  0.00    +0.000 NA
ATOM     10  H   UNL     1       7.617   4.857  15.936  0.00  0.00    +0.000 HD
ATOM     11  H   UNL     1       8.340   6.287  15.889  0.00  0.00    +0.000 HD
ENDBRANCH   6   9
ENDBRANCH   3   6
ENDBRANCH   1   2
BRANCH   1  12
ATOM     12  C   UNL     1       2.418   8.298  18.083  0.00  0.00    +0.000 C 
ATOM     13  O   UNL     1       2.446   9.146  17.207  0.00  0.00    +0.000 OA
BRANCH  12  15
ATOM     14  C   UNL     1       0.958   9.550  19.429  0.00  0.00    +0.000 C 
ATOM     15  O   UNL     1       1.926   8.509  19.336  0.00  0.00    +0.000 OA
ENDBRANCH  12  15
ENDBRANCH   1  12
BRANCH   1  16
ATOM     16  C   UNL     1       2.516   5.906  19.024  0.00  0.00    +0.000 C 
BRANCH  16  17
ATOM     17  C   UNL     1       2.759   4.417  18.904  0.00  0.00    +0.000 A 
ATOM     18  C   UNL     1       2.121   3.614  17.945  0.00  0.00    +0.000 A 
ATOM     19  C   UNL     1       2.514   2.287  17.742  0.00  0.00    +0.000 A 
ATOM     20  C   UNL     1       3.558   1.764  18.494  0.00  0.00    +0.000 A 
ATOM     21  C   UNL     1       4.155   2.528  19.489  0.00  0.00    +0.000 A 
ATOM     22  C   UNL     1       3.767   3.844  19.699  0.00  0.00    +0.000 A 
BRANCH  20  23
ATOM     23  O   UNL     1       4.053   0.512  18.263  0.00  0.00    +0.000 OA
ATOM     24  H   UNL     1       3.327  -0.025  17.901  0.00  0.00    +0.000 HD
ENDBRANCH  20  23
BRANCH  21  25
ATOM     25  O   UNL     1       5.165   2.001  20.241  0.00  0.00    +0.000 OA
ATOM     26  H   UNL     1       5.949   2.533  20.000  0.00  0.00    +0.000 HD
ENDBRANCH  21  25
ENDBRANCH  16  17
ENDBRANCH   1  16
TORSDOF 9
ENDMDL
MODEL 2
REMARK VINA RESULT:      -6.7      2.287      5.991
REMARK  Name = 
REMARK  12 active torsions:
REMARK  status: ('A' for Active; 'I' for Inactive)
REMARK    1  A    between atoms: C_1  and  O_2
REMARK    2  A    between atoms: O_2  and  C_3
REMARK    3  A    between atoms: C_3  and  C_5
REMARK    4  A    between atoms: C_5  and  C_6
REMARK    5  A    between atoms: C_5  and  N_15
REMARK    6  A    between atoms: C_6  and  C_7
REMARK    7  A    between atoms: C_10  and  O_11
REMARK    8  A    between atoms: C_12  and  O_13
REMARK    9  A    between atoms: C_16  and  C_18
REMARK   10  A    between atoms: C_18  and  C_19
REMARK   11  A    between atoms: C_18  and  C_20
REMARK   12  A    between atoms: C_18  and  N_21
REMARK                            x       y       z     vdW  Elec       q    Type
REMARK                         _______ _______ _______ _____ _____    ______ ____
ROOT
ATOM      1  C   UNL     1       5.208   4.728  16.721  0.00  0.00    +0.000 C 
ENDROOT
BRANCH   1   2
ATOM      2  N   UNL     1       4.870   3.675  17.703  0.00  0.00    +0.000 N 
ATOM      3  C   UNL     1       3.623   3.096  17.754  0.00  0.00    +0.000 C 
ATOM      4  O   UNL     1       2.724   3.405  16.975  0.00  0.00    +0.000 OA
ATOM      5  H   UNL     1       5.563   3.454  18.404  0.00  0.00    +0.000 HD
BRANCH   3   6
ATOM      6  C   UNL     1       3.409   2.024  18.874  0.00  0.00    +0.000 C 
ATOM      7  C   UNL     1       4.173   2.410  20.145  0.00  0.00    +0.000 C 
ATOM      8  C   UNL     1       1.917   1.847  19.169  0.00  0.00    +0.000 C 
BRANCH   6   9
ATOM      9  N   UNL     1       3.942   0.725  18.398  0.00  0.00    +0.000 NA
ATOM     10  H   UNL     1       3.534  -0.011  18.981  0.00  0.00    +0.000 HD
ATOM     11  H   UNL     1       4.933   0.692  18.637  0.00  0.00    +0.000 HD
ENDBRANCH   6   9
ENDBRANCH   3   6
ENDBRANCH   1   2
BRANCH   1  12
ATOM     12  C   UNL     1       6.520   4.418  15.955  0.00  0.00    +0.000 C 
ATOM     13  O   UNL     1       7.595   4.936  16.202  0.00  0.00    +0.000 OA
BRANCH  12  15
ATOM     14  C   UNL     1       5.652   4.112  13.795  0.00  0.00    +0.000 C 
ATOM     15  O   UNL     1       6.308   3.548  14.927  0.00  0.00    +0.000 OA
ENDBRANCH  12  15
ENDBRANCH   1  12
BRANCH   1  16
ATOM     16  C   UNL     1       5.253   6.080  17.456  0.00  0.00    +0.000 C 
BRANCH  16  17
ATOM     17  C   UNL     1       3.989   6.700  18.009  0.00  0.00    +0.000 A 
ATOM     18  C   UNL     1       3.384   6.270  19.201  0.00  0.00    +0.000 A 
ATOM     19  C   UNL     1       2.333   6.991  19.776  0.00  0.00    +0.000 A 
ATOM     20  C   UNL     1       1.890   8.154  19.162  0.00  0.00    +0.000 A 
ATOM     21  C   UNL     1       2.437   8.557  17.949  0.00  0.00    +0.000 A 
ATOM     22  C   UNL     1       3.478   7.844  17.370  0.00  0.00    +0.000 A 
BRANCH  20  23
ATOM     23  O   UNL     1       0.941   8.954  19.734  0.00  0.00    +0.000 OA
ATOM     24  H   UNL     1       0.903   9.776  19.214  0.00  0.00    +0.000 HD
ENDBRANCH  20  23
BRANCH  21  25
ATOM     25  O   UNL     1       1.981   9.690  17.337  0.00  0.00    +0.000 OA
ATOM     26  H   UNL     1       2.227  10.411  17.950  0.00  0.00    +0.000 HD
ENDBRANCH  21  25
ENDBRANCH  16  17
ENDBRANCH   1  16
TORSDOF 9
ENDMDL
MODEL 3
REMARK VINA RESULT:      -6.7      2.054      4.426
REMARK  Name = 
REMARK  12 active torsions:
REMARK  status: ('A' for Active; 'I' for Inactive)
REMARK    1  A    between atoms: C_1  and  O_2
REMARK    2  A    between atoms: O_2  and  C_3
REMARK    3  A    between atoms: C_3  and  C_5
REMARK    4  A    between atoms: C_5  and  C_6
REMARK    5  A    between atoms: C_5  and  N_15
REMARK    6  A    between atoms: C_6  and  C_7
REMARK    7  A    between atoms: C_10  and  O_11
REMARK    8  A    between atoms: C_12  and  O_13
REMARK    9  A    between atoms: C_16  and  C_18
REMARK   10  A    between atoms: C_18  and  C_19
REMARK   11  A    between atoms: C_18  and  C_20
REMARK   12  A    between atoms: C_18  and  N_21
REMARK                            x       y       z     vdW  Elec       q    Type
REMARK                         _______ _______ _______ _____ _____    ______ ____
ROOT
ATOM      1  C   UNL     1       2.979   7.405  18.274  0.00  0.00    +0.000 C 
ENDROOT
BRANCH   1   2
ATOM      2  N   UNL     1       2.320   6.082  18.210  0.00  0.00    +0.000 N 
ATOM      3  C   UNL     1       2.598   5.082  19.112  0.00  0.00    +0.000 C 
ATOM      4  O   UNL     1       3.395   5.235  20.036  0.00  0.00    +0.000 OA
ATOM      5  H   UNL     1       1.717   5.902  17.419  0.00  0.00    +0.000 HD
BRANCH   3   6
ATOM      6  C   UNL     1       1.848   3.727  18.889  0.00  0.00    +0.000 C 
ATOM      7  C   UNL     1       2.847   2.574  18.741  0.00  0.00    +0.000 C 
ATOM      8  C   UNL     1       0.873   3.457  20.037  0.00  0.00    +0.000 C 
BRANCH   6   9
ATOM      9  N   UNL     1       1.067   3.817  17.632  0.00  0.00    +0.000 NA
ATOM     10  H   UNL     1       0.079   3.684  17.870  0.00  0.00    +0.000 HD
ATOM     11  H   UNL     1       1.286   2.994  17.072  0.00  0.00    +0.000 HD
ENDBRANCH   6   9
ENDBRANCH   3   6
ENDBRANCH   1   2
BRANCH   1  12
ATOM     12  C   UNL     1       1.957   8.569  18.332  0.00  0.00    +0.000 C 
ATOM     13  O   UNL     1       1.702   9.303  17.393  0.00  0.00    +0.000 OA
BRANCH  12  15
ATOM     14  C   UNL     1       0.665   9.900  19.772  0.00  0.00    +0.000 C 
ATOM     15  O   UNL     1       1.429   8.713  19.581  0.00  0.00    +0.000 OA
ENDBRANCH  12  15
ENDBRANCH   1  12
BRANCH   1  16
ATOM     16  C   UNL     1       3.947   7.522  17.084  0.00  0.00    +0.000 C 
BRANCH  16  17
ATOM     17  C   UNL     1       5.200   6.676  17.022  0.00  0.00    +0.000 A 
ATOM     18  C   UNL     1       6.420   7.072  17.594  0.00  0.00    +0.000 A 
ATOM     19  C   UNL     1       7.495   6.183  17.683  0.00  0.00    +0.000 A 
ATOM     20  C   UNL     1       7.348   4.888  17.207  0.00  0.00    +0.000 A 
ATOM     21  C   UNL     1       6.169   4.501  16.581  0.00  0.00    +0.000 A 
ATOM     22  C   UNL     1       5.098   5.380  16.486  0.00  0.00    +0.000 A 
BRANCH  20  23
ATOM     23  O   UNL     1       8.327   3.947  17.364  0.00  0.00    +0.000 OA
ATOM     24  H   UNL     1       9.181   4.390  17.212  0.00  0.00    +0.000 HD
ENDBRANCH  20  23
BRANCH  21  25
ATOM     25  O   UNL     1       6.038   3.233  16.093  0.00  0.00    +0.000 OA
ATOM     26  H   UNL     1       6.956   2.952  15.904  0.00  0.00    +0.000 HD
ENDBRANCH  21  25
ENDBRANCH  16  17
ENDBRANCH   1  16
TORSDOF 9
ENDMDL
MODEL 4
REMARK VINA RESULT:      -6.6      0.815      1.093
REMARK  Name = 
REMARK  12 active torsions:
REMARK  status: ('A' for Active; 'I' for Inactive)
REMARK    1  A    between atoms: C_1  and  O_2
REMARK    2  A    between atoms: O_2  and  C_3
REMARK    3  A    between atoms: C_3  and  C_5
REMARK    4  A    between atoms: C_5  and  C_6
REMARK    5  A    between atoms: C_5  and  N_15
REMARK    6  A    between atoms: C_6  and  C_7
REMARK    7  A    between atoms: C_10  and  O_11
REMARK    8  A    between atoms: C_12  and  O_13
REMARK    9  A    between atoms: C_16  and  C_18
REMARK   10  A    between atoms: C_18  and  C_19
REMARK   11  A    between atoms: C_18  and  C_20
REMARK   12  A    between atoms: C_18  and  N_21
REMARK                            x       y       z     vdW  Elec       q    Type
REMARK                         _______ _______ _______ _____ _____    ______ ____
ROOT
ATOM      1  C   UNL     1       2.832   6.781  17.932  0.00  0.00    +0.000 C 
ENDROOT
BRANCH   1   2
ATOM      2  N   UNL     1       4.283   6.607  18.157  0.00  0.00    +0.000 N 
ATOM      3  C   UNL     1       5.174   6.474  17.117  0.00  0.00    +0.000 C 
ATOM      4  O   UNL     1       4.819   6.511  15.941  0.00  0.00    +0.000 OA
ATOM      5  H   UNL     1       4.595   6.498  19.112  0.00  0.00    +0.000 HD
BRANCH   3   6
ATOM      6  C   UNL     1       6.671   6.259  17.518  0.00  0.00    +0.000 C 
ATOM      7  C   UNL     1       7.320   5.191  16.630  0.00  0.00    +0.000 C 
ATOM      8  C   UNL     1       7.444   7.577  17.435  0.00  0.00    +0.000 C 
BRANCH   6   9
ATOM      9  N   UNL     1       6.725   5.780  18.920  0.00  0.00    +0.000 NA
ATOM     10  H   UNL     1       6.250   4.873  18.957  0.00  0.00    +0.000 HD
ATOM     11  H   UNL     1       6.122   6.384  19.476  0.00  0.00    +0.000 HD
ENDBRANCH   6   9
ENDBRANCH   3   6
ENDBRANCH   1   2
BRANCH   1  12
ATOM     12  C   UNL     1       2.366   8.237  18.193  0.00  0.00    +0.000 C 
ATOM     13  O   UNL     1       2.538   9.160  17.416  0.00  0.00    +0.000 OA
BRANCH  12  15
ATOM     14  C   UNL     1       0.992   9.531  19.589  0.00  0.00    +0.000 C 
ATOM     15  O   UNL     1       1.803   8.371  19.427  0.00  0.00    +0.000 OA
ENDBRANCH  12  15
ENDBRANCH   1  12
BRANCH   1  16
ATOM     16  C   UNL     1       2.081   5.752  18.795  0.00  0.00    +0.000 C 
BRANCH  16  17
ATOM     17  C   UNL     1       2.465   4.289  18.761  0.00  0.00    +0.000 A 
ATOM     18  C   UNL     1       1.897   3.371  17.863  0.00  0.00    +0.000 A 
ATOM     19  C   UNL     1       2.414   2.078  17.733  0.00  0.00    +0.000 A 
ATOM     20  C   UNL     1       3.510   1.704  18.498  0.00  0.00    +0.000 A 
ATOM     21  C   UNL     1       4.042   2.581  19.436  0.00  0.00    +0.000 A 
ATOM     22  C   UNL     1       3.531   3.865  19.573  0.00  0.00    +0.000 A 
BRANCH  20  23
ATOM     23  O   UNL     1       4.122   0.492  18.336  0.00  0.00    +0.000 OA
ATOM     24  H   UNL     1       4.062   0.262  17.392  0.00  0.00    +0.000 HD
ENDBRANCH  20  23
BRANCH  21  25
ATOM     25  O   UNL     1       5.105   2.199  20.203  0.00  0.00    +0.000 OA
ATOM     26  H   UNL     1       5.871   2.650  19.795  0.00  0.00    +0.000 HD
ENDBRANCH  21  25
ENDBRANCH  16  17
ENDBRANCH   1  16
TORSDOF 9
ENDMDL
MODEL 5
REMARK VINA RESULT:      -6.6      2.868      4.631
REMARK  Name = 
REMARK  12 active torsions:
REMARK  status: ('A' for Active; 'I' for Inactive)
REMARK    1  A    between atoms: C_1  and  O_2
REMARK    2  A    between atoms: O_2  and  C_3
REMARK    3  A    between atoms: C_3  and  C_5
REMARK    4  A    between atoms: C_5  and  C_6
REMARK    5  A    between atoms: C_5  and  N_15
REMARK    6  A    between atoms: C_6  and  C_7
REMARK    7  A    between atoms: C_10  and  O_11
REMARK    8  A    between atoms: C_12  and  O_13
REMARK    9  A    between atoms: C_16  and  C_18
REMARK   10  A    between atoms: C_18  and  C_19
REMARK   11  A    between atoms: C_18  and  C_20
REMARK   12  A    between atoms: C_18  and  N_21
REMARK                            x       y       z     vdW  Elec       q    Type
REMARK                         _______ _______ _______ _____ _____    ______ ____
ROOT
ATOM      1  C   UNL     1       5.974   3.886  15.827  0.00  0.00    +0.000 C 
ENDROOT
BRANCH   1   2
ATOM      2  N   UNL     1       6.211   4.790  16.974  0.00  0.00    +0.000 N 
ATOM      3  C   UNL     1       7.393   4.785  17.677  0.00  0.00    +0.000 C 
ATOM      4  O   UNL     1       8.328   4.044  17.382  0.00  0.00    +0.000 OA
ATOM      5  H   UNL     1       5.434   5.356  17.287  0.00  0.00    +0.000 HD
BRANCH   3   6
ATOM      6  C   UNL     1       7.476   5.772  18.888  0.00  0.00    +0.000 C 
ATOM      7  C   UNL     1       8.000   7.139  18.437  0.00  0.00    +0.000 C 
ATOM      8  C   UNL     1       6.109   5.910  19.563  0.00  0.00    +0.000 C 
BRANCH   6   9
ATOM      9  N   UNL     1       8.429   5.225  19.884  0.00  0.00    +0.000 NA
ATOM     10  H   UNL     1       7.886   4.907  20.692  0.00  0.00    +0.000 HD
ATOM     11  H   UNL     1       8.969   6.005  20.256  0.00  0.00    +0.000 HD
ENDBRANCH   6   9
ENDBRANCH   3   6
ENDBRANCH   1   2
BRANCH   1  12
ATOM     12  C   UNL     1       6.508   4.473  14.495  0.00  0.00    +0.000 C 
ATOM     13  O   UNL     1       7.476   5.210  14.412  0.00  0.00    +0.000 OA
BRANCH  12  15
ATOM     14  C   UNL     1       6.412   3.479  12.371  0.00  0.00    +0.000 C 
ATOM     15  O   UNL     1       5.722   4.120  13.439  0.00  0.00    +0.000 OA
ENDBRANCH  12  15
ENDBRANCH   1  12
BRANCH   1  16
ATOM     16  C   UNL     1       4.473   3.555  15.772  0.00  0.00    +0.000 C 
BRANCH  16  17
ATOM     17  C   UNL     1       3.613   3.661  17.013  0.00  0.00    +0.000 A 
ATOM     18  C   UNL     1       3.165   4.887  17.530  0.00  0.00    +0.000 A 
ATOM     19  C   UNL     1       2.219   4.932  18.559  0.00  0.00    +0.000 A 
ATOM     20  C   UNL     1       1.710   3.745  19.066  0.00  0.00    +0.000 A 
ATOM     21  C   UNL     1       2.189   2.524  18.607  0.00  0.00    +0.000 A 
ATOM     22  C   UNL     1       3.132   2.472  17.589  0.00  0.00    +0.000 A 
BRANCH  20  23
ATOM     23  O   UNL     1       0.707   3.731  19.995  0.00  0.00    +0.000 OA
ATOM     24  H   UNL     1       1.066   3.322  20.803  0.00  0.00    +0.000 HD
ENDBRANCH  20  23
BRANCH  21  25
ATOM     25  O   UNL     1       1.702   1.359  19.127  0.00  0.00    +0.000 OA
ATOM     26  H   UNL     1       0.873   1.203  18.632  0.00  0.00    +0.000 HD
ENDBRANCH  21  25
ENDBRANCH  16  17
ENDBRANCH   1  16
TORSDOF 9
ENDMDL
MODEL 6
REMARK VINA RESULT:      -6.5      1.776      5.286
REMARK  Name = 
REMARK  12 active torsions:
REMARK  status: ('A' for Active; 'I' for Inactive)
REMARK    1  A    between atoms: C_1  and  O_2
REMARK    2  A    between atoms: O_2  and  C_3
REMARK    3  A    between atoms: C_3  and  C_5
REMARK    4  A    between atoms: C_5  and  C_6
REMARK    5  A    between atoms: C_5  and  N_15
REMARK    6  A    between atoms: C_6  and  C_7
REMARK    7  A    between atoms: C_10  and  O_11
REMARK    8  A    between atoms: C_12  and  O_13
REMARK    9  A    between atoms: C_16  and  C_18
REMARK   10  A    between atoms: C_18  and  C_19
REMARK   11  A    between atoms: C_18  and  C_20
REMARK   12  A    between atoms: C_18  and  N_21
REMARK                            x       y       z     vdW  Elec       q    Type
REMARK                         _______ _______ _______ _____ _____    ______ ____
ROOT
ATOM      1  C   UNL     1       3.706   4.290  19.301  0.00  0.00    +0.000 C 
ENDROOT
BRANCH   1   2
ATOM      2  N   UNL     1       4.724   4.563  18.264  0.00  0.00    +0.000 N 
ATOM      3  C   UNL     1       6.003   4.958  18.581  0.00  0.00    +0.000 C 
ATOM      4  O   UNL     1       6.380   5.087  19.744  0.00  0.00    +0.000 OA
ATOM      5  H   UNL     1       4.423   4.538  17.300  0.00  0.00    +0.000 HD
BRANCH   3   6
ATOM      6  C   UNL     1       6.953   5.246  17.371  0.00  0.00    +0.000 C 
ATOM      7  C   UNL     1       6.195   5.120  16.046  0.00  0.00    +0.000 C 
ATOM      8  C   UNL     1       7.587   6.633  17.505  0.00  0.00    +0.000 C 
BRANCH   6   9
ATOM      9  N   UNL     1       8.042   4.240  17.371  0.00  0.00    +0.000 NA
ATOM     10  H   UNL     1       8.681   4.472  18.136  0.00  0.00    +0.000 HD
ATOM     11  H   UNL     1       8.606   4.396  16.537  0.00  0.00    +0.000 HD
ENDBRANCH   6   9
ENDBRANCH   3   6
ENDBRANCH   1   2
BRANCH   1  12
ATOM     12  C   UNL     1       3.519   2.772  19.557  0.00  0.00    +0.000 C 
ATOM     13  O   UNL     1       3.308   1.952  18.681  0.00  0.00    +0.000 OA
BRANCH  12  15
ATOM     14  C   UNL     1       2.328   2.708  21.579  0.00  0.00    +0.000 C 
ATOM     15  O   UNL     1       3.552   2.479  20.888  0.00  0.00    +0.000 OA
ENDBRANCH  12  15
ENDBRANCH   1  12
BRANCH   1  16
ATOM     16  C   UNL     1       2.398   4.990  18.893  0.00  0.00    +0.000 C 
BRANCH  16  17
ATOM     17  C   UNL     1       2.218   6.477  19.106  0.00  0.00    +0.000 A 
ATOM     18  C   UNL     1       2.292   7.413  18.062  0.00  0.00    +0.000 A 
ATOM     19  C   UNL     1       1.931   8.749  18.266  0.00  0.00    +0.000 A 
ATOM     20  C   UNL     1       1.484   9.149  19.518  0.00  0.00    +0.000 A 
ATOM     21  C   UNL     1       1.467   8.248  20.576  0.00  0.00    +0.000 A 
ATOM     22  C   UNL     1       1.827   6.921  20.381  0.00  0.00    +0.000 A 
BRANCH  20  23
ATOM     23  O   UNL     1       1.019  10.413  19.746  0.00  0.00    +0.000 OA
ATOM     24  H   UNL     1       1.286  10.662  20.648  0.00  0.00    +0.000 HD
ENDBRANCH  20  23
BRANCH  21  25
ATOM     25  O   UNL     1       1.049   8.653  21.811  0.00  0.00    +0.000 OA
ATOM     26  H   UNL     1       0.241   9.174  21.634  0.00  0.00    +0.000 HD
ENDBRANCH  21  25
ENDBRANCH  16  17
ENDBRANCH   1  16
TORSDOF 9
ENDMDL
MODEL 7
REMARK VINA RESULT:      -6.5      2.046      5.252
REMARK  Name = 
REMARK  12 active torsions:
REMARK  status: ('A' for Active; 'I' for Inactive)
REMARK    1  A    between atoms: C_1  and  O_2
REMARK    2  A    between atoms: O_2  and  C_3
REMARK    3  A    between atoms: C_3  and  C_5
REMARK    4  A    between atoms: C_5  and  C_6
REMARK    5  A    between atoms: C_5  and  N_15
REMARK    6  A    between atoms: C_6  and  C_7
REMARK    7  A    between atoms: C_10  and  O_11
REMARK    8  A    between atoms: C_12  and  O_13
REMARK    9  A    between atoms: C_16  and  C_18
REMARK   10  A    between atoms: C_18  and  C_19
REMARK   11  A    between atoms: C_18  and  C_20
REMARK   12  A    between atoms: C_18  and  N_21
REMARK                            x       y       z     vdW  Elec       q    Type
REMARK                         _______ _______ _______ _____ _____    ______ ____
ROOT
ATOM      1  C   UNL     1       3.209   4.537  18.558  0.00  0.00    +0.000 C 
ENDROOT
BRANCH   1   2
ATOM      2  N   UNL     1       3.911   4.945  17.321  0.00  0.00    +0.000 N 
ATOM      3  C   UNL     1       5.268   4.787  17.164  0.00  0.00    +0.000 C 
ATOM      4  O   UNL     1       5.974   4.279  18.034  0.00  0.00    +0.000 OA
ATOM      5  H   UNL     1       3.371   5.433  16.620  0.00  0.00    +0.000 HD
BRANCH   3   6
ATOM      6  C   UNL     1       5.869   5.303  15.815  0.00  0.00    +0.000 C 
ATOM      7  C   UNL     1       5.754   4.231  14.726  0.00  0.00    +0.000 C 
ATOM      8  C   UNL     1       5.178   6.597  15.379  0.00  0.00    +0.000 C 
BRANCH   6   9
ATOM      9  N   UNL     1       7.309   5.595  16.016  0.00  0.00    +0.000 NA
ATOM     10  H   UNL     1       7.839   4.777  15.703  0.00  0.00    +0.000 HD
ATOM     11  H   UNL     1       7.483   5.618  17.020  0.00  0.00    +0.000 HD
ENDBRANCH   6   9
ENDBRANCH   3   6
ENDBRANCH   1   2
BRANCH   1  12
ATOM     12  C   UNL     1       1.726   4.166  18.297  0.00  0.00    +0.000 C 
ATOM     13  O   UNL     1       1.127   4.427  17.268  0.00  0.00    +0.000 OA
BRANCH  12  15
ATOM     14  C   UNL     1       1.816   2.393  19.833  0.00  0.00    +0.000 C 
ATOM     15  O   UNL     1       1.157   3.574  19.385  0.00  0.00    +0.000 OA
ENDBRANCH  12  15
ENDBRANCH   1  12
BRANCH   1  16
ATOM     16  C   UNL     1       3.367   5.660  19.598  0.00  0.00    +0.000 C 
BRANCH  16  17
ATOM     17  C   UNL     1       2.455   6.867  19.576  0.00  0.00    +0.000 A 
ATOM     18  C   UNL     1       1.693   7.270  20.685  0.00  0.00    +0.000 A 
ATOM     19  C   UNL     1       1.016   8.494  20.686  0.00  0.00    +0.000 A 
ATOM     20  C   UNL     1       1.109   9.324  19.578  0.00  0.00    +0.000 A 
ATOM     21  C   UNL     1       1.808   8.910  18.450  0.00  0.00    +0.000 A 
ATOM     22  C   UNL     1       2.479   7.695  18.439  0.00  0.00    +0.000 A 
BRANCH  20  23
ATOM     23  O   UNL     1       0.558  10.574  19.567  0.00  0.00    +0.000 OA
ATOM     24  H   UNL     1      -0.392  10.470  19.380  0.00  0.00    +0.000 HD
ENDBRANCH  20  23
BRANCH  21  25
ATOM     25  O   UNL     1       1.876   9.721  17.353  0.00  0.00    +0.000 OA
ATOM     26  H   UNL     1       2.834   9.860  17.216  0.00  0.00    +0.000 HD
ENDBRANCH  21  25
ENDBRANCH  16  17
ENDBRANCH   1  16
TORSDOF 9
ENDMDL
MODEL 8
REMARK VINA RESULT:      -6.5      1.163      1.647
REMARK  Name = 
REMARK  12 active torsions:
REMARK  status: ('A' for Active; 'I' for Inactive)
REMARK    1  A    between atoms: C_1  and  O_2
REMARK    2  A    between atoms: O_2  and  C_3
REMARK    3  A    between atoms: C_3  and  C_5
REMARK    4  A    between atoms: C_5  and  C_6
REMARK    5  A    between atoms: C_5  and  N_15
REMARK    6  A    between atoms: C_6  and  C_7
REMARK    7  A    between atoms: C_10  and  O_11
REMARK    8  A    between atoms: C_12  and  O_13
REMARK    9  A    between atoms: C_16  and  C_18
REMARK   10  A    between atoms: C_18  and  C_19
REMARK   11  A    between atoms: C_18  and  C_20
REMARK   12  A    between atoms: C_18  and  N_21
REMARK                            x       y       z     vdW  Elec       q    Type
REMARK                         _______ _______ _______ _____ _____    ______ ____
ROOT
ATOM      1  C   UNL     1       2.992   6.768  17.471  0.00  0.00    +0.000 C 
ENDROOT
BRANCH   1   2
ATOM      2  N   UNL     1       4.395   6.552  17.888  0.00  0.00    +0.000 N 
ATOM      3  C   UNL     1       5.434   6.551  16.987  0.00  0.00    +0.000 C 
ATOM      4  O   UNL     1       5.260   6.750  15.786  0.00  0.00    +0.000 OA
ATOM      5  H   UNL     1       4.560   6.312  18.856  0.00  0.00    +0.000 HD
BRANCH   3   6
ATOM      6  C   UNL     1       6.855   6.270  17.577  0.00  0.00    +0.000 C 
ATOM      7  C   UNL     1       7.691   7.554  17.611  0.00  0.00    +0.000 C 
ATOM      8  C   UNL     1       6.745   5.657  18.975  0.00  0.00    +0.000 C 
BRANCH   6   9
ATOM      9  N   UNL     1       7.551   5.297  16.701  0.00  0.00    +0.000 NA
ATOM     10  H   UNL     1       6.866   4.592  16.414  0.00  0.00    +0.000 HD
ATOM     11  H   UNL     1       8.203   4.770  17.280  0.00  0.00    +0.000 HD
ENDBRANCH   6   9
ENDBRANCH   3   6
ENDBRANCH   1   2
BRANCH   1  12
ATOM     12  C   UNL     1       2.398   8.073  18.060  0.00  0.00    +0.000 C 
ATOM     13  O   UNL     1       2.151   9.070  17.402  0.00  0.00    +0.000 OA
BRANCH  12  15
ATOM     14  C   UNL     1       1.225   8.824  19.950  0.00  0.00    +0.000 C 
ATOM     15  O   UNL     1       2.251   7.994  19.413  0.00  0.00    +0.000 OA
ENDBRANCH  12  15
ENDBRANCH   1  12
BRANCH   1  16
ATOM     16  C   UNL     1       2.176   5.519  17.850  0.00  0.00    +0.000 C 
BRANCH  16  17
ATOM     17  C   UNL     1       2.538   4.701  19.070  0.00  0.00    +0.000 A 
ATOM     18  C   UNL     1       1.803   4.746  20.266  0.00  0.00    +0.000 A 
ATOM     19  C   UNL     1       2.054   3.836  21.298  0.00  0.00    +0.000 A 
ATOM     20  C   UNL     1       3.036   2.870  21.131  0.00  0.00    +0.000 A 
ATOM     21  C   UNL     1       3.813   2.855  19.979  0.00  0.00    +0.000 A 
ATOM     22  C   UNL     1       3.574   3.757  18.951  0.00  0.00    +0.000 A 
BRANCH  20  23
ATOM     23  O   UNL     1       3.250   1.892  22.061  0.00  0.00    +0.000 OA
ATOM     24  H   UNL     1       2.604   2.027  22.777  0.00  0.00    +0.000 HD
ENDBRANCH  20  23
BRANCH  21  25
ATOM     25  O   UNL     1       4.795   1.917  19.830  0.00  0.00    +0.000 OA
ATOM     26  H   UNL     1       5.403   2.084  20.577  0.00  0.00    +0.000 HD
ENDBRANCH  21  25
ENDBRANCH  16  17
ENDBRANCH   1  16
TORSDOF 9
ENDMDL
MODEL 9
REMARK VINA RESULT:      -6.5      2.470      4.819
REMARK  Name = 
REMARK  12 active torsions:
REMARK  status: ('A' for Active; 'I' for Inactive)
REMARK    1  A    between atoms: C_1  and  O_2
REMARK    2  A    between atoms: O_2  and  C_3
REMARK    3  A    between atoms: C_3  and  C_5
REMARK    4  A    between atoms: C_5  and  C_6
REMARK    5  A    between atoms: C_5  and  N_15
REMARK    6  A    between atoms: C_6  and  C_7
REMARK    7  A    between atoms: C_10  and  O_11
REMARK    8  A    between atoms: C_12  and  O_13
REMARK    9  A    between atoms: C_16  and  C_18
REMARK   10  A    between atoms: C_18  and  C_19
REMARK   11  A    between atoms: C_18  and  C_20
REMARK   12  A    between atoms: C_18  and  N_21
REMARK                            x       y       z     vdW  Elec       q    Type
REMARK                         _______ _______ _______ _____ _____    ______ ____
ROOT
ATOM      1  C   UNL     1       2.676   6.680  19.374  0.00  0.00    +0.000 C 
ENDROOT
BRANCH   1   2
ATOM      2  N   UNL     1       1.956   5.414  19.632  0.00  0.00    +0.000 N 
ATOM      3  C   UNL     1       2.599   4.285  20.082  0.00  0.00    +0.000 C 
ATOM      4  O   UNL     1       3.806   4.267  20.315  0.00  0.00    +0.000 OA
ATOM      5  H   UNL     1       0.978   5.376  19.379  0.00  0.00    +0.000 HD
BRANCH   3   6
ATOM      6  C   UNL     1       1.707   3.014  20.270  0.00  0.00    +0.000 C 
ATOM      7  C   UNL     1       2.043   1.955  19.214  0.00  0.00    +0.000 C 
ATOM      8  C   UNL     1       1.874   2.445  21.681  0.00  0.00    +0.000 C 
BRANCH   6   9
ATOM      9  N   UNL     1       0.286   3.399  20.093  0.00  0.00    +0.000 NA
ATOM     10  H   UNL     1       0.255   4.175  19.427  0.00  0.00    +0.000 HD
ATOM     11  H   UNL     1      -0.030   3.823  20.964  0.00  0.00    +0.000 HD
ENDBRANCH   6   9
ENDBRANCH   3   6
ENDBRANCH   1   2
BRANCH   1  12
ATOM     12  C   UNL     1       1.856   7.922  19.809  0.00  0.00    +0.000 C 
ATOM     13  O   UNL     1       1.633   8.881  19.090  0.00  0.00    +0.000 OA
BRANCH  12  15
ATOM     14  C   UNL     1       1.051   9.072  21.691  0.00  0.00    +0.000 C 
ATOM     15  O   UNL     1       1.474   7.840  21.116  0.00  0.00    +0.000 OA
ENDBRANCH  12  15
ENDBRANCH   1  12
BRANCH   1  16
ATOM     16  C   UNL     1       3.070   6.719  17.887  0.00  0.00    +0.000 C 
BRANCH  16  17
ATOM     17  C   UNL     1       4.343   6.055  17.409  0.00  0.00    +0.000 A 
ATOM     18  C   UNL     1       4.373   4.758  16.871  0.00  0.00    +0.000 A 
ATOM     19  C   UNL     1       5.530   4.257  16.266  0.00  0.00    +0.000 A 
ATOM     20  C   UNL     1       6.660   5.060  16.188  0.00  0.00    +0.000 A 
ATOM     21  C   UNL     1       6.663   6.322  16.771  0.00  0.00    +0.000 A 
ATOM     22  C   UNL     1       5.520   6.824  17.377  0.00  0.00    +0.000 A 
BRANCH  20  23
ATOM     23  O   UNL     1       7.780   4.663  15.514  0.00  0.00    +0.000 OA
ATOM     24  H   UNL     1       8.318   5.458  15.352  0.00  0.00    +0.000 HD
ENDBRANCH  20  23
BRANCH  21  25
ATOM     25  O   UNL     1       7.785   7.099  16.712  0.00  0.00    +0.000 OA
ATOM     26  H   UNL     1       7.680   7.730  17.452  0.00  0.00    +0.000 HD
ENDBRANCH  21  25
ENDBRANCH  16  17
ENDBRANCH   1  16
TORSDOF 9
ENDMDL
