MODEL 1
REMARK VINA RESULT:      -8.2      0.000      0.000
REMARK  Name = 
REMARK  7 active torsions:
REMARK  status: ('A' for Active; 'I' for Inactive)
REMARK    1  A    between atoms: C_1  and  C_2
REMARK    2  A    between atoms: C_3  and  C_4
REMARK    3  A    between atoms: C_9  and  C_10
REMARK    4  A    between atoms: C_14  and  C_15
REMARK    5  A    between atoms: C_18  and  C_19
REMARK    6  A    between atoms: C_22  and  O_23
REMARK    7  A    between atoms: O_23  and  C_24
REMARK                            x       y       z     vdW  Elec       q    Type
REMARK                         _______ _______ _______ _____ _____    ______ ____
ROOT
ATOM      1  C   UNL     1       1.316  14.960  18.838  0.00  0.00    +0.000 A 
ATOM      2  C   UNL     1      -0.043  15.368  18.639  0.00  0.00    +0.000 A 
ATOM      3  N   UNL     1      -0.925  14.358  18.614  0.00  0.00    +0.000 NA
ATOM      4  N   UNL     1      -0.144  13.272  18.789  0.00  0.00    +0.000 N 
ATOM      5  C   UNL     1      -0.304  11.891  18.856  0.00  0.00    +0.000 A 
ATOM      6  C   UNL     1       0.945  11.384  19.035  0.00  0.00    +0.000 A 
ATOM      7  N   UNL     1       1.869  12.447  19.084  0.00  0.00    +0.000 N 
ATOM      8  C   UNL     1       1.191  13.604  18.925  0.00  0.00    +0.000 A 
ATOM      9  H   UNL     1       2.860  12.273  19.208  0.00  0.00    +0.000 HD
ENDROOT
BRANCH   1  15
ATOM     10  C   UNL     1       5.899  14.976  20.029  0.00  0.00    +0.000 C 
ATOM     11  O   UNL     1       5.992  15.108  21.245  0.00  0.00    +0.000 OA
ATOM     12  N   UNL     1       4.708  15.090  19.350  0.00  0.00    +0.000 N 
ATOM     13  C   UNL     1       4.482  14.894  17.933  0.00  0.00    +0.000 C 
ATOM     14  C   UNL     1       3.339  15.845  17.616  0.00  0.00    +0.000 C 
ATOM     15  C   UNL     1       2.498  15.873  18.901  0.00  0.00    +0.000 C 
ATOM     16  C   UNL     1       3.513  15.589  20.017  0.00  0.00    +0.000 C 
BRANCH  10  19
ATOM     17  C   UNL     1       9.348  14.076  17.992  0.00  0.00    +0.000 C 
ATOM     18  C   UNL     1       8.123  14.489  18.677  0.00  0.00    +0.000 C 
ATOM     19  C   UNL     1       7.112  14.762  19.267  0.00  0.00    +0.000 C 
ENDBRANCH  10  19
ENDBRANCH   1  15
BRANCH   6  20
ATOM     20  C   UNL     1       1.409  10.005  19.146  0.00  0.00    +0.000 A 
ATOM     21  C   UNL     1       2.093   9.405  18.084  0.00  0.00    +0.000 A 
ATOM     22  C   UNL     1       2.627   8.119  18.224  0.00  0.00    +0.000 A 
ATOM     23  C   UNL     1       2.482   7.422  19.426  0.00  0.00    +0.000 A 
ATOM     24  C   UNL     1       1.722   7.983  20.455  0.00  0.00    +0.000 A 
ATOM     25  C   UNL     1       1.212   9.281  20.326  0.00  0.00    +0.000 A 
BRANCH  23  26
ATOM     26  O   UNL     1       3.063   6.175  19.478  0.00  0.00    +0.000 OA
BRANCH  26  27
ATOM     27  C   UNL     1       2.331   5.047  19.171  0.00  0.00    +0.000 A 
ATOM     28  C   UNL     1       1.672   4.440  20.247  0.00  0.00    +0.000 A 
ATOM     29  C   UNL     1       0.910   3.286  20.046  0.00  0.00    +0.000 A 
ATOM     30  C   UNL     1       0.810   2.746  18.770  0.00  0.00    +0.000 A 
ATOM     31  F   UNL     1       0.101   1.627  18.578  0.00  0.00    +0.000 F 
ATOM     32  C   UNL     1       1.429   3.358  17.685  0.00  0.00    +0.000 A 
ATOM     33  C   UNL     1       2.166   4.528  17.882  0.00  0.00    +0.000 A 
ENDBRANCH  26  27
ENDBRANCH  23  26
ENDBRANCH   6  20
BRANCH   5  34
ATOM     34  C   UNL     1      -1.582  11.174  18.727  0.00  0.00    +0.000 C 
ATOM     35  N   UNL     1      -2.671  11.816  19.227  0.00  0.00    +0.000 N 
ATOM     36  O   UNL     1      -1.687  10.069  18.208  0.00  0.00    +0.000 OA
ATOM     37  H   UNL     1      -2.618  12.739  19.656  0.00  0.00    +0.000 HD
ATOM     38  H   UNL     1      -3.574  11.368  19.153  0.00  0.00    +0.000 HD
ENDBRANCH   5  34
TORSDOF 6
ENDMDL
MODEL 2
REMARK VINA RESULT:      -8.2      2.358      2.838
REMARK  Name = 
REMARK  7 active torsions:
REMARK  status: ('A' for Active; 'I' for Inactive)
REMARK    1  A    between atoms: C_1  and  C_2
REMARK    2  A    between atoms: C_3  and  C_4
REMARK    3  A    between atoms: C_9  and  C_10
REMARK    4  A    between atoms: C_14  and  C_15
REMARK    5  A    between atoms: C_18  and  C_19
REMARK    6  A    between atoms: C_22  and  O_23
REMARK    7  A    between atoms: O_23  and  C_24
REMARK                            x       y       z     vdW  Elec       q    Type
REMARK                         _______ _______ _______ _____ _____    ______ ____
ROOT
ATOM      1  C   UNL     1       1.096  14.646  19.946  0.00  0.00    +0.000 A 
ATOM      2  C   UNL     1      -0.163  15.091  19.429  0.00  0.00    +0.000 A 
ATOM      3  N   UNL     1      -0.911  14.120  18.885  0.00  0.00    +0.000 NA
ATOM      4  N   UNL     1      -0.138  13.024  19.036  0.00  0.00    +0.000 N 
ATOM      5  C   UNL     1      -0.200  11.671  18.716  0.00  0.00    +0.000 A 
ATOM      6  C   UNL     1       0.968  11.135  19.158  0.00  0.00    +0.000 A 
ATOM      7  N   UNL     1       1.745  12.151  19.750  0.00  0.00    +0.000 N 
ATOM      8  C   UNL     1       1.059  13.312  19.664  0.00  0.00    +0.000 A 
ATOM      9  H   UNL     1       2.660  11.952  20.137  0.00  0.00    +0.000 HD
ENDROOT
BRANCH   1  15
ATOM     10  C   UNL     1       5.041  14.362  22.550  0.00  0.00    +0.000 C 
ATOM     11  O   UNL     1       4.730  14.203  23.726  0.00  0.00    +0.000 OA
ATOM     12  N   UNL     1       4.126  14.638  21.561  0.00  0.00    +0.000 N 
ATOM     13  C   UNL     1       4.381  14.783  20.143  0.00  0.00    +0.000 C 
ATOM     14  C   UNL     1       3.333  15.786  19.689  0.00  0.00    +0.000 C 
ATOM     15  C   UNL     1       2.124  15.514  20.598  0.00  0.00    +0.000 C 
ATOM     16  C   UNL     1       2.747  14.970  21.892  0.00  0.00    +0.000 C 
BRANCH  10  19
ATOM     17  C   UNL     1       9.017  13.954  21.610  0.00  0.00    +0.000 C 
ATOM     18  C   UNL     1       7.610  14.199  21.931  0.00  0.00    +0.000 C 
ATOM     19  C   UNL     1       6.447  14.329  22.201  0.00  0.00    +0.000 C 
ENDBRANCH  10  19
ENDBRANCH   1  15
BRANCH   6  20
ATOM     20  C   UNL     1       1.484   9.772  19.079  0.00  0.00    +0.000 A 
ATOM     21  C   UNL     1       1.390   8.918  20.183  0.00  0.00    +0.000 A 
ATOM     22  C   UNL     1       1.792   7.582  20.079  0.00  0.00    +0.000 A 
ATOM     23  C   UNL     1       2.292   7.088  18.871  0.00  0.00    +0.000 A 
ATOM     24  C   UNL     1       2.470   7.960  17.796  0.00  0.00    +0.000 A 
ATOM     25  C   UNL     1       2.042   9.291  17.890  0.00  0.00    +0.000 A 
BRANCH  23  26
ATOM     26  O   UNL     1       2.636   5.754  18.859  0.00  0.00    +0.000 OA
BRANCH  26  27
ATOM     27  C   UNL     1       3.880   5.356  18.416  0.00  0.00    +0.000 A 
ATOM     28  C   UNL     1       4.930   5.522  19.328  0.00  0.00    +0.000 A 
ATOM     29  C   UNL     1       6.233   5.158  18.976  0.00  0.00    +0.000 A 
ATOM     30  C   UNL     1       6.478   4.628  17.716  0.00  0.00    +0.000 A 
ATOM     31  F   UNL     1       7.729   4.301  17.367  0.00  0.00    +0.000 F 
ATOM     32  C   UNL     1       5.440   4.423  16.813  0.00  0.00    +0.000 A 
ATOM     33  C   UNL     1       4.134   4.760  17.176  0.00  0.00    +0.000 A 
ENDBRANCH  26  27
ENDBRANCH  23  26
ENDBRANCH   6  20
BRANCH   5  34
ATOM     34  C   UNL     1      -1.315  11.009  18.021  0.00  0.00    +0.000 C 
ATOM     35  N   UNL     1      -1.808  11.668  16.938  0.00  0.00    +0.000 N 
ATOM     36  O   UNL     1      -1.788   9.935  18.373  0.00  0.00    +0.000 OA
ATOM     37  H   UNL     1      -1.430  12.558  16.614  0.00  0.00    +0.000 HD
ATOM     38  H   UNL     1      -2.569  11.248  16.421  0.00  0.00    +0.000 HD
ENDBRANCH   5  34
TORSDOF 6
ENDMDL
MODEL 3
REMARK VINA RESULT:      -8.1      1.893      2.347
REMARK  Name = 
REMARK  7 active torsions:
REMARK  status: ('A' for Active; 'I' for Inactive)
REMARK    1  A    between atoms: C_1  and  C_2
REMARK    2  A    between atoms: C_3  and  C_4
REMARK    3  A    between atoms: C_9  and  C_10
REMARK    4  A    between atoms: C_14  and  C_15
REMARK    5  A    between atoms: C_18  and  C_19
REMARK    6  A    between atoms: C_22  and  O_23
REMARK    7  A    between atoms: O_23  and  C_24
REMARK                            x       y       z     vdW  Elec       q    Type
REMARK                         _______ _______ _______ _____ _____    ______ ____
ROOT
ATOM      1  C   UNL     1       1.535  15.066  18.992  0.00  0.00    +0.000 A 
ATOM      2  C   UNL     1       0.189  15.507  18.778  0.00  0.00    +0.000 A 
ATOM      3  N   UNL     1      -0.701  14.515  18.633  0.00  0.00    +0.000 NA
ATOM      4  N   UNL     1       0.062  13.408  18.744  0.00  0.00    +0.000 N 
ATOM      5  C   UNL     1      -0.115  12.028  18.685  0.00  0.00    +0.000 A 
ATOM      6  C   UNL     1       1.121  11.491  18.867  0.00  0.00    +0.000 A 
ATOM      7  N   UNL     1       2.053  12.534  19.042  0.00  0.00    +0.000 N 
ATOM      8  C   UNL     1       1.393  13.710  18.957  0.00  0.00    +0.000 A 
ATOM      9  H   UNL     1       3.037  12.337  19.188  0.00  0.00    +0.000 HD
ENDROOT
BRANCH   1  15
ATOM     10  C   UNL     1       6.148  14.877  20.046  0.00  0.00    +0.000 C 
ATOM     11  O   UNL     1       6.274  14.801  21.263  0.00  0.00    +0.000 OA
ATOM     12  N   UNL     1       4.940  15.106  19.427  0.00  0.00    +0.000 N 
ATOM     13  C   UNL     1       4.676  15.154  18.005  0.00  0.00    +0.000 C 
ATOM     14  C   UNL     1       3.530  16.145  17.885  0.00  0.00    +0.000 C 
ATOM     15  C   UNL     1       2.723  15.955  19.178  0.00  0.00    +0.000 C 
ATOM     16  C   UNL     1       3.766  15.484  20.202  0.00  0.00    +0.000 C 
BRANCH  10  19
ATOM     17  C   UNL     1       9.694  14.645  17.989  0.00  0.00    +0.000 C 
ATOM     18  C   UNL     1       8.383  14.730  18.633  0.00  0.00    +0.000 C 
ATOM     19  C   UNL     1       7.339  14.795  19.225  0.00  0.00    +0.000 C 
ENDBRANCH  10  19
ENDBRANCH   1  15
BRANCH   6  20
ATOM     20  C   UNL     1       1.567  10.102  18.876  0.00  0.00    +0.000 A 
ATOM     21  C   UNL     1       1.379   9.309  20.014  0.00  0.00    +0.000 A 
ATOM     22  C   UNL     1       1.713   7.951  19.991  0.00  0.00    +0.000 A 
ATOM     23  C   UNL     1       2.239   7.373  18.833  0.00  0.00    +0.000 A 
ATOM     24  C   UNL     1       2.510   8.181  17.728  0.00  0.00    +0.000 A 
ATOM     25  C   UNL     1       2.150   9.535  17.739  0.00  0.00    +0.000 A 
BRANCH  23  26
ATOM     26  O   UNL     1       2.512   6.025  18.899  0.00  0.00    +0.000 OA
BRANCH  26  27
ATOM     27  C   UNL     1       3.726   5.534  18.466  0.00  0.00    +0.000 A 
ATOM     28  C   UNL     1       4.783   5.639  19.378  0.00  0.00    +0.000 A 
ATOM     29  C   UNL     1       6.058   5.179  19.035  0.00  0.00    +0.000 A 
ATOM     30  C   UNL     1       6.267   4.615  17.782  0.00  0.00    +0.000 A 
ATOM     31  F   UNL     1       7.492   4.196  17.441  0.00  0.00    +0.000 F 
ATOM     32  C   UNL     1       5.219   4.471  16.880  0.00  0.00    +0.000 A 
ATOM     33  C   UNL     1       3.939   4.904  17.234  0.00  0.00    +0.000 A 
ENDBRANCH  26  27
ENDBRANCH  23  26
ENDBRANCH   6  20
BRANCH   5  34
ATOM     34  C   UNL     1      -1.394  11.342  18.447  0.00  0.00    +0.000 C 
ATOM     35  N   UNL     1      -2.291  12.017  17.679  0.00  0.00    +0.000 N 
ATOM     36  O   UNL     1      -1.660  10.235  18.898  0.00  0.00    +0.000 OA
ATOM     37  H   UNL     1      -2.096  12.934  17.281  0.00  0.00    +0.000 HD
ATOM     38  H   UNL     1      -3.182  11.581  17.479  0.00  0.00    +0.000 HD
ENDBRANCH   5  34
TORSDOF 6
ENDMDL
MODEL 4
REMARK VINA RESULT:      -7.9      2.114      2.553
REMARK  Name = 
REMARK  7 active torsions:
REMARK  status: ('A' for Active; 'I' for Inactive)
REMARK    1  A    between atoms: C_1  and  C_2
REMARK    2  A    between atoms: C_3  and  C_4
REMARK    3  A    between atoms: C_9  and  C_10
REMARK    4  A    between atoms: C_14  and  C_15
REMARK    5  A    between atoms: C_18  and  C_19
REMARK    6  A    between atoms: C_22  and  O_23
REMARK    7  A    between atoms: O_23  and  C_24
REMARK                            x       y       z     vdW  Elec       q    Type
REMARK                         _______ _______ _______ _____ _____    ______ ____
ROOT
ATOM      1  C   UNL     1       1.299  14.677  19.812  0.00  0.00    +0.000 A 
ATOM      2  C   UNL     1       0.163  15.185  19.103  0.00  0.00    +0.000 A 
ATOM      3  N   UNL     1      -0.629  14.238  18.578  0.00  0.00    +0.000 NA
ATOM      4  N   UNL     1      -0.009  13.094  18.936  0.00  0.00    +0.000 N 
ATOM      5  C   UNL     1      -0.192  11.726  18.758  0.00  0.00    +0.000 A 
ATOM      6  C   UNL     1       0.852  11.129  19.391  0.00  0.00    +0.000 A 
ATOM      7  N   UNL     1       1.672  12.123  19.961  0.00  0.00    +0.000 N 
ATOM      8  C   UNL     1       1.138  13.330  19.670  0.00  0.00    +0.000 A 
ATOM      9  H   UNL     1       2.511  11.878  20.475  0.00  0.00    +0.000 HD
ENDROOT
BRANCH   1  15
ATOM     10  C   UNL     1       5.094  14.254  22.614  0.00  0.00    +0.000 C 
ATOM     11  O   UNL     1       4.718  14.152  23.777  0.00  0.00    +0.000 OA
ATOM     12  N   UNL     1       4.244  14.549  21.573  0.00  0.00    +0.000 N 
ATOM     13  C   UNL     1       4.573  14.633  20.166  0.00  0.00    +0.000 C 
ATOM     14  C   UNL     1       3.609  15.679  19.631  0.00  0.00    +0.000 C 
ATOM     15  C   UNL     1       2.344  15.506  20.487  0.00  0.00    +0.000 C 
ATOM     16  C   UNL     1       2.872  14.970  21.826  0.00  0.00    +0.000 C 
BRANCH  10  19
ATOM     17  C   UNL     1       9.091  14.181  21.680  0.00  0.00    +0.000 C 
ATOM     18  C   UNL     1       7.678  14.116  22.055  0.00  0.00    +0.000 C 
ATOM     19  C   UNL     1       6.510  14.129  22.336  0.00  0.00    +0.000 C 
ENDBRANCH  10  19
ENDBRANCH   1  15
BRANCH   6  20
ATOM     20  C   UNL     1       1.212   9.721  19.519  0.00  0.00    +0.000 A 
ATOM     21  C   UNL     1       1.803   9.044  18.447  0.00  0.00    +0.000 A 
ATOM     22  C   UNL     1       2.240   7.724  18.599  0.00  0.00    +0.000 A 
ATOM     23  C   UNL     1       2.091   7.069  19.824  0.00  0.00    +0.000 A 
ATOM     24  C   UNL     1       1.421   7.711  20.867  0.00  0.00    +0.000 A 
ATOM     25  C   UNL     1       1.008   9.042  20.725  0.00  0.00    +0.000 A 
BRANCH  23  26
ATOM     26  O   UNL     1       2.576   5.781  19.885  0.00  0.00    +0.000 OA
BRANCH  26  27
ATOM     27  C   UNL     1       3.584   5.370  19.038  0.00  0.00    +0.000 A 
ATOM     28  C   UNL     1       3.166   4.741  17.859  0.00  0.00    +0.000 A 
ATOM     29  C   UNL     1       4.107   4.278  16.935  0.00  0.00    +0.000 A 
ATOM     30  C   UNL     1       5.461   4.449  17.195  0.00  0.00    +0.000 A 
ATOM     31  F   UNL     1       6.366   3.986  16.324  0.00  0.00    +0.000 F 
ATOM     32  C   UNL     1       5.890   5.105  18.343  0.00  0.00    +0.000 A 
ATOM     33  C   UNL     1       4.948   5.593  19.252  0.00  0.00    +0.000 A 
ENDBRANCH  26  27
ENDBRANCH  23  26
ENDBRANCH   6  20
BRANCH   5  34
ATOM     34  C   UNL     1      -1.295  11.105  18.007  0.00  0.00    +0.000 C 
ATOM     35  N   UNL     1      -1.738  11.801  16.926  0.00  0.00    +0.000 N 
ATOM     36  O   UNL     1      -1.800  10.032  18.314  0.00  0.00    +0.000 OA
ATOM     37  H   UNL     1      -1.332  12.691  16.639  0.00  0.00    +0.000 HD
ATOM     38  H   UNL     1      -2.488  11.410  16.372  0.00  0.00    +0.000 HD
ENDBRANCH   5  34
TORSDOF 6
ENDMDL
MODEL 5
REMARK VINA RESULT:      -7.8      2.092      2.388
REMARK  Name = 
REMARK  7 active torsions:
REMARK  status: ('A' for Active; 'I' for Inactive)
REMARK    1  A    between atoms: C_1  and  C_2
REMARK    2  A    between atoms: C_3  and  C_4
REMARK    3  A    between atoms: C_9  and  C_10
REMARK    4  A    between atoms: C_14  and  C_15
REMARK    5  A    between atoms: C_18  and  C_19
REMARK    6  A    between atoms: C_22  and  O_23
REMARK    7  A    between atoms: O_23  and  C_24
REMARK                            x       y       z     vdW  Elec       q    Type
REMARK                         _______ _______ _______ _____ _____    ______ ____
ROOT
ATOM      1  C   UNL     1       1.711  15.264  18.841  0.00  0.00    +0.000 A 
ATOM      2  C   UNL     1       0.389  15.815  18.838  0.00  0.00    +0.000 A 
ATOM      3  N   UNL     1      -0.591  14.901  18.891  0.00  0.00    +0.000 NA
ATOM      4  N   UNL     1       0.086  13.735  18.921  0.00  0.00    +0.000 N 
ATOM      5  C   UNL     1      -0.210  12.375  18.955  0.00  0.00    +0.000 A 
ATOM      6  C   UNL     1       0.991  11.737  18.950  0.00  0.00    +0.000 A 
ATOM      7  N   UNL     1       2.021  12.698  18.917  0.00  0.00    +0.000 N 
ATOM      8  C   UNL     1       1.455  13.924  18.892  0.00  0.00    +0.000 A 
ATOM      9  H   UNL     1       2.996  12.420  18.903  0.00  0.00    +0.000 HD
ENDROOT
BRANCH   1  15
ATOM     10  C   UNL     1       6.267  14.999  20.104  0.00  0.00    +0.000 C 
ATOM     11  O   UNL     1       6.370  15.312  21.285  0.00  0.00    +0.000 OA
ATOM     12  N   UNL     1       5.096  15.125  19.392  0.00  0.00    +0.000 N 
ATOM     13  C   UNL     1       4.855  14.731  18.020  0.00  0.00    +0.000 C 
ATOM     14  C   UNL     1       3.819  15.731  17.535  0.00  0.00    +0.000 C 
ATOM     15  C   UNL     1       2.981  16.049  18.783  0.00  0.00    +0.000 C 
ATOM     16  C   UNL     1       3.958  15.843  19.949  0.00  0.00    +0.000 C 
BRANCH  10  19
ATOM     17  C   UNL     1       9.437  13.570  17.919  0.00  0.00    +0.000 C 
ATOM     18  C   UNL     1       8.374  14.118  18.763  0.00  0.00    +0.000 C 
ATOM     19  C   UNL     1       7.453  14.543  19.408  0.00  0.00    +0.000 C 
ENDBRANCH  10  19
ENDBRANCH   1  15
BRANCH   6  20
ATOM     20  C   UNL     1       1.316  10.315  18.946  0.00  0.00    +0.000 A 
ATOM     21  C   UNL     1       1.779   9.701  17.777  0.00  0.00    +0.000 A 
ATOM     22  C   UNL     1       2.187   8.363  17.796  0.00  0.00    +0.000 A 
ATOM     23  C   UNL     1       2.137   7.626  18.982  0.00  0.00    +0.000 A 
ATOM     24  C   UNL     1       1.592   8.210  20.127  0.00  0.00    +0.000 A 
ATOM     25  C   UNL     1       1.209   9.558  20.117  0.00  0.00    +0.000 A 
BRANCH  23  26
ATOM     26  O   UNL     1       2.583   6.326  18.908  0.00  0.00    +0.000 OA
BRANCH  26  27
ATOM     27  C   UNL     1       3.864   6.048  18.478  0.00  0.00    +0.000 A 
ATOM     28  C   UNL     1       4.708   5.460  19.428  0.00  0.00    +0.000 A 
ATOM     29  C   UNL     1       6.029   5.145  19.098  0.00  0.00    +0.000 A 
ATOM     30  C   UNL     1       6.498   5.420  17.820  0.00  0.00    +0.000 A 
ATOM     31  F   UNL     1       7.771   5.143  17.508  0.00  0.00    +0.000 F 
ATOM     32  C   UNL     1       5.662   5.970  16.855  0.00  0.00    +0.000 A 
ATOM     33  C   UNL     1       4.333   6.257  17.176  0.00  0.00    +0.000 A 
ENDBRANCH  26  27
ENDBRANCH  23  26
ENDBRANCH   6  20
BRANCH   5  34
ATOM     34  C   UNL     1      -1.562  11.797  18.969  0.00  0.00    +0.000 C 
ATOM     35  N   UNL     1      -2.545  12.608  19.447  0.00  0.00    +0.000 N 
ATOM     36  O   UNL     1      -1.816  10.663  18.581  0.00  0.00    +0.000 OA
ATOM     37  H   UNL     1      -2.368  13.559  19.767  0.00  0.00    +0.000 HD
ATOM     38  H   UNL     1      -3.494  12.258  19.466  0.00  0.00    +0.000 HD
ENDBRANCH   5  34
TORSDOF 6
ENDMDL
MODEL 6
REMARK VINA RESULT:      -7.8      1.402      1.761
REMARK  Name = 
REMARK  7 active torsions:
REMARK  status: ('A' for Active; 'I' for Inactive)
REMARK    1  A    between atoms: C_1  and  C_2
REMARK    2  A    between atoms: C_3  and  C_4
REMARK    3  A    between atoms: C_9  and  C_10
REMARK    4  A    between atoms: C_14  and  C_15
REMARK    5  A    between atoms: C_18  and  C_19
REMARK    6  A    between atoms: C_22  and  O_23
REMARK    7  A    between atoms: O_23  and  C_24
REMARK                            x       y       z     vdW  Elec       q    Type
REMARK                         _______ _______ _______ _____ _____    ______ ____
ROOT
ATOM      1  C   UNL     1       1.040  14.948  20.084  0.00  0.00    +0.000 A 
ATOM      2  C   UNL     1      -0.237  15.403  19.622  0.00  0.00    +0.000 A 
ATOM      3  N   UNL     1      -1.014  14.439  19.107  0.00  0.00    +0.000 NA
ATOM      4  N   UNL     1      -0.243  13.338  19.222  0.00  0.00    +0.000 N 
ATOM      5  C   UNL     1      -0.328  11.985  18.902  0.00  0.00    +0.000 A 
ATOM      6  C   UNL     1       0.854  11.440  19.291  0.00  0.00    +0.000 A 
ATOM      7  N   UNL     1       1.662  12.449  19.853  0.00  0.00    +0.000 N 
ATOM      8  C   UNL     1       0.981  13.615  19.800  0.00  0.00    +0.000 A 
ATOM      9  H   UNL     1       2.592  12.242  20.201  0.00  0.00    +0.000 HD
ENDROOT
BRANCH   1  15
ATOM     10  C   UNL     1       4.949  14.643  22.740  0.00  0.00    +0.000 C 
ATOM     11  O   UNL     1       4.623  14.568  23.920  0.00  0.00    +0.000 OA
ATOM     12  N   UNL     1       4.054  14.901  21.727  0.00  0.00    +0.000 N 
ATOM     13  C   UNL     1       4.326  14.951  20.306  0.00  0.00    +0.000 C 
ATOM     14  C   UNL     1       3.327  15.971  19.784  0.00  0.00    +0.000 C 
ATOM     15  C   UNL     1       2.101  15.806  20.695  0.00  0.00    +0.000 C 
ATOM     16  C   UNL     1       2.689  15.312  22.024  0.00  0.00    +0.000 C 
BRANCH  10  19
ATOM     17  C   UNL     1       8.860  14.051  21.638  0.00  0.00    +0.000 C 
ATOM     18  C   UNL     1       7.496  14.343  22.082  0.00  0.00    +0.000 C 
ATOM     19  C   UNL     1       6.354  14.527  22.408  0.00  0.00    +0.000 C 
ENDBRANCH  10  19
ENDBRANCH   1  15
BRANCH   6  20
ATOM     20  C   UNL     1       1.356  10.074  19.187  0.00  0.00    +0.000 A 
ATOM     21  C   UNL     1       2.026   9.656  18.031  0.00  0.00    +0.000 A 
ATOM     22  C   UNL     1       2.596   8.380  17.967  0.00  0.00    +0.000 A 
ATOM     23  C   UNL     1       2.502   7.510  19.057  0.00  0.00    +0.000 A 
ATOM     24  C   UNL     1       1.758   7.892  20.175  0.00  0.00    +0.000 A 
ATOM     25  C   UNL     1       1.211   9.179  20.251  0.00  0.00    +0.000 A 
BRANCH  23  26
ATOM     26  O   UNL     1       3.116   6.287  18.910  0.00  0.00    +0.000 OA
BRANCH  26  27
ATOM     27  C   UNL     1       2.376   5.124  18.928  0.00  0.00    +0.000 A 
ATOM     28  C   UNL     1       2.447   4.341  17.768  0.00  0.00    +0.000 A 
ATOM     29  C   UNL     1       1.727   3.146  17.680  0.00  0.00    +0.000 A 
ATOM     30  C   UNL     1       0.942   2.740  18.751  0.00  0.00    +0.000 A 
ATOM     31  F   UNL     1       0.232   1.608  18.660  0.00  0.00    +0.000 F 
ATOM     32  C   UNL     1       0.891   3.487  19.922  0.00  0.00    +0.000 A 
ATOM     33  C   UNL     1       1.633   4.666  20.022  0.00  0.00    +0.000 A 
ENDBRANCH  26  27
ENDBRANCH  23  26
ENDBRANCH   6  20
BRANCH   5  34
ATOM     34  C   UNL     1      -1.476  11.334  18.252  0.00  0.00    +0.000 C 
ATOM     35  N   UNL     1      -2.698  11.844  18.565  0.00  0.00    +0.000 N 
ATOM     36  O   UNL     1      -1.368  10.393  17.476  0.00  0.00    +0.000 OA
ATOM     37  H   UNL     1      -2.820  12.633  19.199  0.00  0.00    +0.000 HD
ATOM     38  H   UNL     1      -3.517  11.436  18.135  0.00  0.00    +0.000 HD
ENDBRANCH   5  34
TORSDOF 6
ENDMDL
MODEL 7
REMARK VINA RESULT:      -7.8      2.920      3.562
REMARK  Name = 
REMARK  7 active torsions:
REMARK  status: ('A' for Active; 'I' for Inactive)
REMARK    1  A    between atoms: C_1  and  C_2
REMARK    2  A    between atoms: C_3  and  C_4
REMARK    3  A    between atoms: C_9  and  C_10
REMARK    4  A    between atoms: C_14  and  C_15
REMARK    5  A    between atoms: C_18  and  C_19
REMARK    6  A    between atoms: C_22  and  O_23
REMARK    7  A    between atoms: O_23  and  C_24
REMARK                            x       y       z     vdW  Elec       q    Type
REMARK                         _______ _______ _______ _____ _____    ______ ____
ROOT
ATOM      1  C   UNL     1       0.791  13.012  19.671  0.00  0.00    +0.000 A 
ATOM      2  C   UNL     1      -0.137  13.310  20.720  0.00  0.00    +0.000 A 
ATOM      3  N   UNL     1      -0.496  12.250  21.459  0.00  0.00    +0.000 NA
ATOM      4  N   UNL     1       0.194  11.239  20.890  0.00  0.00    +0.000 N 
ATOM      5  C   UNL     1       0.335   9.865  21.064  0.00  0.00    +0.000 A 
ATOM      6  C   UNL     1       1.201   9.459  20.098  0.00  0.00    +0.000 A 
ATOM      7  N   UNL     1       1.595  10.578  19.336  0.00  0.00    +0.000 N 
ATOM      8  C   UNL     1       0.965  11.667  19.826  0.00  0.00    +0.000 A 
ATOM      9  H   UNL     1       2.239  10.480  18.559  0.00  0.00    +0.000 HD
ENDROOT
BRANCH   1  15
ATOM     10  C   UNL     1       3.701  16.743  19.467  0.00  0.00    +0.000 C 
ATOM     11  O   UNL     1       3.085  17.745  19.812  0.00  0.00    +0.000 OA
ATOM     12  N   UNL     1       3.098  15.521  19.267  0.00  0.00    +0.000 N 
ATOM     13  C   UNL     1       3.740  14.271  18.920  0.00  0.00    +0.000 C 
ATOM     14  C   UNL     1       2.690  13.544  18.096  0.00  0.00    +0.000 C 
ATOM     15  C   UNL     1       1.350  13.998  18.697  0.00  0.00    +0.000 C 
ATOM     16  C   UNL     1       1.646  15.400  19.249  0.00  0.00    +0.000 C 
BRANCH  10  19
ATOM     17  C   UNL     1       7.646  17.368  18.520  0.00  0.00    +0.000 C 
ATOM     18  C   UNL     1       6.268  17.059  18.902  0.00  0.00    +0.000 C 
ATOM     19  C   UNL     1       5.116  16.868  19.187  0.00  0.00    +0.000 C 
ENDBRANCH  10  19
ENDBRANCH   1  15
BRANCH   6  20
ATOM     20  C   UNL     1       1.706   8.132  19.765  0.00  0.00    +0.000 A 
ATOM     21  C   UNL     1       2.202   7.868  18.483  0.00  0.00    +0.000 A 
ATOM     22  C   UNL     1       2.778   6.627  18.191  0.00  0.00    +0.000 A 
ATOM     23  C   UNL     1       2.864   5.639  19.175  0.00  0.00    +0.000 A 
ATOM     24  C   UNL     1       2.289   5.869  20.427  0.00  0.00    +0.000 A 
ATOM     25  C   UNL     1       1.738   7.120  20.730  0.00  0.00    +0.000 A 
BRANCH  23  26
ATOM     26  O   UNL     1       3.471   4.461  18.800  0.00  0.00    +0.000 OA
BRANCH  26  27
ATOM     27  C   UNL     1       4.474   4.460  17.855  0.00  0.00    +0.000 A 
ATOM     28  C   UNL     1       5.764   4.716  18.338  0.00  0.00    +0.000 A 
ATOM     29  C   UNL     1       6.852   4.746  17.461  0.00  0.00    +0.000 A 
ATOM     30  C   UNL     1       6.645   4.517  16.107  0.00  0.00    +0.000 A 
ATOM     31  F   UNL     1       7.682   4.569  15.261  0.00  0.00    +0.000 F 
ATOM     32  C   UNL     1       5.377   4.225  15.618  0.00  0.00    +0.000 A 
ATOM     33  C   UNL     1       4.294   4.167  16.498  0.00  0.00    +0.000 A 
ENDBRANCH  26  27
ENDBRANCH  23  26
ENDBRANCH   6  20
BRANCH   5  34
ATOM     34  C   UNL     1      -0.354   9.060  22.084  0.00  0.00    +0.000 C 
ATOM     35  N   UNL     1      -0.208   9.486  23.368  0.00  0.00    +0.000 N 
ATOM     36  O   UNL     1      -1.022   8.067  21.823  0.00  0.00    +0.000 OA
ATOM     37  H   UNL     1       0.333  10.313  23.617  0.00  0.00    +0.000 HD
ATOM     38  H   UNL     1      -0.672   8.970  24.104  0.00  0.00    +0.000 HD
ENDBRANCH   5  34
TORSDOF 6
ENDMDL
MODEL 8
REMARK VINA RESULT:      -7.8      1.007      1.154
REMARK  Name = 
REMARK  7 active torsions:
REMARK  status: ('A' for Active; 'I' for Inactive)
REMARK    1  A    between atoms: C_1  and  C_2
REMARK    2  A    between atoms: C_3  and  C_4
REMARK    3  A    between atoms: C_9  and  C_10
REMARK    4  A    between atoms: C_14  and  C_15
REMARK    5  A    between atoms: C_18  and  C_19
REMARK    6  A    between atoms: C_22  and  O_23
REMARK    7  A    between atoms: O_23  and  C_24
REMARK                            x       y       z     vdW  Elec       q    Type
REMARK                         _______ _______ _______ _____ _____    ______ ____
ROOT
ATOM      1  C   UNL     1       1.567  15.165  19.196  0.00  0.00    +0.000 A 
ATOM      2  C   UNL     1       0.239  15.663  18.998  0.00  0.00    +0.000 A 
ATOM      3  N   UNL     1      -0.685  14.712  18.801  0.00  0.00    +0.000 NA
ATOM      4  N   UNL     1       0.038  13.574  18.861  0.00  0.00    +0.000 N 
ATOM      5  C   UNL     1      -0.186  12.206  18.734  0.00  0.00    +0.000 A 
ATOM      6  C   UNL     1       1.028  11.617  18.895  0.00  0.00    +0.000 A 
ATOM      7  N   UNL     1       1.995  12.617  19.124  0.00  0.00    +0.000 N 
ATOM      8  C   UNL     1       1.377  13.818  19.095  0.00  0.00    +0.000 A 
ATOM      9  H   UNL     1       2.971  12.379  19.265  0.00  0.00    +0.000 HD
ENDROOT
BRANCH   1  15
ATOM     10  C   UNL     1       6.104  14.783  20.497  0.00  0.00    +0.000 C 
ATOM     11  O   UNL     1       6.162  14.724  21.720  0.00  0.00    +0.000 OA
ATOM     12  N   UNL     1       4.942  15.055  19.812  0.00  0.00    +0.000 N 
ATOM     13  C   UNL     1       4.755  15.089  18.377  0.00  0.00    +0.000 C 
ATOM     14  C   UNL     1       3.666  16.129  18.179  0.00  0.00    +0.000 C 
ATOM     15  C   UNL     1       2.784  16.001  19.431  0.00  0.00    +0.000 C 
ATOM     16  C   UNL     1       3.748  15.502  20.516  0.00  0.00    +0.000 C 
BRANCH  10  19
ATOM     17  C   UNL     1       9.406  14.348  18.096  0.00  0.00    +0.000 C 
ATOM     18  C   UNL     1       8.291  14.500  19.031  0.00  0.00    +0.000 C 
ATOM     19  C   UNL     1       7.331  14.630  19.743  0.00  0.00    +0.000 C 
ENDBRANCH  10  19
ENDBRANCH   1  15
BRANCH   6  20
ATOM     20  C   UNL     1       1.425  10.214  18.838  0.00  0.00    +0.000 A 
ATOM     21  C   UNL     1       2.035   9.701  17.688  0.00  0.00    +0.000 A 
ATOM     22  C   UNL     1       2.507   8.384  17.667  0.00  0.00    +0.000 A 
ATOM     23  C   UNL     1       2.374   7.569  18.794  0.00  0.00    +0.000 A 
ATOM     24  C   UNL     1       1.686   8.051  19.909  0.00  0.00    +0.000 A 
ATOM     25  C   UNL     1       1.238   9.377  19.942  0.00  0.00    +0.000 A 
BRANCH  23  26
ATOM     26  O   UNL     1       2.892   6.297  18.687  0.00  0.00    +0.000 OA
BRANCH  26  27
ATOM     27  C   UNL     1       2.346   5.255  19.406  0.00  0.00    +0.000 A 
ATOM     28  C   UNL     1       2.779   5.141  20.733  0.00  0.00    +0.000 A 
ATOM     29  C   UNL     1       2.294   4.113  21.547  0.00  0.00    +0.000 A 
ATOM     30  C   UNL     1       1.378   3.207  21.029  0.00  0.00    +0.000 A 
ATOM     31  F   UNL     1       0.930   2.206  21.799  0.00  0.00    +0.000 F 
ATOM     32  C   UNL     1       0.910   3.329  19.726  0.00  0.00    +0.000 A 
ATOM     33  C   UNL     1       1.373   4.373  18.922  0.00  0.00    +0.000 A 
ENDBRANCH  26  27
ENDBRANCH  23  26
ENDBRANCH   6  20
BRANCH   5  34
ATOM     34  C   UNL     1      -1.487  11.577  18.457  0.00  0.00    +0.000 C 
ATOM     35  N   UNL     1      -1.609  10.983  17.239  0.00  0.00    +0.000 N 
ATOM     36  O   UNL     1      -2.419  11.575  19.253  0.00  0.00    +0.000 OA
ATOM     37  H   UNL     1      -0.849  10.960  16.559  0.00  0.00    +0.000 HD
ATOM     38  H   UNL     1      -2.481  10.529  17.007  0.00  0.00    +0.000 HD
ENDBRANCH   5  34
TORSDOF 6
ENDMDL
MODEL 9
REMARK VINA RESULT:      -7.7      4.717      6.541
REMARK  Name = 
REMARK  7 active torsions:
REMARK  status: ('A' for Active; 'I' for Inactive)
REMARK    1  A    between atoms: C_1  and  C_2
REMARK    2  A    between atoms: C_3  and  C_4
REMARK    3  A    between atoms: C_9  and  C_10
REMARK    4  A    between atoms: C_14  and  C_15
REMARK    5  A    between atoms: C_18  and  C_19
REMARK    6  A    between atoms: C_22  and  O_23
REMARK    7  A    between atoms: O_23  and  C_24
REMARK                            x       y       z     vdW  Elec       q    Type
REMARK                         _______ _______ _______ _____ _____    ______ ____
ROOT
ATOM      1  C   UNL     1      -5.342  13.133  19.806  0.00  0.00    +0.000 A 
ATOM      2  C   UNL     1      -6.126  13.128  18.607  0.00  0.00    +0.000 A 
ATOM      3  N   UNL     1      -5.596  12.413  17.603  0.00  0.00    +0.000 NA
ATOM      4  N   UNL     1      -4.448  11.948  18.139  0.00  0.00    +0.000 N 
ATOM      5  C   UNL     1      -3.365  11.172  17.734  0.00  0.00    +0.000 A 
ATOM      6  C   UNL     1      -2.532  11.115  18.807  0.00  0.00    +0.000 A 
ATOM      7  N   UNL     1      -3.100  11.847  19.869  0.00  0.00    +0.000 N 
ATOM      8  C   UNL     1      -4.276  12.362  19.446  0.00  0.00    +0.000 A 
ATOM      9  H   UNL     1      -2.625  11.929  20.761  0.00  0.00    +0.000 HD
ENDROOT
BRANCH   1  15
ATOM     10  C   UNL     1      -3.999  13.483  24.334  0.00  0.00    +0.000 C 
ATOM     11  O   UNL     1      -4.492  12.556  24.967  0.00  0.00    +0.000 OA
ATOM     12  N   UNL     1      -4.323  13.756  23.024  0.00  0.00    +0.000 N 
ATOM     13  C   UNL     1      -3.757  14.783  22.175  0.00  0.00    +0.000 C 
ATOM     14  C   UNL     1      -4.903  15.156  21.249  0.00  0.00    +0.000 C 
ATOM     15  C   UNL     1      -5.691  13.849  21.071  0.00  0.00    +0.000 C 
ATOM     16  C   UNL     1      -5.439  13.081  22.376  0.00  0.00    +0.000 C 
BRANCH  10  19
ATOM     17  C   UNL     1      -1.369  16.159  26.002  0.00  0.00    +0.000 C 
ATOM     18  C   UNL     1      -2.314  15.161  25.498  0.00  0.00    +0.000 C 
ATOM     19  C   UNL     1      -3.087  14.375  25.020  0.00  0.00    +0.000 C 
ENDBRANCH  10  19
ENDBRANCH   1  15
BRANCH   6  20
ATOM     20  C   UNL     1      -1.232  10.473  18.973  0.00  0.00    +0.000 A 
ATOM     21  C   UNL     1      -0.769  10.141  20.251  0.00  0.00    +0.000 A 
ATOM     22  C   UNL     1       0.430   9.437  20.407  0.00  0.00    +0.000 A 
ATOM     23  C   UNL     1       1.176   9.058  19.288  0.00  0.00    +0.000 A 
ATOM     24  C   UNL     1       0.761   9.466  18.019  0.00  0.00    +0.000 A 
ATOM     25  C   UNL     1      -0.453  10.147  17.859  0.00  0.00    +0.000 A 
BRANCH  23  26
ATOM     26  O   UNL     1       2.327   8.345  19.541  0.00  0.00    +0.000 OA
BRANCH  26  27
ATOM     27  C   UNL     1       2.363   6.980  19.349  0.00  0.00    +0.000 A 
ATOM     28  C   UNL     1       1.959   6.203  20.442  0.00  0.00    +0.000 A 
ATOM     29  C   UNL     1       1.966   4.808  20.356  0.00  0.00    +0.000 A 
ATOM     30  C   UNL     1       2.375   4.199  19.176  0.00  0.00    +0.000 A 
ATOM     31  F   UNL     1       2.407   2.862  19.099  0.00  0.00    +0.000 F 
ATOM     32  C   UNL     1       2.744   4.957  18.071  0.00  0.00    +0.000 A 
ATOM     33  C   UNL     1       2.709   6.351  18.148  0.00  0.00    +0.000 A 
ENDBRANCH  26  27
ENDBRANCH  23  26
ENDBRANCH   6  20
BRANCH   5  34
ATOM     34  C   UNL     1      -3.193  10.579  16.399  0.00  0.00    +0.000 C 
ATOM     35  N   UNL     1      -3.156  11.460  15.363  0.00  0.00    +0.000 N 
ATOM     36  O   UNL     1      -3.088   9.375  16.203  0.00  0.00    +0.000 OA
ATOM     37  H   UNL     1      -3.231  12.469  15.494  0.00  0.00    +0.000 HD
ATOM     38  H   UNL     1      -3.030  11.101  14.426  0.00  0.00    +0.000 HD
ENDBRANCH   5  34
TORSDOF 6
ENDMDL
