MODEL 1
REMARK VINA RESULT:      -8.1      0.000      0.000
REMARK  Name = 
REMARK  4 active torsions:
REMARK  status: ('A' for Active; 'I' for Inactive)
REMARK    1  A    between atoms: C_2  and  C_3
REMARK    2  A    between atoms: C_3  and  N_4
REMARK    3  A    between atoms: N_17  and  C_18
REMARK    4  A    between atoms: C_22  and  C_23
REMARK                            x       y       z     vdW  Elec       q    Type
REMARK                         _______ _______ _______ _____ _____    ______ ____
ROOT
ATOM      1  O   UNL     1       1.981   8.496  17.774  0.00  0.00    +0.000 OA
ATOM      2  C   UNL     1       1.843   8.455  19.000  0.00  0.00    +0.000 C 
ATOM      3  N   UNL     1       1.454   9.574  19.727  0.00  0.00    +0.000 N 
ATOM      4  C   UNL     1       1.123  10.801  19.007  0.00  0.00    +0.000 C 
ATOM      5  C   UNL     1      -0.354  10.929  18.661  0.00  0.00    +0.000 C 
ATOM      6  C   UNL     1      -1.355  10.793  19.808  0.00  0.00    +0.000 C 
ATOM      7  N   UNL     1      -0.765  10.979  21.137  0.00  0.00    +0.000 N 
ATOM      8  C   UNL     1      -0.097   9.800  21.707  0.00  0.00    +0.000 C 
ATOM      9  C   UNL     1       1.343   9.649  21.193  0.00  0.00    +0.000 C 
ENDROOT
BRANCH   7  10
ATOM     10  C   UNL     1      -0.990  12.109  21.893  0.00  0.00    +0.000 A 
ATOM     11  S   UNL     1      -2.335  12.208  22.994  0.00  0.00    +0.000 S 
ATOM     12  C   UNL     1      -1.733  13.675  23.622  0.00  0.00    +0.000 A 
ATOM     13  N   UNL     1      -0.622  14.127  23.093  0.00  0.00    +0.000 NA
ATOM     14  C   UNL     1      -0.268  13.299  22.032  0.00  0.00    +0.000 A 
BRANCH  14  15
ATOM     15  C   UNL     1       0.854  13.722  21.141  0.00  0.00    +0.000 A 
ATOM     16  N   UNL     1       2.140  13.658  21.425  0.00  0.00    +0.000 NA
ATOM     17  C   UNL     1       2.774  14.285  20.386  0.00  0.00    +0.000 A 
ATOM     18  C   UNL     1       4.141  14.527  20.195  0.00  0.00    +0.000 A 
ATOM     19  C   UNL     1       4.535  15.278  19.082  0.00  0.00    +0.000 A 
ATOM     20  C   UNL     1       3.587  15.778  18.185  0.00  0.00    +0.000 A 
ATOM     21  C   UNL     1       2.220  15.517  18.343  0.00  0.00    +0.000 A 
ATOM     22  C   UNL     1       1.857  14.748  19.450  0.00  0.00    +0.000 A 
ATOM     23  N   UNL     1       0.650  14.277  19.904  0.00  0.00    +0.000 N 
ATOM     24  H   UNL     1      -0.258  14.428  19.491  0.00  0.00    +0.000 HD
ENDBRANCH  14  15
ENDBRANCH   7  10
BRANCH   2  25
ATOM     25  C   UNL     1       2.079   7.147  19.731  0.00  0.00    +0.000 C 
BRANCH  25  26
ATOM     26  N   UNL     1       2.638   6.097  18.894  0.00  0.00    +0.000 N 
ATOM     27  C   UNL     1       3.634   6.238  17.961  0.00  0.00    +0.000 A 
ATOM     28  C   UNL     1       3.834   5.014  17.357  0.00  0.00    +0.000 A 
ATOM     29  C   UNL     1       2.909   4.098  17.923  0.00  0.00    +0.000 A 
ATOM     30  C   UNL     1       2.594   2.744  17.731  0.00  0.00    +0.000 A 
ATOM     31  C   UNL     1       1.571   2.201  18.507  0.00  0.00    +0.000 A 
ATOM     32  C   UNL     1       0.924   3.009  19.432  0.00  0.00    +0.000 A 
ATOM     33  N   UNL     1       1.193   4.313  19.666  0.00  0.00    +0.000 NA
ATOM     34  C   UNL     1       2.177   4.799  18.885  0.00  0.00    +0.000 A 
ENDBRANCH  25  26
ENDBRANCH   2  25
TORSDOF 4
ENDMDL
MODEL 2
REMARK VINA RESULT:      -8.0      0.849      1.785
REMARK  Name = 
REMARK  4 active torsions:
REMARK  status: ('A' for Active; 'I' for Inactive)
REMARK    1  A    between atoms: C_2  and  C_3
REMARK    2  A    between atoms: C_3  and  N_4
REMARK    3  A    between atoms: N_17  and  C_18
REMARK    4  A    between atoms: C_22  and  C_23
REMARK                            x       y       z     vdW  Elec       q    Type
REMARK                         _______ _______ _______ _____ _____    ______ ____
ROOT
ATOM      1  O   UNL     1       2.150   8.232  17.589  0.00  0.00    +0.000 OA
ATOM      2  C   UNL     1       2.011   8.187  18.815  0.00  0.00    +0.000 C 
ATOM      3  N   UNL     1       1.623   9.305  19.545  0.00  0.00    +0.000 N 
ATOM      4  C   UNL     1       1.295  10.535  18.829  0.00  0.00    +0.000 C 
ATOM      5  C   UNL     1      -0.182  10.667  18.482  0.00  0.00    +0.000 C 
ATOM      6  C   UNL     1      -1.184  10.529  19.629  0.00  0.00    +0.000 C 
ATOM      7  N   UNL     1      -0.595  10.710  20.958  0.00  0.00    +0.000 N 
ATOM      8  C   UNL     1       0.071   9.528  21.524  0.00  0.00    +0.000 C 
ATOM      9  C   UNL     1       1.512   9.375  21.012  0.00  0.00    +0.000 C 
ENDROOT
BRANCH   7  10
ATOM     10  C   UNL     1      -0.818  11.837  21.717  0.00  0.00    +0.000 A 
ATOM     11  S   UNL     1      -2.148  11.924  22.838  0.00  0.00    +0.000 S 
ATOM     12  C   UNL     1      -1.550  13.396  23.458  0.00  0.00    +0.000 A 
ATOM     13  N   UNL     1      -0.451  13.858  22.912  0.00  0.00    +0.000 NA
ATOM     14  C   UNL     1      -0.104  13.034  21.846  0.00  0.00    +0.000 A 
BRANCH  14  15
ATOM     15  C   UNL     1       1.000  13.466  20.939  0.00  0.00    +0.000 A 
ATOM     16  N   UNL     1       2.287  13.467  21.226  0.00  0.00    +0.000 NA
ATOM     17  C   UNL     1       2.897  14.077  20.162  0.00  0.00    +0.000 A 
ATOM     18  C   UNL     1       4.253  14.368  19.962  0.00  0.00    +0.000 A 
ATOM     19  C   UNL     1       4.617  15.089  18.820  0.00  0.00    +0.000 A 
ATOM     20  C   UNL     1       3.651  15.512  17.902  0.00  0.00    +0.000 A 
ATOM     21  C   UNL     1       2.296  15.201  18.071  0.00  0.00    +0.000 A 
ATOM     22  C   UNL     1       1.963  14.464  19.208  0.00  0.00    +0.000 A 
ATOM     23  N   UNL     1       0.776  13.962  19.681  0.00  0.00    +0.000 N 
ATOM     24  H   UNL     1      -0.136  14.059  19.262  0.00  0.00    +0.000 HD
ENDBRANCH  14  15
ENDBRANCH   7  10
BRANCH   2  25
ATOM     25  C   UNL     1       2.244   6.877  19.542  0.00  0.00    +0.000 C 
BRANCH  25  26
ATOM     26  N   UNL     1       2.493   5.749  18.659  0.00  0.00    +0.000 N 
ATOM     27  C   UNL     1       1.587   4.788  18.285  0.00  0.00    +0.000 A 
ATOM     28  C   UNL     1       2.237   3.875  17.480  0.00  0.00    +0.000 A 
ATOM     29  C   UNL     1       3.594   4.278  17.379  0.00  0.00    +0.000 A 
ATOM     30  C   UNL     1       4.743   3.779  16.748  0.00  0.00    +0.000 A 
ATOM     31  C   UNL     1       5.933   4.489  16.911  0.00  0.00    +0.000 A 
ATOM     32  C   UNL     1       5.926   5.649  17.673  0.00  0.00    +0.000 A 
ATOM     33  N   UNL     1       4.848   6.181  18.295  0.00  0.00    +0.000 NA
ATOM     34  C   UNL     1       3.726   5.455  18.121  0.00  0.00    +0.000 A 
ENDBRANCH  25  26
ENDBRANCH   2  25
TORSDOF 4
ENDMDL
MODEL 3
REMARK VINA RESULT:      -7.9      2.654      4.783
REMARK  Name = 
REMARK  4 active torsions:
REMARK  status: ('A' for Active; 'I' for Inactive)
REMARK    1  A    between atoms: C_2  and  C_3
REMARK    2  A    between atoms: C_3  and  N_4
REMARK    3  A    between atoms: N_17  and  C_18
REMARK    4  A    between atoms: C_22  and  C_23
REMARK                            x       y       z     vdW  Elec       q    Type
REMARK                         _______ _______ _______ _____ _____    ______ ____
ROOT
ATOM      1  O   UNL     1       2.056   7.381  17.852  0.00  0.00    +0.000 OA
ATOM      2  C   UNL     1       1.915   7.735  19.027  0.00  0.00    +0.000 C 
ATOM      3  N   UNL     1       1.596   9.047  19.358  0.00  0.00    +0.000 N 
ATOM      4  C   UNL     1       1.345  10.003  18.284  0.00  0.00    +0.000 C 
ATOM      5  C   UNL     1      -0.121  10.105  17.885  0.00  0.00    +0.000 C 
ATOM      6  C   UNL     1      -1.129  10.396  18.996  0.00  0.00    +0.000 C 
ATOM      7  N   UNL     1      -0.530  10.953  20.211  0.00  0.00    +0.000 N 
ATOM      8  C   UNL     1       0.062   9.975  21.135  0.00  0.00    +0.000 C 
ATOM      9  C   UNL     1       1.490   9.584  20.725  0.00  0.00    +0.000 C 
ENDROOT
BRANCH   7  10
ATOM     10  C   UNL     1      -0.683  12.274  20.571  0.00  0.00    +0.000 A 
ATOM     11  S   UNL     1       0.644  13.194  21.224  0.00  0.00    +0.000 S 
ATOM     12  C   UNL     1      -0.280  14.625  21.129  0.00  0.00    +0.000 A 
ATOM     13  N   UNL     1      -1.501  14.504  20.666  0.00  0.00    +0.000 NA
ATOM     14  C   UNL     1      -1.766  13.153  20.463  0.00  0.00    +0.000 A 
BRANCH  14  15
ATOM     15  C   UNL     1      -3.163  12.743  20.129  0.00  0.00    +0.000 A 
ATOM     16  N   UNL     1      -4.170  12.651  20.974  0.00  0.00    +0.000 NA
ATOM     17  C   UNL     1      -5.200  12.102  20.257  0.00  0.00    +0.000 A 
ATOM     18  C   UNL     1      -6.492  11.760  20.676  0.00  0.00    +0.000 A 
ATOM     19  C   UNL     1      -7.340  11.120  19.765  0.00  0.00    +0.000 A 
ATOM     20  C   UNL     1      -6.906  10.826  18.469  0.00  0.00    +0.000 A 
ATOM     21  C   UNL     1      -5.629  11.191  18.025  0.00  0.00    +0.000 A 
ATOM     22  C   UNL     1      -4.812  11.846  18.947  0.00  0.00    +0.000 A 
ATOM     23  N   UNL     1      -3.544  12.366  18.867  0.00  0.00    +0.000 N 
ATOM     24  H   UNL     1      -2.929  12.353  18.067  0.00  0.00    +0.000 HD
ENDBRANCH  14  15
ENDBRANCH   7  10
BRANCH   2  25
ATOM     25  C   UNL     1       2.067   6.711  20.134  0.00  0.00    +0.000 C 
BRANCH  25  26
ATOM     26  N   UNL     1       2.859   5.550  19.760  0.00  0.00    +0.000 N 
ATOM     27  C   UNL     1       4.212   5.523  19.528  0.00  0.00    +0.000 A 
ATOM     28  C   UNL     1       4.559   4.242  19.152  0.00  0.00    +0.000 A 
ATOM     29  C   UNL     1       3.371   3.464  19.128  0.00  0.00    +0.000 A 
ATOM     30  C   UNL     1       3.050   2.135  18.813  0.00  0.00    +0.000 A 
ATOM     31  C   UNL     1       1.712   1.752  18.904  0.00  0.00    +0.000 A 
ATOM     32  C   UNL     1       0.770   2.688  19.307  0.00  0.00    +0.000 A 
ATOM     33  N   UNL     1       1.023   3.976  19.632  0.00  0.00    +0.000 NA
ATOM     34  C   UNL     1       2.325   4.304  19.517  0.00  0.00    +0.000 A 
ENDBRANCH  25  26
ENDBRANCH   2  25
TORSDOF 4
ENDMDL
MODEL 4
REMARK VINA RESULT:      -7.8      2.752      5.018
REMARK  Name = 
REMARK  4 active torsions:
REMARK  status: ('A' for Active; 'I' for Inactive)
REMARK    1  A    between atoms: C_2  and  C_3
REMARK    2  A    between atoms: C_3  and  N_4
REMARK    3  A    between atoms: N_17  and  C_18
REMARK    4  A    between atoms: C_22  and  C_23
REMARK                            x       y       z     vdW  Elec       q    Type
REMARK                         _______ _______ _______ _____ _____    ______ ____
ROOT
ATOM      1  O   UNL     1       2.114   7.164  18.336  0.00  0.00    +0.000 OA
ATOM      2  C   UNL     1       1.874   7.596  19.468  0.00  0.00    +0.000 C 
ATOM      3  N   UNL     1       1.580   8.937  19.688  0.00  0.00    +0.000 N 
ATOM      4  C   UNL     1       1.475   9.833  18.540  0.00  0.00    +0.000 C 
ATOM      5  C   UNL     1       0.061   9.962  17.990  0.00  0.00    +0.000 C 
ATOM      6  C   UNL     1      -1.038  10.358  18.976  0.00  0.00    +0.000 C 
ATOM      7  N   UNL     1      -0.537  10.969  20.210  0.00  0.00    +0.000 N 
ATOM      8  C   UNL     1      -0.080  10.030  21.245  0.00  0.00    +0.000 C 
ATOM      9  C   UNL     1       1.363   9.563  21.003  0.00  0.00    +0.000 C 
ENDROOT
BRANCH   7  10
ATOM     10  C   UNL     1      -0.669  12.314  20.474  0.00  0.00    +0.000 A 
ATOM     11  S   UNL     1       0.677  13.261  21.043  0.00  0.00    +0.000 S 
ATOM     12  C   UNL     1      -0.230  14.693  20.855  0.00  0.00    +0.000 A 
ATOM     13  N   UNL     1      -1.458  14.555  20.416  0.00  0.00    +0.000 NA
ATOM     14  C   UNL     1      -1.743  13.197  20.315  0.00  0.00    +0.000 A 
BRANCH  14  15
ATOM     15  C   UNL     1      -3.149  12.783  20.028  0.00  0.00    +0.000 A 
ATOM     16  N   UNL     1      -4.128  12.693  20.906  0.00  0.00    +0.000 NA
ATOM     17  C   UNL     1      -5.179  12.139  20.225  0.00  0.00    +0.000 A 
ATOM     18  C   UNL     1      -6.456  11.796  20.687  0.00  0.00    +0.000 A 
ATOM     19  C   UNL     1      -7.332  11.150  19.807  0.00  0.00    +0.000 A 
ATOM     20  C   UNL     1      -6.939  10.850  18.500  0.00  0.00    +0.000 A 
ATOM     21  C   UNL     1      -5.678  11.216  18.012  0.00  0.00    +0.000 A 
ATOM     22  C   UNL     1      -4.833  11.877  18.904  0.00  0.00    +0.000 A 
ATOM     23  N   UNL     1      -3.570  12.399  18.781  0.00  0.00    +0.000 N 
ATOM     24  H   UNL     1      -2.981  12.383  17.962  0.00  0.00    +0.000 HD
ENDBRANCH  14  15
ENDBRANCH   7  10
BRANCH   2  25
ATOM     25  C   UNL     1       1.874   6.639  20.643  0.00  0.00    +0.000 C 
BRANCH  25  26
ATOM     26  N   UNL     1       1.809   5.237  20.263  0.00  0.00    +0.000 N 
ATOM     27  C   UNL     1       0.712   4.416  20.351  0.00  0.00    +0.000 A 
ATOM     28  C   UNL     1       1.085   3.154  19.935  0.00  0.00    +0.000 A 
ATOM     29  C   UNL     1       2.465   3.200  19.605  0.00  0.00    +0.000 A 
ATOM     30  C   UNL     1       3.418   2.275  19.155  0.00  0.00    +0.000 A 
ATOM     31  C   UNL     1       4.721   2.731  18.956  0.00  0.00    +0.000 A 
ATOM     32  C   UNL     1       5.012   4.066  19.199  0.00  0.00    +0.000 A 
ATOM     33  N   UNL     1       4.132   5.003  19.622  0.00  0.00    +0.000 NA
ATOM     34  C   UNL     1       2.891   4.514  19.813  0.00  0.00    +0.000 A 
ENDBRANCH  25  26
ENDBRANCH   2  25
TORSDOF 4
ENDMDL
MODEL 5
REMARK VINA RESULT:      -7.8      3.842      7.812
REMARK  Name = 
REMARK  4 active torsions:
REMARK  status: ('A' for Active; 'I' for Inactive)
REMARK    1  A    between atoms: C_2  and  C_3
REMARK    2  A    between atoms: C_3  and  N_4
REMARK    3  A    between atoms: N_17  and  C_18
REMARK    4  A    between atoms: C_22  and  C_23
REMARK                            x       y       z     vdW  Elec       q    Type
REMARK                         _______ _______ _______ _____ _____    ______ ____
ROOT
ATOM      1  O   UNL     1       6.442  17.225  18.704  0.00  0.00    +0.000 OA
ATOM      2  C   UNL     1       6.085  16.323  19.469  0.00  0.00    +0.000 C 
ATOM      3  N   UNL     1       4.748  16.138  19.803  0.00  0.00    +0.000 N 
ATOM      4  C   UNL     1       3.741  16.983  19.168  0.00  0.00    +0.000 C 
ATOM      5  C   UNL     1       3.155  16.387  17.895  0.00  0.00    +0.000 C 
ATOM      6  C   UNL     1       2.572  14.977  17.988  0.00  0.00    +0.000 C 
ATOM      7  N   UNL     1       2.267  14.549  19.355  0.00  0.00    +0.000 N 
ATOM      8  C   UNL     1       3.404  14.026  20.126  0.00  0.00    +0.000 C 
ATOM      9  C   UNL     1       4.234  15.150  20.766  0.00  0.00    +0.000 C 
ENDROOT
BRANCH   7  10
ATOM     10  C   UNL     1       0.977  14.448  19.827  0.00  0.00    +0.000 A 
ATOM     11  S   UNL     1       0.118  15.842  20.420  0.00  0.00    +0.000 S 
ATOM     12  C   UNL     1      -1.321  14.933  20.521  0.00  0.00    +0.000 A 
ATOM     13  N   UNL     1      -1.244  13.673  20.167  0.00  0.00    +0.000 NA
ATOM     14  C   UNL     1       0.085  13.371  19.889  0.00  0.00    +0.000 A 
BRANCH  14  15
ATOM     15  C   UNL     1       0.460  11.944  19.659  0.00  0.00    +0.000 A 
ATOM     16  N   UNL     1       0.448  10.981  20.559  0.00  0.00    +0.000 NA
ATOM     17  C   UNL     1       1.004   9.894  19.938  0.00  0.00    +0.000 A 
ATOM     18  C   UNL     1       1.261   8.615  20.448  0.00  0.00    +0.000 A 
ATOM     19  C   UNL     1       1.930   7.695  19.632  0.00  0.00    +0.000 A 
ATOM     20  C   UNL     1       2.334   8.047  18.341  0.00  0.00    +0.000 A 
ATOM     21  C   UNL     1       2.056   9.311  17.805  0.00  0.00    +0.000 A 
ATOM     22  C   UNL     1       1.370  10.201  18.633  0.00  0.00    +0.000 A 
ATOM     23  N   UNL     1       0.911  11.481  18.449  0.00  0.00    +0.000 N 
ATOM     24  H   UNL     1       1.008  12.051  17.622  0.00  0.00    +0.000 HD
ENDBRANCH  14  15
ENDBRANCH   7  10
BRANCH   2  25
ATOM     25  C   UNL     1       7.125  15.377  20.038  0.00  0.00    +0.000 C 
BRANCH  25  26
ATOM     26  N   UNL     1       7.631  14.409  19.078  0.00  0.00    +0.000 N 
ATOM     27  C   UNL     1       7.109  14.139  17.837  0.00  0.00    +0.000 A 
ATOM     28  C   UNL     1       7.853  13.126  17.269  0.00  0.00    +0.000 A 
ATOM     29  C   UNL     1       8.850  12.746  18.206  0.00  0.00    +0.000 A 
ATOM     30  C   UNL     1       9.876  11.790  18.245  0.00  0.00    +0.000 A 
ATOM     31  C   UNL     1      10.656  11.724  19.399  0.00  0.00    +0.000 A 
ATOM     32  C   UNL     1      10.395  12.603  20.441  0.00  0.00    +0.000 A 
ATOM     33  N   UNL     1       9.429  13.550  20.453  0.00  0.00    +0.000 NA
ATOM     34  C   UNL     1       8.692  13.568  19.325  0.00  0.00    +0.000 A 
ENDBRANCH  25  26
ENDBRANCH   2  25
TORSDOF 4
ENDMDL
MODEL 6
REMARK VINA RESULT:      -7.5      2.913      5.194
REMARK  Name = 
REMARK  4 active torsions:
REMARK  status: ('A' for Active; 'I' for Inactive)
REMARK    1  A    between atoms: C_2  and  C_3
REMARK    2  A    between atoms: C_3  and  N_4
REMARK    3  A    between atoms: N_17  and  C_18
REMARK    4  A    between atoms: C_22  and  C_23
REMARK                            x       y       z     vdW  Elec       q    Type
REMARK                         _______ _______ _______ _____ _____    ______ ____
ROOT
ATOM      1  O   UNL     1       2.024   7.303  18.296  0.00  0.00    +0.000 OA
ATOM      2  C   UNL     1       1.811   7.754  19.426  0.00  0.00    +0.000 C 
ATOM      3  N   UNL     1       1.502   9.094  19.628  0.00  0.00    +0.000 N 
ATOM      4  C   UNL     1       1.348   9.965  18.467  0.00  0.00    +0.000 C 
ATOM      5  C   UNL     1      -0.085  10.060  17.959  0.00  0.00    +0.000 C 
ATOM      6  C   UNL     1      -1.159  10.459  18.970  0.00  0.00    +0.000 C 
ATOM      7  N   UNL     1      -0.632  11.102  20.176  0.00  0.00    +0.000 N 
ATOM      8  C   UNL     1      -0.128  10.191  21.214  0.00  0.00    +0.000 C 
ATOM      9  C   UNL     1       1.315   9.742  20.938  0.00  0.00    +0.000 C 
ENDROOT
BRANCH   7  10
ATOM     10  C   UNL     1      -0.778  12.450  20.418  0.00  0.00    +0.000 A 
ATOM     11  S   UNL     1       0.605  13.483  20.651  0.00  0.00    +0.000 S 
ATOM     12  C   UNL     1      -0.399  14.862  20.615  0.00  0.00    +0.000 A 
ATOM     13  N   UNL     1      -1.683  14.647  20.457  0.00  0.00    +0.000 NA
ATOM     14  C   UNL     1      -1.907  13.275  20.465  0.00  0.00    +0.000 A 
BRANCH  14  15
ATOM     15  C   UNL     1      -3.317  12.782  20.503  0.00  0.00    +0.000 A 
ATOM     16  N   UNL     1      -3.999  12.296  19.486  0.00  0.00    +0.000 NA
ATOM     17  C   UNL     1      -5.274  12.118  19.954  0.00  0.00    +0.000 A 
ATOM     18  C   UNL     1      -6.412  11.656  19.279  0.00  0.00    +0.000 A 
ATOM     19  C   UNL     1      -7.634  11.652  19.961  0.00  0.00    +0.000 A 
ATOM     20  C   UNL     1      -7.718  12.102  21.281  0.00  0.00    +0.000 A 
ATOM     21  C   UNL     1      -6.584  12.536  21.979  0.00  0.00    +0.000 A 
ATOM     22  C   UNL     1      -5.375  12.511  21.283  0.00  0.00    +0.000 A 
ATOM     23  N   UNL     1      -4.087  12.825  21.637  0.00  0.00    +0.000 N 
ATOM     24  H   UNL     1      -3.767  13.170  22.529  0.00  0.00    +0.000 HD
ENDBRANCH  14  15
ENDBRANCH   7  10
BRANCH   2  25
ATOM     25  C   UNL     1       1.863   6.821  20.619  0.00  0.00    +0.000 C 
BRANCH  25  26
ATOM     26  N   UNL     1       1.851   5.410  20.266  0.00  0.00    +0.000 N 
ATOM     27  C   UNL     1       0.788   4.548  20.380  0.00  0.00    +0.000 A 
ATOM     28  C   UNL     1       1.207   3.294  19.985  0.00  0.00    +0.000 A 
ATOM     29  C   UNL     1       2.582   3.388  19.641  0.00  0.00    +0.000 A 
ATOM     30  C   UNL     1       3.568   2.493  19.201  0.00  0.00    +0.000 A 
ATOM     31  C   UNL     1       4.850   2.996  18.982  0.00  0.00    +0.000 A 
ATOM     32  C   UNL     1       5.089   4.346  19.197  0.00  0.00    +0.000 A 
ATOM     33  N   UNL     1       4.176   5.255  19.610  0.00  0.00    +0.000 NA
ATOM     34  C   UNL     1       2.957   4.722  19.821  0.00  0.00    +0.000 A 
ENDBRANCH  25  26
ENDBRANCH   2  25
TORSDOF 4
ENDMDL
MODEL 7
REMARK VINA RESULT:      -7.5      2.751      4.855
REMARK  Name = 
REMARK  4 active torsions:
REMARK  status: ('A' for Active; 'I' for Inactive)
REMARK    1  A    between atoms: C_2  and  C_3
REMARK    2  A    between atoms: C_3  and  N_4
REMARK    3  A    between atoms: N_17  and  C_18
REMARK    4  A    between atoms: C_22  and  C_23
REMARK                            x       y       z     vdW  Elec       q    Type
REMARK                         _______ _______ _______ _____ _____    ______ ____
ROOT
ATOM      1  O   UNL     1       2.198   7.377  17.804  0.00  0.00    +0.000 OA
ATOM      2  C   UNL     1       2.035   7.714  18.980  0.00  0.00    +0.000 C 
ATOM      3  N   UNL     1       1.702   9.019  19.325  0.00  0.00    +0.000 N 
ATOM      4  C   UNL     1       1.463   9.989  18.260  0.00  0.00    +0.000 C 
ATOM      5  C   UNL     1       0.003  10.087  17.837  0.00  0.00    +0.000 C 
ATOM      6  C   UNL     1      -1.026  10.355  18.935  0.00  0.00    +0.000 C 
ATOM      7  N   UNL     1      -0.451  10.899  20.168  0.00  0.00    +0.000 N 
ATOM      8  C   UNL     1       0.131   9.912  21.088  0.00  0.00    +0.000 C 
ATOM      9  C   UNL     1       1.569   9.536  20.697  0.00  0.00    +0.000 C 
ENDROOT
BRANCH   7  10
ATOM     10  C   UNL     1      -0.620  12.214  20.544  0.00  0.00    +0.000 A 
ATOM     11  S   UNL     1       0.721  13.174  21.103  0.00  0.00    +0.000 S 
ATOM     12  C   UNL     1      -0.252  14.575  21.081  0.00  0.00    +0.000 A 
ATOM     13  N   UNL     1      -1.499  14.416  20.707  0.00  0.00    +0.000 NA
ATOM     14  C   UNL     1      -1.735  13.058  20.518  0.00  0.00    +0.000 A 
BRANCH  14  15
ATOM     15  C   UNL     1      -3.139  12.604  20.285  0.00  0.00    +0.000 A 
ATOM     16  N   UNL     1      -3.653  12.227  19.132  0.00  0.00    +0.000 NA
ATOM     17  C   UNL     1      -4.990  12.045  19.371  0.00  0.00    +0.000 A 
ATOM     18  C   UNL     1      -6.009  11.674  18.483  0.00  0.00    +0.000 A 
ATOM     19  C   UNL     1      -7.325  11.645  18.956  0.00  0.00    +0.000 A 
ATOM     20  C   UNL     1      -7.617  11.980  20.282  0.00  0.00    +0.000 A 
ATOM     21  C   UNL     1      -6.606  12.321  21.189  0.00  0.00    +0.000 A 
ATOM     22  C   UNL     1      -5.300  12.322  20.697  0.00  0.00    +0.000 A 
ATOM     23  N   UNL     1      -4.082  12.569  21.280  0.00  0.00    +0.000 N 
ATOM     24  H   UNL     1      -3.907  12.825  22.239  0.00  0.00    +0.000 HD
ENDBRANCH  14  15
ENDBRANCH   7  10
BRANCH   2  25
ATOM     25  C   UNL     1       2.175   6.676  20.076  0.00  0.00    +0.000 C 
BRANCH  25  26
ATOM     26  N   UNL     1       2.964   5.516  19.692  0.00  0.00    +0.000 N 
ATOM     27  C   UNL     1       4.320   5.483  19.479  0.00  0.00    +0.000 A 
ATOM     28  C   UNL     1       4.662   4.206  19.085  0.00  0.00    +0.000 A 
ATOM     29  C   UNL     1       3.470   3.437  19.030  0.00  0.00    +0.000 A 
ATOM     30  C   UNL     1       3.144   2.117  18.688  0.00  0.00    +0.000 A 
ATOM     31  C   UNL     1       1.802   1.742  18.754  0.00  0.00    +0.000 A 
ATOM     32  C   UNL     1       0.861   2.677  19.161  0.00  0.00    +0.000 A 
ATOM     33  N   UNL     1       1.119   3.958  19.512  0.00  0.00    +0.000 NA
ATOM     34  C   UNL     1       2.424   4.278  19.420  0.00  0.00    +0.000 A 
ENDBRANCH  25  26
ENDBRANCH   2  25
TORSDOF 4
ENDMDL
MODEL 8
REMARK VINA RESULT:      -7.5      1.089      1.144
REMARK  Name = 
REMARK  4 active torsions:
REMARK  status: ('A' for Active; 'I' for Inactive)
REMARK    1  A    between atoms: C_2  and  C_3
REMARK    2  A    between atoms: C_3  and  N_4
REMARK    3  A    between atoms: N_17  and  C_18
REMARK    4  A    between atoms: C_22  and  C_23
REMARK                            x       y       z     vdW  Elec       q    Type
REMARK                         _______ _______ _______ _____ _____    ______ ____
ROOT
ATOM      1  O   UNL     1       1.639   9.271  17.445  0.00  0.00    +0.000 OA
ATOM      2  C   UNL     1       1.555   9.144  18.671  0.00  0.00    +0.000 C 
ATOM      3  N   UNL     1       1.238  10.219  19.494  0.00  0.00    +0.000 N 
ATOM      4  C   UNL     1       0.919  11.505  18.882  0.00  0.00    +0.000 C 
ATOM      5  C   UNL     1      -0.567  11.706  18.616  0.00  0.00    +0.000 C 
ATOM      6  C   UNL     1      -1.519  11.517  19.797  0.00  0.00    +0.000 C 
ATOM      7  N   UNL     1      -0.864  11.585  21.105  0.00  0.00    +0.000 N 
ATOM      8  C   UNL     1      -0.213  10.347  21.556  0.00  0.00    +0.000 C 
ATOM      9  C   UNL     1       1.197  10.188  20.966  0.00  0.00    +0.000 C 
ENDROOT
BRANCH   7  10
ATOM     10  C   UNL     1      -1.015  12.662  21.951  0.00  0.00    +0.000 A 
ATOM     11  S   UNL     1      -2.354  12.762  23.060  0.00  0.00    +0.000 S 
ATOM     12  C   UNL     1      -1.657  14.129  23.803  0.00  0.00    +0.000 A 
ATOM     13  N   UNL     1      -0.517  14.547  23.310  0.00  0.00    +0.000 NA
ATOM     14  C   UNL     1      -0.215  13.786  22.185  0.00  0.00    +0.000 A 
BRANCH  14  15
ATOM     15  C   UNL     1       0.935  14.203  21.328  0.00  0.00    +0.000 A 
ATOM     16  N   UNL     1       2.211  13.998  21.586  0.00  0.00    +0.000 NA
ATOM     17  C   UNL     1       2.893  14.676  20.610  0.00  0.00    +0.000 A 
ATOM     18  C   UNL     1       4.275  14.817  20.428  0.00  0.00    +0.000 A 
ATOM     19  C   UNL     1       4.728  15.647  19.396  0.00  0.00    +0.000 A 
ATOM     20  C   UNL     1       3.824  16.321  18.570  0.00  0.00    +0.000 A 
ATOM     21  C   UNL     1       2.440  16.164  18.720  0.00  0.00    +0.000 A 
ATOM     22  C   UNL     1       2.016  15.315  19.743  0.00  0.00    +0.000 A 
ATOM     23  N   UNL     1       0.775  14.905  20.161  0.00  0.00    +0.000 N 
ATOM     24  H   UNL     1      -0.118  15.177  19.779  0.00  0.00    +0.000 HD
ENDBRANCH  14  15
ENDBRANCH   7  10
BRANCH   2  25
ATOM     25  C   UNL     1       1.778   7.780  19.293  0.00  0.00    +0.000 C 
BRANCH  25  26
ATOM     26  N   UNL     1       2.859   7.022  18.682  0.00  0.00    +0.000 N 
ATOM     27  C   UNL     1       3.657   7.430  17.642  0.00  0.00    +0.000 A 
ATOM     28  C   UNL     1       4.523   6.401  17.335  0.00  0.00    +0.000 A 
ATOM     29  C   UNL     1       4.226   5.316  18.201  0.00  0.00    +0.000 A 
ATOM     30  C   UNL     1       4.714   4.012  18.377  0.00  0.00    +0.000 A 
ATOM     31  C   UNL     1       4.122   3.227  19.366  0.00  0.00    +0.000 A 
ATOM     32  C   UNL     1       3.096   3.765  20.130  0.00  0.00    +0.000 A 
ATOM     33  N   UNL     1       2.594   5.016  20.011  0.00  0.00    +0.000 NA
ATOM     34  C   UNL     1       3.186   5.733  19.036  0.00  0.00    +0.000 A 
ENDBRANCH  25  26
ENDBRANCH   2  25
TORSDOF 4
ENDMDL
MODEL 9
REMARK VINA RESULT:      -7.4      0.406      1.090
REMARK  Name = 
REMARK  4 active torsions:
REMARK  status: ('A' for Active; 'I' for Inactive)
REMARK    1  A    between atoms: C_2  and  C_3
REMARK    2  A    between atoms: C_3  and  N_4
REMARK    3  A    between atoms: N_17  and  C_18
REMARK    4  A    between atoms: C_22  and  C_23
REMARK                            x       y       z     vdW  Elec       q    Type
REMARK                         _______ _______ _______ _____ _____    ______ ____
ROOT
ATOM      1  O   UNL     1       1.967   8.833  18.000  0.00  0.00    +0.000 OA
ATOM      2  C   UNL     1       1.762   8.762  19.216  0.00  0.00    +0.000 C 
ATOM      3  N   UNL     1       1.371   9.873  19.955  0.00  0.00    +0.000 N 
ATOM      4  C   UNL     1       1.121  11.130  19.257  0.00  0.00    +0.000 C 
ATOM      5  C   UNL     1      -0.331  11.319  18.837  0.00  0.00    +0.000 C 
ATOM      6  C   UNL     1      -1.396  11.185  19.926  0.00  0.00    +0.000 C 
ATOM      7  N   UNL     1      -0.872  11.312  21.288  0.00  0.00    +0.000 N 
ATOM      8  C   UNL     1      -0.274  10.095  21.856  0.00  0.00    +0.000 C 
ATOM      9  C   UNL     1       1.185   9.909  21.415  0.00  0.00    +0.000 C 
ENDROOT
BRANCH   7  10
ATOM     10  C   UNL     1      -1.100  12.426  22.065  0.00  0.00    +0.000 A 
ATOM     11  S   UNL     1      -2.377  12.459  23.249  0.00  0.00    +0.000 S 
ATOM     12  C   UNL     1      -1.804  13.949  23.850  0.00  0.00    +0.000 A 
ATOM     13  N   UNL     1      -0.749  14.453  23.256  0.00  0.00    +0.000 NA
ATOM     14  C   UNL     1      -0.425  13.648  22.169  0.00  0.00    +0.000 A 
BRANCH  14  15
ATOM     15  C   UNL     1       0.619  14.125  21.213  0.00  0.00    +0.000 A 
ATOM     16  N   UNL     1       0.407  14.595  20.000  0.00  0.00    +0.000 NA
ATOM     17  C   UNL     1       1.650  14.764  19.452  0.00  0.00    +0.000 A 
ATOM     18  C   UNL     1       2.004  15.208  18.171  0.00  0.00    +0.000 A 
ATOM     19  C   UNL     1       3.358  15.205  17.816  0.00  0.00    +0.000 A 
ATOM     20  C   UNL     1       4.333  14.767  18.716  0.00  0.00    +0.000 A 
ATOM     21  C   UNL     1       3.998  14.351  20.011  0.00  0.00    +0.000 A 
ATOM     22  C   UNL     1       2.644  14.383  20.346  0.00  0.00    +0.000 A 
ATOM     23  N   UNL     1       1.960  14.085  21.498  0.00  0.00    +0.000 N 
ATOM     24  H   UNL     1       2.346  13.753  22.368  0.00  0.00    +0.000 HD
ENDBRANCH  14  15
ENDBRANCH   7  10
BRANCH   2  25
ATOM     25  C   UNL     1       1.916   7.427  19.917  0.00  0.00    +0.000 C 
BRANCH  25  26
ATOM     26  N   UNL     1       2.484   6.382  19.080  0.00  0.00    +0.000 N 
ATOM     27  C   UNL     1       3.437   6.544  18.105  0.00  0.00    +0.000 A 
ATOM     28  C   UNL     1       3.663   5.316  17.517  0.00  0.00    +0.000 A 
ATOM     29  C   UNL     1       2.799   4.376  18.137  0.00  0.00    +0.000 A 
ATOM     30  C   UNL     1       2.533   3.007  17.984  0.00  0.00    +0.000 A 
ATOM     31  C   UNL     1       1.564   2.439  18.811  0.00  0.00    +0.000 A 
ATOM     32  C   UNL     1       0.921   3.239  19.745  0.00  0.00    +0.000 A 
ATOM     33  N   UNL     1       1.144   4.559  19.943  0.00  0.00    +0.000 NA
ATOM     34  C   UNL     1       2.077   5.067  19.114  0.00  0.00    +0.000 A 
ENDBRANCH  25  26
ENDBRANCH   2  25
TORSDOF 4
ENDMDL
