MODEL 1
REMARK VINA RESULT:      -8.9      0.000      0.000
REMARK  Name = 
REMARK  8 active torsions:
REMARK  status: ('A' for Active; 'I' for Inactive)
REMARK    1  A    between atoms: C_1  and  C_2
REMARK    2  A    between atoms: C_4  and  C_5
REMARK    3  A    between atoms: N_7  and  C_8
REMARK    4  A    between atoms: C_8  and  C_9
REMARK    5  A    between atoms: C_12  and  C_13
REMARK    6  A    between atoms: C_14  and  C_15
REMARK    7  A    between atoms: C_18  and  C_19
REMARK    8  A    between atoms: N_22  and  C_23
REMARK                            x       y       z     vdW  Elec       q    Type
REMARK                         _______ _______ _______ _____ _____    ______ ____
ROOT
ATOM      1  C   UNL     1       7.510   5.689  17.776  0.00  0.00    +0.000 C 
ATOM      2  O   UNL     1       7.853   4.973  18.710  0.00  0.00    +0.000 OA
ATOM      3  N   UNL     1       7.758   7.040  17.786  0.00  0.00    +0.000 N 
ATOM      4  H   UNL     1       7.586   7.593  16.962  0.00  0.00    +0.000 HD
ENDROOT
BRANCH   1   8
ATOM      5  C   UNL     1       6.244   3.906  13.220  0.00  0.00    +0.000 C 
ATOM      6  C   UNL     1       6.253   4.353  14.634  0.00  0.00    +0.000 A 
ATOM      7  C   UNL     1       7.265   5.056  15.314  0.00  0.00    +0.000 A 
ATOM      8  C   UNL     1       6.811   5.201  16.614  0.00  0.00    +0.000 A 
ATOM      9  N   UNL     1       5.527   4.670  16.623  0.00  0.00    +0.000 N 
ATOM     10  N   UNL     1       5.230   4.065  15.440  0.00  0.00    +0.000 NA
BRANCH   9  11
ATOM     11  C   UNL     1       4.546   4.697  17.659  0.00  0.00    +0.000 A 
ATOM     12  C   UNL     1       4.470   3.676  18.618  0.00  0.00    +0.000 A 
ATOM     13  C   UNL     1       3.420   3.653  19.539  0.00  0.00    +0.000 A 
ATOM     14  C   UNL     1       2.461   4.662  19.521  0.00  0.00    +0.000 A 
ATOM     15 CL   UNL     1       1.128   4.590  20.606  0.00  0.00    +0.000 Cl
ATOM     16  C   UNL     1       2.571   5.722  18.620  0.00  0.00    +0.000 A 
ATOM     17  C   UNL     1       3.623   5.750  17.700  0.00  0.00    +0.000 A 
ENDBRANCH   9  11
ENDBRANCH   1   8
BRANCH   3  18
ATOM     18  C   UNL     1       8.388   7.670  18.923  0.00  0.00    +0.000 C 
BRANCH  18  19
ATOM     19  C   UNL     1       8.639   9.131  18.672  0.00  0.00    +0.000 A 
ATOM     20  C   UNL     1       9.505   9.853  19.494  0.00  0.00    +0.000 A 
ATOM     21  C   UNL     1       9.748  11.208  19.246  0.00  0.00    +0.000 A 
ATOM     22  C   UNL     1       9.095  11.887  18.205  0.00  0.00    +0.000 A 
ATOM     23  C   UNL     1       8.199  11.164  17.411  0.00  0.00    +0.000 A 
ATOM     24  C   UNL     1       7.986   9.799  17.628  0.00  0.00    +0.000 A 
BRANCH  22  25
ATOM     25  C   UNL     1       9.346  13.302  17.949  0.00  0.00    +0.000 A 
ATOM     26  C   UNL     1       8.549  14.464  18.183  0.00  0.00    +0.000 A 
ATOM     27  C   UNL     1       7.187  14.609  18.756  0.00  0.00    +0.000 C 
ATOM     28  N   UNL     1       9.183  15.576  17.799  0.00  0.00    +0.000 NA
ATOM     29  O   UNL     1      10.401  15.168  17.305  0.00  0.00    +0.000 OA
ATOM     30  C   UNL     1      10.505  13.818  17.396  0.00  0.00    +0.000 A 
ATOM     31  C   UNL     1      11.789  13.264  16.914  0.00  0.00    +0.000 C 
ENDBRANCH  22  25
ENDBRANCH  18  19
ENDBRANCH   3  18
TORSDOF 5
ENDMDL
MODEL 2
REMARK VINA RESULT:      -8.8      0.366      1.725
REMARK  Name = 
REMARK  8 active torsions:
REMARK  status: ('A' for Active; 'I' for Inactive)
REMARK    1  A    between atoms: C_1  and  C_2
REMARK    2  A    between atoms: C_4  and  C_5
REMARK    3  A    between atoms: N_7  and  C_8
REMARK    4  A    between atoms: C_8  and  C_9
REMARK    5  A    between atoms: C_12  and  C_13
REMARK    6  A    between atoms: C_14  and  C_15
REMARK    7  A    between atoms: C_18  and  C_19
REMARK    8  A    between atoms: N_22  and  C_23
REMARK                            x       y       z     vdW  Elec       q    Type
REMARK                         _______ _______ _______ _____ _____    ______ ____
ROOT
ATOM      1  C   UNL     1       7.510   5.692  17.787  0.00  0.00    +0.000 C 
ATOM      2  O   UNL     1       7.869   4.980  18.718  0.00  0.00    +0.000 OA
ATOM      3  N   UNL     1       7.738   7.046  17.797  0.00  0.00    +0.000 N 
ATOM      4  H   UNL     1       7.553   7.598  16.973  0.00  0.00    +0.000 HD
ENDROOT
BRANCH   1   8
ATOM      5  C   UNL     1       6.246   3.874  13.244  0.00  0.00    +0.000 C 
ATOM      6  C   UNL     1       6.254   4.331  14.654  0.00  0.00    +0.000 A 
ATOM      7  C   UNL     1       7.266   5.040  15.329  0.00  0.00    +0.000 A 
ATOM      8  C   UNL     1       6.812   5.195  16.628  0.00  0.00    +0.000 A 
ATOM      9  N   UNL     1       5.528   4.664  16.640  0.00  0.00    +0.000 N 
ATOM     10  N   UNL     1       5.231   4.049  15.462  0.00  0.00    +0.000 NA
BRANCH   9  11
ATOM     11  C   UNL     1       4.547   4.698  17.675  0.00  0.00    +0.000 A 
ATOM     12  C   UNL     1       4.512   3.721  18.681  0.00  0.00    +0.000 A 
ATOM     13  C   UNL     1       3.464   3.698  19.604  0.00  0.00    +0.000 A 
ATOM     14  C   UNL     1       2.465   4.664  19.541  0.00  0.00    +0.000 A 
ATOM     15 CL   UNL     1       1.136   4.588  20.631  0.00  0.00    +0.000 Cl
ATOM     16  C   UNL     1       2.531   5.684  18.592  0.00  0.00    +0.000 A 
ATOM     17  C   UNL     1       3.581   5.714  17.669  0.00  0.00    +0.000 A 
ENDBRANCH   9  11
ENDBRANCH   1   8
BRANCH   3  18
ATOM     18  C   UNL     1       8.366   7.685  18.930  0.00  0.00    +0.000 C 
BRANCH  18  19
ATOM     19  C   UNL     1       8.639   9.139  18.660  0.00  0.00    +0.000 A 
ATOM     20  C   UNL     1       7.995   9.799  17.614  0.00  0.00    +0.000 A 
ATOM     21  C   UNL     1       8.240  11.155  17.378  0.00  0.00    +0.000 A 
ATOM     22  C   UNL     1       9.170  11.872  18.147  0.00  0.00    +0.000 A 
ATOM     23  C   UNL     1       9.840  11.192  19.169  0.00  0.00    +0.000 A 
ATOM     24  C   UNL     1       9.566   9.847  19.436  0.00  0.00    +0.000 A 
BRANCH  22  25
ATOM     25  C   UNL     1       9.428  13.287  17.898  0.00  0.00    +0.000 A 
ATOM     26  C   UNL     1      10.579  13.967  17.395  0.00  0.00    +0.000 A 
ATOM     27  C   UNL     1      11.905  13.451  16.971  0.00  0.00    +0.000 C 
ATOM     28  N   UNL     1      10.373  15.286  17.320  0.00  0.00    +0.000 NA
ATOM     29  O   UNL     1       9.091  15.497  17.773  0.00  0.00    +0.000 OA
ATOM     30  C   UNL     1       8.522  14.312  18.114  0.00  0.00    +0.000 A 
ATOM     31  C   UNL     1       7.128  14.412  18.594  0.00  0.00    +0.000 C 
ENDBRANCH  22  25
ENDBRANCH  18  19
ENDBRANCH   3  18
TORSDOF 5
ENDMDL
MODEL 3
REMARK VINA RESULT:      -8.7      0.658      1.135
REMARK  Name = 
REMARK  8 active torsions:
REMARK  status: ('A' for Active; 'I' for Inactive)
REMARK    1  A    between atoms: C_1  and  C_2
REMARK    2  A    between atoms: C_4  and  C_5
REMARK    3  A    between atoms: N_7  and  C_8
REMARK    4  A    between atoms: C_8  and  C_9
REMARK    5  A    between atoms: C_12  and  C_13
REMARK    6  A    between atoms: C_14  and  C_15
REMARK    7  A    between atoms: C_18  and  C_19
REMARK    8  A    between atoms: N_22  and  C_23
REMARK                            x       y       z     vdW  Elec       q    Type
REMARK                         _______ _______ _______ _____ _____    ______ ____
ROOT
ATOM      1  C   UNL     1       7.432   5.828  17.800  0.00  0.00    +0.000 C 
ATOM      2  O   UNL     1       7.687   5.125  18.771  0.00  0.00    +0.000 OA
ATOM      3  N   UNL     1       7.798   7.152  17.763  0.00  0.00    +0.000 N 
ATOM      4  H   UNL     1       7.696   7.683  16.912  0.00  0.00    +0.000 HD
ENDROOT
BRANCH   1   8
ATOM      5  C   UNL     1       6.110   3.759  13.383  0.00  0.00    +0.000 C 
ATOM      6  C   UNL     1       6.123   4.386  14.726  0.00  0.00    +0.000 A 
ATOM      7  C   UNL     1       7.222   4.928  15.419  0.00  0.00    +0.000 A 
ATOM      8  C   UNL     1       6.723   5.354  16.638  0.00  0.00    +0.000 A 
ATOM      9  N   UNL     1       5.352   5.137  16.577  0.00  0.00    +0.000 N 
ATOM     10  N   UNL     1       5.005   4.456  15.450  0.00  0.00    +0.000 NA
BRANCH   9  11
ATOM     11  C   UNL     1       4.334   5.532  17.495  0.00  0.00    +0.000 A 
ATOM     12  C   UNL     1       3.843   6.847  17.520  0.00  0.00    +0.000 A 
ATOM     13  C   UNL     1       2.946   7.244  18.514  0.00  0.00    +0.000 A 
ATOM     14  C   UNL     1       2.518   6.324  19.467  0.00  0.00    +0.000 A 
ATOM     15 CL   UNL     1       1.473   6.835  20.734  0.00  0.00    +0.000 Cl
ATOM     16  C   UNL     1       2.941   4.997  19.405  0.00  0.00    +0.000 A 
ATOM     17  C   UNL     1       3.835   4.594  18.408  0.00  0.00    +0.000 A 
ENDBRANCH   9  11
ENDBRANCH   1   8
BRANCH   3  18
ATOM     18  C   UNL     1       8.452   7.772  18.891  0.00  0.00    +0.000 C 
BRANCH  18  19
ATOM     19  C   UNL     1       8.683   9.239  18.655  0.00  0.00    +0.000 A 
ATOM     20  C   UNL     1       9.559   9.959  19.467  0.00  0.00    +0.000 A 
ATOM     21  C   UNL     1       9.783  11.319  19.232  0.00  0.00    +0.000 A 
ATOM     22  C   UNL     1       9.101  12.005  18.215  0.00  0.00    +0.000 A 
ATOM     23  C   UNL     1       8.194  11.284  17.431  0.00  0.00    +0.000 A 
ATOM     24  C   UNL     1       8.001   9.914  17.635  0.00  0.00    +0.000 A 
BRANCH  22  25
ATOM     25  C   UNL     1       9.332  13.426  17.973  0.00  0.00    +0.000 A 
ATOM     26  C   UNL     1       8.520  14.574  18.221  0.00  0.00    +0.000 A 
ATOM     27  C   UNL     1       7.157  14.695  18.798  0.00  0.00    +0.000 C 
ATOM     28  N   UNL     1       9.138  15.699  17.846  0.00  0.00    +0.000 NA
ATOM     29  O   UNL     1      10.360  15.312  17.345  0.00  0.00    +0.000 OA
ATOM     30  C   UNL     1      10.483  13.963  17.422  0.00  0.00    +0.000 A 
ATOM     31  C   UNL     1      11.773  13.432  16.932  0.00  0.00    +0.000 C 
ENDBRANCH  22  25
ENDBRANCH  18  19
ENDBRANCH   3  18
TORSDOF 5
ENDMDL
MODEL 4
REMARK VINA RESULT:      -8.7      0.950      1.982
REMARK  Name = 
REMARK  8 active torsions:
REMARK  status: ('A' for Active; 'I' for Inactive)
REMARK    1  A    between atoms: C_1  and  C_2
REMARK    2  A    between atoms: C_4  and  C_5
REMARK    3  A    between atoms: N_7  and  C_8
REMARK    4  A    between atoms: C_8  and  C_9
REMARK    5  A    between atoms: C_12  and  C_13
REMARK    6  A    between atoms: C_14  and  C_15
REMARK    7  A    between atoms: C_18  and  C_19
REMARK    8  A    between atoms: N_22  and  C_23
REMARK                            x       y       z     vdW  Elec       q    Type
REMARK                         _______ _______ _______ _____ _____    ______ ____
ROOT
ATOM      1  C   UNL     1       7.401   6.054  17.999  0.00  0.00    +0.000 C 
ATOM      2  O   UNL     1       7.588   5.393  19.013  0.00  0.00    +0.000 OA
ATOM      3  N   UNL     1       7.855   7.347  17.899  0.00  0.00    +0.000 N 
ATOM      4  H   UNL     1       7.807   7.834  17.017  0.00  0.00    +0.000 HD
ENDROOT
BRANCH   1   8
ATOM      5  C   UNL     1       6.050   3.879  13.642  0.00  0.00    +0.000 C 
ATOM      6  C   UNL     1       6.072   4.549  14.964  0.00  0.00    +0.000 A 
ATOM      7  C   UNL     1       7.181   5.082  15.647  0.00  0.00    +0.000 A 
ATOM      8  C   UNL     1       6.687   5.563  16.848  0.00  0.00    +0.000 A 
ATOM      9  N   UNL     1       5.311   5.383  16.783  0.00  0.00    +0.000 N 
ATOM     10  N   UNL     1       4.952   4.675  15.677  0.00  0.00    +0.000 NA
BRANCH   9  11
ATOM     11  C   UNL     1       4.298   5.838  17.679  0.00  0.00    +0.000 A 
ATOM     12  C   UNL     1       3.659   7.073  17.494  0.00  0.00    +0.000 A 
ATOM     13  C   UNL     1       2.770   7.557  18.456  0.00  0.00    +0.000 A 
ATOM     14  C   UNL     1       2.497   6.798  19.590  0.00  0.00    +0.000 A 
ATOM     15 CL   UNL     1       1.460   7.430  20.809  0.00  0.00    +0.000 Cl
ATOM     16  C   UNL     1       3.069   5.535  19.747  0.00  0.00    +0.000 A 
ATOM     17  C   UNL     1       3.956   5.045  18.783  0.00  0.00    +0.000 A 
ENDBRANCH   9  11
ENDBRANCH   1   8
BRANCH   3  18
ATOM     18  C   UNL     1       8.525   7.987  19.006  0.00  0.00    +0.000 C 
BRANCH  18  19
ATOM     19  C   UNL     1       8.754   9.449  18.741  0.00  0.00    +0.000 A 
ATOM     20  C   UNL     1       9.591  10.197  19.569  0.00  0.00    +0.000 A 
ATOM     21  C   UNL     1       9.814  11.552  19.308  0.00  0.00    +0.000 A 
ATOM     22  C   UNL     1       9.170  12.206  18.246  0.00  0.00    +0.000 A 
ATOM     23  C   UNL     1       8.302  11.456  17.444  0.00  0.00    +0.000 A 
ATOM     24  C   UNL     1       8.110  10.091  17.676  0.00  0.00    +0.000 A 
BRANCH  22  25
ATOM     25  C   UNL     1       9.400  13.621  17.976  0.00  0.00    +0.000 A 
ATOM     26  C   UNL     1      10.547  14.319  17.488  0.00  0.00    +0.000 A 
ATOM     27  C   UNL     1      11.896  13.827  17.108  0.00  0.00    +0.000 C 
ATOM     28  N   UNL     1      10.311  15.631  17.382  0.00  0.00    +0.000 NA
ATOM     29  O   UNL     1       9.014  15.819  17.798  0.00  0.00    +0.000 OA
ATOM     30  C   UNL     1       8.465  14.628  18.148  0.00  0.00    +0.000 A 
ATOM     31  C   UNL     1       7.057  14.703  18.591  0.00  0.00    +0.000 C 
ENDBRANCH  22  25
ENDBRANCH  18  19
ENDBRANCH   3  18
TORSDOF 5
ENDMDL
MODEL 5
REMARK VINA RESULT:      -8.5      4.687      7.139
REMARK  Name = 
REMARK  8 active torsions:
REMARK  status: ('A' for Active; 'I' for Inactive)
REMARK    1  A    between atoms: C_1  and  C_2
REMARK    2  A    between atoms: C_4  and  C_5
REMARK    3  A    between atoms: N_7  and  C_8
REMARK    4  A    between atoms: C_8  and  C_9
REMARK    5  A    between atoms: C_12  and  C_13
REMARK    6  A    between atoms: C_14  and  C_15
REMARK    7  A    between atoms: C_18  and  C_19
REMARK    8  A    between atoms: N_22  and  C_23
REMARK                            x       y       z     vdW  Elec       q    Type
REMARK                         _______ _______ _______ _____ _____    ______ ____
ROOT
ATOM      1  C   UNL     1       4.681   4.754  18.168  0.00  0.00    +0.000 C 
ATOM      2  O   UNL     1       4.715   3.890  19.036  0.00  0.00    +0.000 OA
ATOM      3  N   UNL     1       3.893   5.870  18.304  0.00  0.00    +0.000 N 
ATOM      4  H   UNL     1       3.970   6.629  17.646  0.00  0.00    +0.000 HD
ENDROOT
BRANCH   1   8
ATOM      5  C   UNL     1       6.341   3.719  13.508  0.00  0.00    +0.000 C 
ATOM      6  C   UNL     1       6.132   4.279  14.865  0.00  0.00    +0.000 A 
ATOM      7  C   UNL     1       5.304   3.783  15.888  0.00  0.00    +0.000 A 
ATOM      8  C   UNL     1       5.430   4.677  16.939  0.00  0.00    +0.000 A 
ATOM      9  N   UNL     1       6.388   5.597  16.532  0.00  0.00    +0.000 N 
ATOM     10  N   UNL     1       6.740   5.409  15.230  0.00  0.00    +0.000 NA
BRANCH   9  11
ATOM     11  C   UNL     1       7.012   6.640  17.280  0.00  0.00    +0.000 A 
ATOM     12  C   UNL     1       6.886   7.985  16.902  0.00  0.00    +0.000 A 
ATOM     13  C   UNL     1       7.614   8.974  17.567  0.00  0.00    +0.000 A 
ATOM     14  C   UNL     1       8.447   8.626  18.626  0.00  0.00    +0.000 A 
ATOM     15 CL   UNL     1       9.400   9.836  19.393  0.00  0.00    +0.000 Cl
ATOM     16  C   UNL     1       8.522   7.302  19.057  0.00  0.00    +0.000 A 
ATOM     17  C   UNL     1       7.791   6.309  18.397  0.00  0.00    +0.000 A 
ENDBRANCH   9  11
ENDBRANCH   1   8
BRANCH   3  18
ATOM     18  C   UNL     1       3.038   6.039  19.456  0.00  0.00    +0.000 C 
BRANCH  18  19
ATOM     19  C   UNL     1       2.262   7.325  19.382  0.00  0.00    +0.000 A 
ATOM     20  C   UNL     1       2.201   8.048  18.191  0.00  0.00    +0.000 A 
ATOM     21  C   UNL     1       1.464   9.234  18.123  0.00  0.00    +0.000 A 
ATOM     22  C   UNL     1       0.813   9.754  19.252  0.00  0.00    +0.000 A 
ATOM     23  C   UNL     1       0.914   9.042  20.453  0.00  0.00    +0.000 A 
ATOM     24  C   UNL     1       1.613   7.833  20.514  0.00  0.00    +0.000 A 
BRANCH  22  25
ATOM     25  C   UNL     1       0.047  10.995  19.182  0.00  0.00    +0.000 A 
ATOM     26  C   UNL     1      -1.236  11.286  18.628  0.00  0.00    +0.000 A 
ATOM     27  C   UNL     1      -2.211  10.416  17.923  0.00  0.00    +0.000 C 
ATOM     28  N   UNL     1      -1.559  12.573  18.795  0.00  0.00    +0.000 NA
ATOM     29  O   UNL     1      -0.498  13.148  19.456  0.00  0.00    +0.000 OA
ATOM     30  C   UNL     1       0.458  12.214  19.693  0.00  0.00    +0.000 A 
ATOM     31  C   UNL     1       1.642  12.714  20.424  0.00  0.00    +0.000 C 
ENDBRANCH  22  25
ENDBRANCH  18  19
ENDBRANCH   3  18
TORSDOF 5
ENDMDL
MODEL 6
REMARK VINA RESULT:      -8.5      5.705      9.266
REMARK  Name = 
REMARK  8 active torsions:
REMARK  status: ('A' for Active; 'I' for Inactive)
REMARK    1  A    between atoms: C_1  and  C_2
REMARK    2  A    between atoms: C_4  and  C_5
REMARK    3  A    between atoms: N_7  and  C_8
REMARK    4  A    between atoms: C_8  and  C_9
REMARK    5  A    between atoms: C_12  and  C_13
REMARK    6  A    between atoms: C_14  and  C_15
REMARK    7  A    between atoms: C_18  and  C_19
REMARK    8  A    between atoms: N_22  and  C_23
REMARK                            x       y       z     vdW  Elec       q    Type
REMARK                         _______ _______ _______ _____ _____    ______ ____
ROOT
ATOM      1  C   UNL     1       0.890  10.291  20.082  0.00  0.00    +0.000 C 
ATOM      2  O   UNL     1       0.566   9.999  21.228  0.00  0.00    +0.000 OA
ATOM      3  N   UNL     1       1.264   9.326  19.180  0.00  0.00    +0.000 N 
ATOM      4  H   UNL     1       1.405   9.565  18.210  0.00  0.00    +0.000 HD
ENDROOT
BRANCH   1   8
ATOM      5  C   UNL     1       2.291  14.867  18.458  0.00  0.00    +0.000 C 
ATOM      6  C   UNL     1       1.542  13.637  18.807  0.00  0.00    +0.000 A 
ATOM      7  C   UNL     1       1.977  12.549  19.587  0.00  0.00    +0.000 A 
ATOM      8  C   UNL     1       0.929  11.644  19.587  0.00  0.00    +0.000 A 
ATOM      9  N   UNL     1      -0.103  12.268  18.896  0.00  0.00    +0.000 N 
ATOM     10  N   UNL     1       0.309  13.440  18.338  0.00  0.00    +0.000 NA
BRANCH   9  11
ATOM     11  C   UNL     1      -1.457  11.853  18.728  0.00  0.00    +0.000 A 
ATOM     12  C   UNL     1      -1.818  10.921  17.743  0.00  0.00    +0.000 A 
ATOM     13  C   UNL     1      -3.164  10.631  17.508  0.00  0.00    +0.000 A 
ATOM     14  C   UNL     1      -4.149  11.251  18.272  0.00  0.00    +0.000 A 
ATOM     15 CL   UNL     1      -5.808  10.950  17.929  0.00  0.00    +0.000 Cl
ATOM     16  C   UNL     1      -3.797  12.121  19.303  0.00  0.00    +0.000 A 
ATOM     17  C   UNL     1      -2.450  12.410  19.545  0.00  0.00    +0.000 A 
ENDBRANCH   9  11
ENDBRANCH   1   8
BRANCH   3  18
ATOM     18  C   UNL     1       1.337   7.936  19.567  0.00  0.00    +0.000 C 
BRANCH  18  19
ATOM     19  C   UNL     1       2.548   7.265  18.982  0.00  0.00    +0.000 A 
ATOM     20  C   UNL     1       3.139   7.757  17.818  0.00  0.00    +0.000 A 
ATOM     21  C   UNL     1       4.276   7.139  17.288  0.00  0.00    +0.000 A 
ATOM     22  C   UNL     1       4.820   5.987  17.876  0.00  0.00    +0.000 A 
ATOM     23  C   UNL     1       4.198   5.478  19.020  0.00  0.00    +0.000 A 
ATOM     24  C   UNL     1       3.087   6.118  19.579  0.00  0.00    +0.000 A 
BRANCH  22  25
ATOM     25  C   UNL     1       6.005   5.340  17.320  0.00  0.00    +0.000 A 
ATOM     26  C   UNL     1       6.230   4.688  16.069  0.00  0.00    +0.000 A 
ATOM     27  C   UNL     1       5.319   4.443  14.923  0.00  0.00    +0.000 C 
ATOM     28  N   UNL     1       7.486   4.240  15.972  0.00  0.00    +0.000 NA
ATOM     29  O   UNL     1       8.105   4.585  17.152  0.00  0.00    +0.000 OA
ATOM     30  C   UNL     1       7.231   5.242  17.955  0.00  0.00    +0.000 A 
ATOM     31  C   UNL     1       7.795   5.686  19.248  0.00  0.00    +0.000 C 
ENDBRANCH  22  25
ENDBRANCH  18  19
ENDBRANCH   3  18
TORSDOF 5
ENDMDL
MODEL 7
REMARK VINA RESULT:      -8.4      4.757      7.202
REMARK  Name = 
REMARK  8 active torsions:
REMARK  status: ('A' for Active; 'I' for Inactive)
REMARK    1  A    between atoms: C_1  and  C_2
REMARK    2  A    between atoms: C_4  and  C_5
REMARK    3  A    between atoms: N_7  and  C_8
REMARK    4  A    between atoms: C_8  and  C_9
REMARK    5  A    between atoms: C_12  and  C_13
REMARK    6  A    between atoms: C_14  and  C_15
REMARK    7  A    between atoms: C_18  and  C_19
REMARK    8  A    between atoms: N_22  and  C_23
REMARK                            x       y       z     vdW  Elec       q    Type
REMARK                         _______ _______ _______ _____ _____    ______ ____
ROOT
ATOM      1  C   UNL     1       4.661   4.942  18.356  0.00  0.00    +0.000 C 
ATOM      2  O   UNL     1       4.826   4.204  19.321  0.00  0.00    +0.000 OA
ATOM      3  N   UNL     1       3.730   5.952  18.383  0.00  0.00    +0.000 N 
ATOM      4  H   UNL     1       3.693   6.627  17.636  0.00  0.00    +0.000 HD
ENDROOT
BRANCH   1   8
ATOM      5  C   UNL     1       6.243   3.737  13.711  0.00  0.00    +0.000 C 
ATOM      6  C   UNL     1       6.062   4.341  15.052  0.00  0.00    +0.000 A 
ATOM      7  C   UNL     1       5.236   3.893  16.100  0.00  0.00    +0.000 A 
ATOM      8  C   UNL     1       5.393   4.813  17.122  0.00  0.00    +0.000 A 
ATOM      9  N   UNL     1       6.365   5.701  16.677  0.00  0.00    +0.000 N 
ATOM     10  N   UNL     1       6.697   5.468  15.378  0.00  0.00    +0.000 NA
BRANCH   9  11
ATOM     11  C   UNL     1       7.019   6.753  17.387  0.00  0.00    +0.000 A 
ATOM     12  C   UNL     1       6.923   8.087  16.965  0.00  0.00    +0.000 A 
ATOM     13  C   UNL     1       7.679   9.080  17.594  0.00  0.00    +0.000 A 
ATOM     14  C   UNL     1       8.511   8.746  18.659  0.00  0.00    +0.000 A 
ATOM     15 CL   UNL     1       9.497   9.956  19.381  0.00  0.00    +0.000 Cl
ATOM     16  C   UNL     1       8.555   7.435  19.133  0.00  0.00    +0.000 A 
ATOM     17  C   UNL     1       7.796   6.440  18.510  0.00  0.00    +0.000 A 
ENDBRANCH   9  11
ENDBRANCH   1   8
BRANCH   3  18
ATOM     18  C   UNL     1       2.879   6.146  19.534  0.00  0.00    +0.000 C 
BRANCH  18  19
ATOM     19  C   UNL     1       2.158   7.464  19.468  0.00  0.00    +0.000 A 
ATOM     20  C   UNL     1       2.115   8.190  18.278  0.00  0.00    +0.000 A 
ATOM     21  C   UNL     1       1.428   9.406  18.217  0.00  0.00    +0.000 A 
ATOM     22  C   UNL     1       0.811   9.952  19.353  0.00  0.00    +0.000 A 
ATOM     23  C   UNL     1       0.893   9.236  20.552  0.00  0.00    +0.000 A 
ATOM     24  C   UNL     1       1.541   7.998  20.606  0.00  0.00    +0.000 A 
BRANCH  22  25
ATOM     25  C   UNL     1       0.098  11.224  19.291  0.00  0.00    +0.000 A 
ATOM     26  C   UNL     1       0.453  12.534  19.736  0.00  0.00    +0.000 A 
ATOM     27  C   UNL     1       1.671  13.029  20.426  0.00  0.00    +0.000 C 
ATOM     28  N   UNL     1      -0.510  13.420  19.464  0.00  0.00    +0.000 NA
ATOM     29  O   UNL     1      -1.513  12.712  18.841  0.00  0.00    +0.000 OA
ATOM     30  C   UNL     1      -1.155  11.407  18.731  0.00  0.00    +0.000 A 
ATOM     31  C   UNL     1      -2.150  10.550  18.052  0.00  0.00    +0.000 C 
ENDBRANCH  22  25
ENDBRANCH  18  19
ENDBRANCH   3  18
TORSDOF 5
ENDMDL
MODEL 8
REMARK VINA RESULT:      -8.3      5.893      9.393
REMARK  Name = 
REMARK  8 active torsions:
REMARK  status: ('A' for Active; 'I' for Inactive)
REMARK    1  A    between atoms: C_1  and  C_2
REMARK    2  A    between atoms: C_4  and  C_5
REMARK    3  A    between atoms: N_7  and  C_8
REMARK    4  A    between atoms: C_8  and  C_9
REMARK    5  A    between atoms: C_12  and  C_13
REMARK    6  A    between atoms: C_14  and  C_15
REMARK    7  A    between atoms: C_18  and  C_19
REMARK    8  A    between atoms: N_22  and  C_23
REMARK                            x       y       z     vdW  Elec       q    Type
REMARK                         _______ _______ _______ _____ _____    ______ ____
ROOT
ATOM      1  C   UNL     1       0.414  10.216  19.769  0.00  0.00    +0.000 C 
ATOM      2  O   UNL     1      -0.447   9.797  20.533  0.00  0.00    +0.000 OA
ATOM      3  N   UNL     1       1.322   9.367  19.184  0.00  0.00    +0.000 N 
ATOM      4  H   UNL     1       1.941   9.704  18.463  0.00  0.00    +0.000 HD
ENDROOT
BRANCH   1   8
ATOM      5  C   UNL     1       2.210  14.812  18.677  0.00  0.00    +0.000 C 
ATOM      6  C   UNL     1       1.356  13.619  18.886  0.00  0.00    +0.000 A 
ATOM      7  C   UNL     1       1.694  12.414  19.532  0.00  0.00    +0.000 A 
ATOM      8  C   UNL     1       0.572  11.609  19.433  0.00  0.00    +0.000 A 
ATOM      9  N   UNL     1      -0.400  12.396  18.827  0.00  0.00    +0.000 N 
ATOM     10  N   UNL     1       0.113  13.584  18.405  0.00  0.00    +0.000 NA
BRANCH   9  11
ATOM     11  C   UNL     1      -1.785  12.120  18.620  0.00  0.00    +0.000 A 
ATOM     12  C   UNL     1      -2.755  12.518  19.552  0.00  0.00    +0.000 A 
ATOM     13  C   UNL     1      -4.085  12.121  19.396  0.00  0.00    +0.000 A 
ATOM     14  C   UNL     1      -4.452  11.349  18.298  0.00  0.00    +0.000 A 
ATOM     15 CL   UNL     1      -6.075  10.798  18.148  0.00  0.00    +0.000 Cl
ATOM     16  C   UNL     1      -3.510  11.013  17.326  0.00  0.00    +0.000 A 
ATOM     17  C   UNL     1      -2.178  11.413  17.477  0.00  0.00    +0.000 A 
ENDBRANCH   9  11
ENDBRANCH   1   8
BRANCH   3  18
ATOM     18  C   UNL     1       1.320   7.955  19.489  0.00  0.00    +0.000 C 
BRANCH  18  19
ATOM     19  C   UNL     1       2.540   7.272  18.936  0.00  0.00    +0.000 A 
ATOM     20  C   UNL     1       3.076   6.153  19.573  0.00  0.00    +0.000 A 
ATOM     21  C   UNL     1       4.200   5.510  19.045  0.00  0.00    +0.000 A 
ATOM     22  C   UNL     1       4.847   5.998  17.899  0.00  0.00    +0.000 A 
ATOM     23  C   UNL     1       4.326   7.144  17.290  0.00  0.00    +0.000 A 
ATOM     24  C   UNL     1       3.176   7.763  17.789  0.00  0.00    +0.000 A 
BRANCH  22  25
ATOM     25  C   UNL     1       6.023   5.330  17.351  0.00  0.00    +0.000 A 
ATOM     26  C   UNL     1       6.240   4.662  16.107  0.00  0.00    +0.000 A 
ATOM     27  C   UNL     1       5.326   4.416  14.963  0.00  0.00    +0.000 C 
ATOM     28  N   UNL     1       7.490   4.196  16.015  0.00  0.00    +0.000 NA
ATOM     29  O   UNL     1       8.113   4.545  17.191  0.00  0.00    +0.000 OA
ATOM     30  C   UNL     1       7.248   5.223  17.987  0.00  0.00    +0.000 A 
ATOM     31  C   UNL     1       7.817   5.673  19.275  0.00  0.00    +0.000 C 
ENDBRANCH  22  25
ENDBRANCH  18  19
ENDBRANCH   3  18
TORSDOF 5
ENDMDL
MODEL 9
REMARK VINA RESULT:      -8.3      5.754      9.129
REMARK  Name = 
REMARK  8 active torsions:
REMARK  status: ('A' for Active; 'I' for Inactive)
REMARK    1  A    between atoms: C_1  and  C_2
REMARK    2  A    between atoms: C_4  and  C_5
REMARK    3  A    between atoms: N_7  and  C_8
REMARK    4  A    between atoms: C_8  and  C_9
REMARK    5  A    between atoms: C_12  and  C_13
REMARK    6  A    between atoms: C_14  and  C_15
REMARK    7  A    between atoms: C_18  and  C_19
REMARK    8  A    between atoms: N_22  and  C_23
REMARK                            x       y       z     vdW  Elec       q    Type
REMARK                         _______ _______ _______ _____ _____    ______ ____
ROOT
ATOM      1  C   UNL     1      -0.005   9.188  21.063  0.00  0.00    +0.000 C 
ATOM      2  O   UNL     1      -0.755   8.435  21.673  0.00  0.00    +0.000 OA
ATOM      3  N   UNL     1       1.058   8.703  20.341  0.00  0.00    +0.000 N 
ATOM      4  H   UNL     1       1.589   9.318  19.744  0.00  0.00    +0.000 HD
ENDROOT
BRANCH   1   8
ATOM      5  C   UNL     1       0.398  14.146  21.955  0.00  0.00    +0.000 C 
ATOM      6  C   UNL     1       0.073  12.811  21.399  0.00  0.00    +0.000 A 
ATOM      7  C   UNL     1       0.295  11.551  21.986  0.00  0.00    +0.000 A 
ATOM      8  C   UNL     1      -0.147  10.622  21.059  0.00  0.00    +0.000 A 
ATOM      9  N   UNL     1      -0.693  11.365  20.019  0.00  0.00    +0.000 N 
ATOM     10  N   UNL     1      -0.466  12.697  20.185  0.00  0.00    +0.000 NA
BRANCH   9  11
ATOM     11  C   UNL     1      -1.425  10.918  18.879  0.00  0.00    +0.000 A 
ATOM     12  C   UNL     1      -0.862  10.027  17.952  0.00  0.00    +0.000 A 
ATOM     13  C   UNL     1      -1.546   9.710  16.776  0.00  0.00    +0.000 A 
ATOM     14  C   UNL     1      -2.802  10.260  16.536  0.00  0.00    +0.000 A 
ATOM     15 CL   UNL     1      -3.608   9.927  15.053  0.00  0.00    +0.000 Cl
ATOM     16  C   UNL     1      -3.402  11.087  17.486  0.00  0.00    +0.000 A 
ATOM     17  C   UNL     1      -2.723  11.403  18.666  0.00  0.00    +0.000 A 
ENDBRANCH   9  11
ENDBRANCH   1   8
BRANCH   3  18
ATOM     18  C   UNL     1       1.357   7.290  20.318  0.00  0.00    +0.000 C 
BRANCH  18  19
ATOM     19  C   UNL     1       2.514   6.987  19.407  0.00  0.00    +0.000 A 
ATOM     20  C   UNL     1       2.744   7.764  18.272  0.00  0.00    +0.000 A 
ATOM     21  C   UNL     1       3.832   7.488  17.437  0.00  0.00    +0.000 A 
ATOM     22  C   UNL     1       4.685   6.403  17.686  0.00  0.00    +0.000 A 
ATOM     23  C   UNL     1       4.423   5.606  18.806  0.00  0.00    +0.000 A 
ATOM     24  C   UNL     1       3.363   5.904  19.668  0.00  0.00    +0.000 A 
BRANCH  22  25
ATOM     25  C   UNL     1       5.818   6.113  16.813  0.00  0.00    +0.000 A 
ATOM     26  C   UNL     1       5.992   5.149  15.774  0.00  0.00    +0.000 A 
ATOM     27  C   UNL     1       5.072   4.108  15.249  0.00  0.00    +0.000 C 
ATOM     28  N   UNL     1       7.206   5.242  15.220  0.00  0.00    +0.000 NA
ATOM     29  O   UNL     1       7.850   6.260  15.884  0.00  0.00    +0.000 OA
ATOM     30  C   UNL     1       7.028   6.786  16.829  0.00  0.00    +0.000 A 
ATOM     31  C   UNL     1       7.607   7.911  17.594  0.00  0.00    +0.000 C 
ENDBRANCH  22  25
ENDBRANCH  18  19
ENDBRANCH   3  18
TORSDOF 5
ENDMDL
