MODEL 1
REMARK VINA RESULT:      -8.9      0.000      0.000
REMARK  Name = 
REMARK  8 active torsions:
REMARK  status: ('A' for Active; 'I' for Inactive)
REMARK    1  A    between atoms: C_1  and  C_2
REMARK    2  A    between atoms: C_5  and  C_6
REMARK    3  A    between atoms: C_7  and  C_8
REMARK    4  A    between atoms: C_12  and  C_13
REMARK    5  A    between atoms: N_16  and  C_17
REMARK    6  A    between atoms: C_17  and  C_18
REMARK    7  A    between atoms: C_18  and  O_19
REMARK    8  A    between atoms: C_18  and  C_20
REMARK                            x       y       z     vdW  Elec       q    Type
REMARK                         _______ _______ _______ _____ _____    ______ ____
ROOT
ATOM      1  C   UNL     1       2.364   6.091  19.511  0.00  0.00    +0.000 A 
ATOM      2  C   UNL     1       1.795   6.087  20.815  0.00  0.00    +0.000 A 
ATOM      3  C   UNL     1       1.342   7.366  21.029  0.00  0.00    +0.000 A 
ATOM      4  N   UNL     1       1.605   8.050  19.879  0.00  0.00    +0.000 N 
ATOM      5  N   UNL     1       2.267   7.316  18.967  0.00  0.00    +0.000 NA
ENDROOT
BRANCH   1  10
ATOM      6  C   UNL     1       4.627   4.195  17.113  0.00  0.00    +0.000 A 
ATOM      7  C   UNL     1       4.241   2.880  17.424  0.00  0.00    +0.000 A 
ATOM      8  C   UNL     1       3.252   2.613  18.377  0.00  0.00    +0.000 A 
ATOM      9  C   UNL     1       2.646   3.658  19.071  0.00  0.00    +0.000 A 
ATOM     10  C   UNL     1       3.032   4.979  18.830  0.00  0.00    +0.000 A 
ATOM     11  C   UNL     1       4.031   5.225  17.873  0.00  0.00    +0.000 A 
BRANCH   6  18
ATOM     12  C   UNL     1       5.899   3.443  12.516  0.00  0.00    +0.000 C 
ATOM     13  C   UNL     1       6.179   4.141  13.811  0.00  0.00    +0.000 A 
ATOM     14  C   UNL     1       7.317   4.906  13.979  0.00  0.00    +0.000 A 
ATOM     15  N   UNL     1       7.627   5.500  15.149  0.00  0.00    +0.000 NA
ATOM     16  C   UNL     1       6.764   5.294  16.185  0.00  0.00    +0.000 A 
ATOM     17  C   UNL     1       7.218   5.876  17.489  0.00  0.00    +0.000 C 
ATOM     18  C   UNL     1       5.584   4.543  16.032  0.00  0.00    +0.000 A 
ATOM     19  N   UNL     1       5.300   3.959  14.827  0.00  0.00    +0.000 NA
ENDBRANCH   6  18
ENDBRANCH   1  10
BRANCH   4  20
ATOM     20  C   UNL     1       1.366   9.464  19.649  0.00  0.00    +0.000 C 
BRANCH  20  21
ATOM     21  C   UNL     1       0.788   9.816  18.264  0.00  0.00    +0.000 C 
BRANCH  21  22
ATOM     22  C   UNL     1      -0.622  10.389  18.234  0.00  0.00    +0.000 A 
ATOM     23  C   UNL     1      -1.006  11.484  19.027  0.00  0.00    +0.000 A 
ATOM     24  C   UNL     1      -2.309  11.988  18.974  0.00  0.00    +0.000 A 
ATOM     25  C   UNL     1      -3.244  11.426  18.110  0.00  0.00    +0.000 A 
ATOM     26  C   UNL     1      -2.875  10.364  17.291  0.00  0.00    +0.000 A 
ATOM     27  C   UNL     1      -1.575   9.855  17.348  0.00  0.00    +0.000 A 
ENDBRANCH  21  22
BRANCH  21  28
ATOM     28  O   UNL     1       1.733  10.625  17.551  0.00  0.00    +0.000 OA
ATOM     29  H   UNL     1       2.461  10.816  18.169  0.00  0.00    +0.000 HD
ENDBRANCH  21  28
ENDBRANCH  20  21
ENDBRANCH   4  20
TORSDOF 6
ENDMDL
MODEL 2
REMARK VINA RESULT:      -8.8      1.914      2.537
REMARK  Name = 
REMARK  8 active torsions:
REMARK  status: ('A' for Active; 'I' for Inactive)
REMARK    1  A    between atoms: C_1  and  C_2
REMARK    2  A    between atoms: C_5  and  C_6
REMARK    3  A    between atoms: C_7  and  C_8
REMARK    4  A    between atoms: C_12  and  C_13
REMARK    5  A    between atoms: N_16  and  C_17
REMARK    6  A    between atoms: C_17  and  C_18
REMARK    7  A    between atoms: C_18  and  O_19
REMARK    8  A    between atoms: C_18  and  C_20
REMARK                            x       y       z     vdW  Elec       q    Type
REMARK                         _______ _______ _______ _____ _____    ______ ____
ROOT
ATOM      1  C   UNL     1       2.170   7.719  18.855  0.00  0.00    +0.000 A 
ATOM      2  C   UNL     1       1.894   8.785  17.955  0.00  0.00    +0.000 A 
ATOM      3  C   UNL     1       1.247   9.742  18.698  0.00  0.00    +0.000 A 
ATOM      4  N   UNL     1       1.199   9.255  19.971  0.00  0.00    +0.000 N 
ATOM      5  N   UNL     1       1.704   8.013  20.080  0.00  0.00    +0.000 NA
ENDROOT
BRANCH   1  10
ATOM      6  C   UNL     1       4.416   5.138  17.193  0.00  0.00    +0.000 A 
ATOM      7  C   UNL     1       3.950   3.979  17.835  0.00  0.00    +0.000 A 
ATOM      8  C   UNL     1       2.913   4.029  18.773  0.00  0.00    +0.000 A 
ATOM      9  C   UNL     1       2.338   5.249  19.119  0.00  0.00    +0.000 A 
ATOM     10  C   UNL     1       2.803   6.434  18.543  0.00  0.00    +0.000 A 
ATOM     11  C   UNL     1       3.848   6.363  17.607  0.00  0.00    +0.000 A 
BRANCH   6  18
ATOM     12  C   UNL     1       5.588   3.416  12.837  0.00  0.00    +0.000 C 
ATOM     13  C   UNL     1       5.971   4.265  14.008  0.00  0.00    +0.000 A 
ATOM     14  C   UNL     1       7.222   4.844  14.094  0.00  0.00    +0.000 A 
ATOM     15  N   UNL     1       7.618   5.567  15.161  0.00  0.00    +0.000 NA
ATOM     16  C   UNL     1       6.721   5.687  16.182  0.00  0.00    +0.000 A 
ATOM     17  C   UNL     1       7.256   6.396  17.389  0.00  0.00    +0.000 C 
ATOM     18  C   UNL     1       5.431   5.131  16.108  0.00  0.00    +0.000 A 
ATOM     19  N   UNL     1       5.063   4.409  15.005  0.00  0.00    +0.000 NA
ENDBRANCH   6  18
ENDBRANCH   1  10
BRANCH   4  20
ATOM     20  C   UNL     1       0.548   9.885  21.106  0.00  0.00    +0.000 C 
BRANCH  20  21
ATOM     21  C   UNL     1       0.221  11.381  20.929  0.00  0.00    +0.000 C 
BRANCH  21  22
ATOM     22  C   UNL     1      -1.120  11.859  21.467  0.00  0.00    +0.000 A 
ATOM     23  C   UNL     1      -1.408  11.900  22.842  0.00  0.00    +0.000 A 
ATOM     24  C   UNL     1      -2.648  12.347  23.305  0.00  0.00    +0.000 A 
ATOM     25  C   UNL     1      -3.616  12.786  22.405  0.00  0.00    +0.000 A 
ATOM     26  C   UNL     1      -3.339  12.787  21.042  0.00  0.00    +0.000 A 
ATOM     27  C   UNL     1      -2.101  12.334  20.578  0.00  0.00    +0.000 A 
ENDBRANCH  21  22
BRANCH  21  28
ATOM     28  O   UNL     1       1.324  12.163  21.406  0.00  0.00    +0.000 OA
ATOM     29  H   UNL     1       1.346  12.975  20.868  0.00  0.00    +0.000 HD
ENDBRANCH  21  28
ENDBRANCH  20  21
ENDBRANCH   4  20
TORSDOF 6
ENDMDL
MODEL 3
REMARK VINA RESULT:      -8.7      2.105      2.683
REMARK  Name = 
REMARK  8 active torsions:
REMARK  status: ('A' for Active; 'I' for Inactive)
REMARK    1  A    between atoms: C_1  and  C_2
REMARK    2  A    between atoms: C_5  and  C_6
REMARK    3  A    between atoms: C_7  and  C_8
REMARK    4  A    between atoms: C_12  and  C_13
REMARK    5  A    between atoms: N_16  and  C_17
REMARK    6  A    between atoms: C_17  and  C_18
REMARK    7  A    between atoms: C_18  and  O_19
REMARK    8  A    between atoms: C_18  and  C_20
REMARK                            x       y       z     vdW  Elec       q    Type
REMARK                         _______ _______ _______ _____ _____    ______ ____
ROOT
ATOM      1  C   UNL     1       2.286   6.994  19.571  0.00  0.00    +0.000 A 
ATOM      2  C   UNL     1       2.158   8.230  18.880  0.00  0.00    +0.000 A 
ATOM      3  C   UNL     1       1.281   8.983  19.620  0.00  0.00    +0.000 A 
ATOM      4  N   UNL     1       0.962   8.222  20.706  0.00  0.00    +0.000 N 
ATOM      5  N   UNL     1       1.517   6.997  20.673  0.00  0.00    +0.000 NA
ENDROOT
BRANCH   1  10
ATOM      6  C   UNL     1       4.712   4.805  17.624  0.00  0.00    +0.000 A 
ATOM      7  C   UNL     1       4.494   3.581  18.279  0.00  0.00    +0.000 A 
ATOM      8  C   UNL     1       3.565   3.462  19.319  0.00  0.00    +0.000 A 
ATOM      9  C   UNL     1       2.852   4.577  19.753  0.00  0.00    +0.000 A 
ATOM     10  C   UNL     1       3.070   5.825  19.163  0.00  0.00    +0.000 A 
ATOM     11  C   UNL     1       4.011   5.924  18.125  0.00  0.00    +0.000 A 
BRANCH   6  18
ATOM     12  C   UNL     1       5.553   3.471  13.060  0.00  0.00    +0.000 C 
ATOM     13  C   UNL     1       5.981   4.283  14.243  0.00  0.00    +0.000 A 
ATOM     14  C   UNL     1       7.175   4.978  14.238  0.00  0.00    +0.000 A 
ATOM     15  N   UNL     1       7.617   5.672  15.307  0.00  0.00    +0.000 NA
ATOM     16  C   UNL     1       6.830   5.641  16.420  0.00  0.00    +0.000 A 
ATOM     17  C   UNL     1       7.425   6.327  17.613  0.00  0.00    +0.000 C 
ATOM     18  C   UNL     1       5.597   4.964  16.442  0.00  0.00    +0.000 A 
ATOM     19  N   UNL     1       5.179   4.275  15.336  0.00  0.00    +0.000 NA
ENDBRANCH   6  18
ENDBRANCH   1  10
BRANCH   4  20
ATOM     20  C   UNL     1       0.010   8.568  21.747  0.00  0.00    +0.000 C 
BRANCH  20  21
ATOM     21  C   UNL     1       0.226   9.947  22.402  0.00  0.00    +0.000 C 
BRANCH  21  22
ATOM     22  C   UNL     1      -0.799  11.026  22.082  0.00  0.00    +0.000 A 
ATOM     23  C   UNL     1      -1.117  11.395  20.764  0.00  0.00    +0.000 A 
ATOM     24  C   UNL     1      -2.066  12.388  20.504  0.00  0.00    +0.000 A 
ATOM     25  C   UNL     1      -2.733  13.013  21.555  0.00  0.00    +0.000 A 
ATOM     26  C   UNL     1      -2.458  12.639  22.865  0.00  0.00    +0.000 A 
ATOM     27  C   UNL     1      -1.506  11.651  23.127  0.00  0.00    +0.000 A 
ENDBRANCH  21  22
BRANCH  21  28
ATOM     28  O   UNL     1       0.430   9.772  23.811  0.00  0.00    +0.000 OA
ATOM     29  H   UNL     1       0.798   8.879  23.932  0.00  0.00    +0.000 HD
ENDBRANCH  21  28
ENDBRANCH  20  21
ENDBRANCH   4  20
TORSDOF 6
ENDMDL
MODEL 4
REMARK VINA RESULT:      -8.6      2.013      2.531
REMARK  Name = 
REMARK  8 active torsions:
REMARK  status: ('A' for Active; 'I' for Inactive)
REMARK    1  A    between atoms: C_1  and  C_2
REMARK    2  A    between atoms: C_5  and  C_6
REMARK    3  A    between atoms: C_7  and  C_8
REMARK    4  A    between atoms: C_12  and  C_13
REMARK    5  A    between atoms: N_16  and  C_17
REMARK    6  A    between atoms: C_17  and  C_18
REMARK    7  A    between atoms: C_18  and  O_19
REMARK    8  A    between atoms: C_18  and  C_20
REMARK                            x       y       z     vdW  Elec       q    Type
REMARK                         _______ _______ _______ _____ _____    ______ ____
ROOT
ATOM      1  C   UNL     1       2.215   7.272  18.913  0.00  0.00    +0.000 A 
ATOM      2  C   UNL     1       1.731   8.413  18.217  0.00  0.00    +0.000 A 
ATOM      3  C   UNL     1       1.365   9.315  19.186  0.00  0.00    +0.000 A 
ATOM      4  N   UNL     1       1.670   8.725  20.377  0.00  0.00    +0.000 N 
ATOM      5  N   UNL     1       2.137   7.471  20.240  0.00  0.00    +0.000 NA
ENDROOT
BRANCH   1  10
ATOM      6  C   UNL     1       4.229   4.810  16.827  0.00  0.00    +0.000 A 
ATOM      7  C   UNL     1       3.520   3.632  17.114  0.00  0.00    +0.000 A 
ATOM      8  C   UNL     1       2.398   3.637  17.951  0.00  0.00    +0.000 A 
ATOM      9  C   UNL     1       1.977   4.821  18.551  0.00  0.00    +0.000 A 
ATOM     10  C   UNL     1       2.680   6.009  18.334  0.00  0.00    +0.000 A 
ATOM     11  C   UNL     1       3.806   5.980  17.495  0.00  0.00    +0.000 A 
BRANCH   6  18
ATOM     12  C   UNL     1       5.864   3.426  12.500  0.00  0.00    +0.000 C 
ATOM     13  C   UNL     1       6.116   4.182  13.768  0.00  0.00    +0.000 A 
ATOM     14  C   UNL     1       7.348   4.749  14.029  0.00  0.00    +0.000 A 
ATOM     15  N   UNL     1       7.625   5.387  15.185  0.00  0.00    +0.000 NA
ATOM     16  C   UNL     1       6.624   5.430  16.111  0.00  0.00    +0.000 A 
ATOM     17  C   UNL     1       7.024   6.043  17.419  0.00  0.00    +0.000 C 
ATOM     18  C   UNL     1       5.352   4.885  15.858  0.00  0.00    +0.000 A 
ATOM     19  N   UNL     1       5.107   4.250  14.671  0.00  0.00    +0.000 NA
ENDBRANCH   6  18
ENDBRANCH   1  10
BRANCH   4  20
ATOM     20  C   UNL     1       1.402   9.268  21.697  0.00  0.00    +0.000 C 
BRANCH  20  21
ATOM     21  C   UNL     1      -0.068   9.190  22.153  0.00  0.00    +0.000 C 
BRANCH  21  22
ATOM     22  C   UNL     1      -0.880  10.476  22.074  0.00  0.00    +0.000 A 
ATOM     23  C   UNL     1      -1.552  11.011  23.186  0.00  0.00    +0.000 A 
ATOM     24  C   UNL     1      -2.286  12.196  23.081  0.00  0.00    +0.000 A 
ATOM     25  C   UNL     1      -2.342  12.882  21.870  0.00  0.00    +0.000 A 
ATOM     26  C   UNL     1      -1.655  12.387  20.767  0.00  0.00    +0.000 A 
ATOM     27  C   UNL     1      -0.926  11.200  20.869  0.00  0.00    +0.000 A 
ENDBRANCH  21  22
BRANCH  21  28
ATOM     28  O   UNL     1      -0.707   8.087  21.496  0.00  0.00    +0.000 OA
ATOM     29  H   UNL     1      -0.522   7.296  22.033  0.00  0.00    +0.000 HD
ENDBRANCH  21  28
ENDBRANCH  20  21
ENDBRANCH   4  20
TORSDOF 6
ENDMDL
MODEL 5
REMARK VINA RESULT:      -8.6      1.407      2.192
REMARK  Name = 
REMARK  8 active torsions:
REMARK  status: ('A' for Active; 'I' for Inactive)
REMARK    1  A    between atoms: C_1  and  C_2
REMARK    2  A    between atoms: C_5  and  C_6
REMARK    3  A    between atoms: C_7  and  C_8
REMARK    4  A    between atoms: C_12  and  C_13
REMARK    5  A    between atoms: N_16  and  C_17
REMARK    6  A    between atoms: C_17  and  C_18
REMARK    7  A    between atoms: C_18  and  O_19
REMARK    8  A    between atoms: C_18  and  C_20
REMARK                            x       y       z     vdW  Elec       q    Type
REMARK                         _______ _______ _______ _____ _____    ______ ____
ROOT
ATOM      1  C   UNL     1       2.134   8.128  18.767  0.00  0.00    +0.000 A 
ATOM      2  C   UNL     1       2.234   9.186  17.822  0.00  0.00    +0.000 A 
ATOM      3  C   UNL     1       1.450  10.201  18.313  0.00  0.00    +0.000 A 
ATOM      4  N   UNL     1       0.964   9.751  19.506  0.00  0.00    +0.000 N 
ATOM      5  N   UNL     1       1.322   8.483  19.777  0.00  0.00    +0.000 NA
ENDROOT
BRANCH   1  10
ATOM      6  C   UNL     1       4.351   5.271  17.589  0.00  0.00    +0.000 A 
ATOM      7  C   UNL     1       3.852   4.241  18.404  0.00  0.00    +0.000 A 
ATOM      8  C   UNL     1       2.803   4.463  19.304  0.00  0.00    +0.000 A 
ATOM      9  C   UNL     1       2.249   5.733  19.436  0.00  0.00    +0.000 A 
ATOM     10  C   UNL     1       2.745   6.799  18.680  0.00  0.00    +0.000 A 
ATOM     11  C   UNL     1       3.802   6.557  17.787  0.00  0.00    +0.000 A 
BRANCH   6  18
ATOM     12  C   UNL     1       5.213   3.728  13.095  0.00  0.00    +0.000 C 
ATOM     13  C   UNL     1       5.761   4.298  14.367  0.00  0.00    +0.000 A 
ATOM     14  C   UNL     1       7.121   4.459  14.550  0.00  0.00    +0.000 A 
ATOM     15  N   UNL     1       7.650   4.915  15.704  0.00  0.00    +0.000 NA
ATOM     16  C   UNL     1       6.771   5.197  16.708  0.00  0.00    +0.000 A 
ATOM     17  C   UNL     1       7.419   5.584  18.002  0.00  0.00    +0.000 C 
ATOM     18  C   UNL     1       5.380   5.068  16.537  0.00  0.00    +0.000 A 
ATOM     19  N   UNL     1       4.880   4.607  15.349  0.00  0.00    +0.000 NA
ENDBRANCH   6  18
ENDBRANCH   1  10
BRANCH   4  20
ATOM     20  C   UNL     1       0.028  10.450  20.369  0.00  0.00    +0.000 C 
BRANCH  20  21
ATOM     21  C   UNL     1      -0.697  11.646  19.720  0.00  0.00    +0.000 C 
BRANCH  21  22
ATOM     22  C   UNL     1      -2.014  11.349  19.016  0.00  0.00    +0.000 A 
ATOM     23  C   UNL     1      -2.151  10.307  18.084  0.00  0.00    +0.000 A 
ATOM     24  C   UNL     1      -3.376  10.059  17.457  0.00  0.00    +0.000 A 
ATOM     25  C   UNL     1      -4.492  10.830  17.769  0.00  0.00    +0.000 A 
ATOM     26  C   UNL     1      -4.387  11.844  18.715  0.00  0.00    +0.000 A 
ATOM     27  C   UNL     1      -3.162  12.097  19.337  0.00  0.00    +0.000 A 
ENDBRANCH  21  22
BRANCH  21  28
ATOM     28  O   UNL     1      -0.804  12.707  20.678  0.00  0.00    +0.000 OA
ATOM     29  H   UNL     1      -1.752  12.819  20.869  0.00  0.00    +0.000 HD
ENDBRANCH  21  28
ENDBRANCH  20  21
ENDBRANCH   4  20
TORSDOF 6
ENDMDL
MODEL 6
REMARK VINA RESULT:      -8.5      1.153      1.600
REMARK  Name = 
REMARK  8 active torsions:
REMARK  status: ('A' for Active; 'I' for Inactive)
REMARK    1  A    between atoms: C_1  and  C_2
REMARK    2  A    between atoms: C_5  and  C_6
REMARK    3  A    between atoms: C_7  and  C_8
REMARK    4  A    between atoms: C_12  and  C_13
REMARK    5  A    between atoms: N_16  and  C_17
REMARK    6  A    between atoms: C_17  and  C_18
REMARK    7  A    between atoms: C_18  and  O_19
REMARK    8  A    between atoms: C_18  and  C_20
REMARK                            x       y       z     vdW  Elec       q    Type
REMARK                         _______ _______ _______ _____ _____    ______ ____
ROOT
ATOM      1  C   UNL     1       1.621   7.322  20.355  0.00  0.00    +0.000 A 
ATOM      2  C   UNL     1       0.913   7.565  21.563  0.00  0.00    +0.000 A 
ATOM      3  C   UNL     1       0.587   8.898  21.544  0.00  0.00    +0.000 A 
ATOM      4  N   UNL     1       1.053   9.377  20.354  0.00  0.00    +0.000 N 
ATOM      5  N   UNL     1       1.726   8.456  19.643  0.00  0.00    +0.000 NA
ENDROOT
BRANCH   1  10
ATOM      6  C   UNL     1       3.953   4.886  18.594  0.00  0.00    +0.000 A 
ATOM      7  C   UNL     1       3.352   3.675  18.975  0.00  0.00    +0.000 A 
ATOM      8  C   UNL     1       2.200   3.648  19.770  0.00  0.00    +0.000 A 
ATOM      9  C   UNL     1       1.640   4.835  20.235  0.00  0.00    +0.000 A 
ATOM     10  C   UNL     1       2.232   6.062  19.921  0.00  0.00    +0.000 A 
ATOM     11  C   UNL     1       3.390   6.066  19.127  0.00  0.00    +0.000 A 
BRANCH   6  18
ATOM     12  C   UNL     1       5.488   4.178  14.072  0.00  0.00    +0.000 C 
ATOM     13  C   UNL     1       5.814   4.609  15.468  0.00  0.00    +0.000 A 
ATOM     14  C   UNL     1       7.111   4.910  15.839  0.00  0.00    +0.000 A 
ATOM     15  N   UNL     1       7.447   5.245  17.101  0.00  0.00    +0.000 NA
ATOM     16  C   UNL     1       6.437   5.255  18.018  0.00  0.00    +0.000 A 
ATOM     17  C   UNL     1       6.885   5.516  19.424  0.00  0.00    +0.000 C 
ATOM     18  C   UNL     1       5.104   4.980  17.660  0.00  0.00    +0.000 A 
ATOM     19  N   UNL     1       4.801   4.649  16.367  0.00  0.00    +0.000 NA
ENDBRANCH   6  18
ENDBRANCH   1  10
BRANCH   4  20
ATOM     20  C   UNL     1       1.004  10.758  19.907  0.00  0.00    +0.000 C 
BRANCH  20  21
ATOM     21  C   UNL     1       0.494  10.964  18.467  0.00  0.00    +0.000 C 
BRANCH  21  22
ATOM     22  C   UNL     1      -1.011  10.877  18.253  0.00  0.00    +0.000 A 
ATOM     23  C   UNL     1      -1.911  11.767  18.864  0.00  0.00    +0.000 A 
ATOM     24  C   UNL     1      -3.287  11.663  18.645  0.00  0.00    +0.000 A 
ATOM     25  C   UNL     1      -3.789  10.683  17.791  0.00  0.00    +0.000 A 
ATOM     26  C   UNL     1      -2.913   9.815  17.149  0.00  0.00    +0.000 A 
ATOM     27  C   UNL     1      -1.538   9.914  17.373  0.00  0.00    +0.000 A 
ENDBRANCH  21  22
BRANCH  21  28
ATOM     28  O   UNL     1       1.064  12.166  17.933  0.00  0.00    +0.000 OA
ATOM     29  H   UNL     1       0.331  12.798  17.822  0.00  0.00    +0.000 HD
ENDBRANCH  21  28
ENDBRANCH  20  21
ENDBRANCH   4  20
TORSDOF 6
ENDMDL
MODEL 7
REMARK VINA RESULT:      -8.5      1.398      1.959
REMARK  Name = 
REMARK  8 active torsions:
REMARK  status: ('A' for Active; 'I' for Inactive)
REMARK    1  A    between atoms: C_1  and  C_2
REMARK    2  A    between atoms: C_5  and  C_6
REMARK    3  A    between atoms: C_7  and  C_8
REMARK    4  A    between atoms: C_12  and  C_13
REMARK    5  A    between atoms: N_16  and  C_17
REMARK    6  A    between atoms: C_17  and  C_18
REMARK    7  A    between atoms: C_18  and  O_19
REMARK    8  A    between atoms: C_18  and  C_20
REMARK                            x       y       z     vdW  Elec       q    Type
REMARK                         _______ _______ _______ _____ _____    ______ ____
ROOT
ATOM      1  C   UNL     1       2.225   7.954  18.634  0.00  0.00    +0.000 A 
ATOM      2  C   UNL     1       2.195   9.076  17.761  0.00  0.00    +0.000 A 
ATOM      3  C   UNL     1       1.478  10.044  18.421  0.00  0.00    +0.000 A 
ATOM      4  N   UNL     1       1.155   9.505  19.632  0.00  0.00    +0.000 N 
ATOM      5  N   UNL     1       1.550   8.227  19.763  0.00  0.00    +0.000 NA
ENDROOT
BRANCH   1  10
ATOM      6  C   UNL     1       4.416   5.254  17.091  0.00  0.00    +0.000 A 
ATOM      7  C   UNL     1       3.908   4.132  17.766  0.00  0.00    +0.000 A 
ATOM      8  C   UNL     1       2.862   4.243  18.689  0.00  0.00    +0.000 A 
ATOM      9  C   UNL     1       2.319   5.491  18.986  0.00  0.00    +0.000 A 
ATOM     10  C   UNL     1       2.824   6.642  18.374  0.00  0.00    +0.000 A 
ATOM     11  C   UNL     1       3.878   6.508  17.455  0.00  0.00    +0.000 A 
BRANCH   6  18
ATOM     12  C   UNL     1       5.550   3.420  12.770  0.00  0.00    +0.000 C 
ATOM     13  C   UNL     1       5.962   4.262  13.938  0.00  0.00    +0.000 A 
ATOM     14  C   UNL     1       7.241   4.775  14.033  0.00  0.00    +0.000 A 
ATOM     15  N   UNL     1       7.661   5.488  15.098  0.00  0.00    +0.000 NA
ATOM     16  C   UNL     1       6.759   5.668  16.104  0.00  0.00    +0.000 A 
ATOM     17  C   UNL     1       7.315   6.363  17.311  0.00  0.00    +0.000 C 
ATOM     18  C   UNL     1       5.442   5.181  16.019  0.00  0.00    +0.000 A 
ATOM     19  N   UNL     1       5.050   4.466  14.920  0.00  0.00    +0.000 NA
ENDBRANCH   6  18
ENDBRANCH   1  10
BRANCH   4  20
ATOM     20  C   UNL     1       0.338  10.130  20.657  0.00  0.00    +0.000 C 
BRANCH  20  21
ATOM     21  C   UNL     1      -0.165  11.548  20.322  0.00  0.00    +0.000 C 
BRANCH  21  22
ATOM     22  C   UNL     1      -1.580  11.662  19.772  0.00  0.00    +0.000 A 
ATOM     23  C   UNL     1      -2.537  12.526  20.330  0.00  0.00    +0.000 A 
ATOM     24  C   UNL     1      -3.828  12.610  19.799  0.00  0.00    +0.000 A 
ATOM     25  C   UNL     1      -4.178  11.852  18.684  0.00  0.00    +0.000 A 
ATOM     26  C   UNL     1      -3.234  11.017  18.096  0.00  0.00    +0.000 A 
ATOM     27  C   UNL     1      -1.947  10.928  18.629  0.00  0.00    +0.000 A 
ENDBRANCH  21  22
BRANCH  21  28
ATOM     28  O   UNL     1       0.066  12.407  21.447  0.00  0.00    +0.000 OA
ATOM     29  H   UNL     1       0.268  11.830  22.204  0.00  0.00    +0.000 HD
ENDBRANCH  21  28
ENDBRANCH  20  21
ENDBRANCH   4  20
TORSDOF 6
ENDMDL
MODEL 8
REMARK VINA RESULT:      -8.5      1.071      1.502
REMARK  Name = 
REMARK  8 active torsions:
REMARK  status: ('A' for Active; 'I' for Inactive)
REMARK    1  A    between atoms: C_1  and  C_2
REMARK    2  A    between atoms: C_5  and  C_6
REMARK    3  A    between atoms: C_7  and  C_8
REMARK    4  A    between atoms: C_12  and  C_13
REMARK    5  A    between atoms: N_16  and  C_17
REMARK    6  A    between atoms: C_17  and  C_18
REMARK    7  A    between atoms: C_18  and  O_19
REMARK    8  A    between atoms: C_18  and  C_20
REMARK                            x       y       z     vdW  Elec       q    Type
REMARK                         _______ _______ _______ _____ _____    ______ ____
ROOT
ATOM      1  C   UNL     1       2.111   7.168  19.331  0.00  0.00    +0.000 A 
ATOM      2  C   UNL     1       1.678   7.428  20.660  0.00  0.00    +0.000 A 
ATOM      3  C   UNL     1       1.237   8.729  20.661  0.00  0.00    +0.000 A 
ATOM      4  N   UNL     1       1.375   9.169  19.378  0.00  0.00    +0.000 N 
ATOM      5  N   UNL     1       1.948   8.261  18.567  0.00  0.00    +0.000 NA
ENDROOT
BRANCH   1  10
ATOM      6  C   UNL     1       4.340   4.836  17.314  0.00  0.00    +0.000 A 
ATOM      7  C   UNL     1       3.818   3.601  17.731  0.00  0.00    +0.000 A 
ATOM      8  C   UNL     1       2.750   3.524  18.632  0.00  0.00    +0.000 A 
ATOM      9  C   UNL     1       2.199   4.685  19.168  0.00  0.00    +0.000 A 
ATOM     10  C   UNL     1       2.718   5.935  18.820  0.00  0.00    +0.000 A 
ATOM     11  C   UNL     1       3.793   5.990  17.918  0.00  0.00    +0.000 A 
BRANCH   6  18
ATOM     12  C   UNL     1       5.782   3.553  12.888  0.00  0.00    +0.000 C 
ATOM     13  C   UNL     1       6.065   4.326  14.139  0.00  0.00    +0.000 A 
ATOM     14  C   UNL     1       7.271   4.973  14.322  0.00  0.00    +0.000 A 
ATOM     15  N   UNL     1       7.580   5.629  15.459  0.00  0.00    +0.000 NA
ATOM     16  C   UNL     1       6.640   5.610  16.447  0.00  0.00    +0.000 A 
ATOM     17  C   UNL     1       7.081   6.250  17.729  0.00  0.00    +0.000 C 
ATOM     18  C   UNL     1       5.392   4.982  16.275  0.00  0.00    +0.000 A 
ATOM     19  N   UNL     1       5.113   4.331  15.105  0.00  0.00    +0.000 NA
ENDBRANCH   6  18
ENDBRANCH   1  10
BRANCH   4  20
ATOM     20  C   UNL     1       1.100  10.511  18.897  0.00  0.00    +0.000 C 
BRANCH  20  21
ATOM     21  C   UNL     1      -0.248  11.107  19.348  0.00  0.00    +0.000 C 
BRANCH  21  22
ATOM     22  C   UNL     1      -1.433  10.906  18.413  0.00  0.00    +0.000 A 
ATOM     23  C   UNL     1      -1.408   9.985  17.352  0.00  0.00    +0.000 A 
ATOM     24  C   UNL     1      -2.514   9.822  16.514  0.00  0.00    +0.000 A 
ATOM     25  C   UNL     1      -3.676  10.558  16.735  0.00  0.00    +0.000 A 
ATOM     26  C   UNL     1      -3.734  11.449  17.800  0.00  0.00    +0.000 A 
ATOM     27  C   UNL     1      -2.627  11.617  18.635  0.00  0.00    +0.000 A 
ENDBRANCH  21  22
BRANCH  21  28
ATOM     28  O   UNL     1      -0.522  10.689  20.692  0.00  0.00    +0.000 OA
ATOM     29  H   UNL     1      -0.988   9.836  20.631  0.00  0.00    +0.000 HD
ENDBRANCH  21  28
ENDBRANCH  20  21
ENDBRANCH   4  20
TORSDOF 6
ENDMDL
MODEL 9
REMARK VINA RESULT:      -8.5      2.714      8.404
REMARK  Name = 
REMARK  8 active torsions:
REMARK  status: ('A' for Active; 'I' for Inactive)
REMARK    1  A    between atoms: C_1  and  C_2
REMARK    2  A    between atoms: C_5  and  C_6
REMARK    3  A    between atoms: C_7  and  C_8
REMARK    4  A    between atoms: C_12  and  C_13
REMARK    5  A    between atoms: N_16  and  C_17
REMARK    6  A    between atoms: C_17  and  C_18
REMARK    7  A    between atoms: C_18  and  O_19
REMARK    8  A    between atoms: C_18  and  C_20
REMARK                            x       y       z     vdW  Elec       q    Type
REMARK                         _______ _______ _______ _____ _____    ______ ____
ROOT
ATOM      1  C   UNL     1       3.050   6.925  18.306  0.00  0.00    +0.000 A 
ATOM      2  C   UNL     1       4.013   7.393  17.371  0.00  0.00    +0.000 A 
ATOM      3  C   UNL     1       4.614   6.269  16.860  0.00  0.00    +0.000 A 
ATOM      4  N   UNL     1       3.986   5.212  17.449  0.00  0.00    +0.000 N 
ATOM      5  N   UNL     1       3.073   5.583  18.364  0.00  0.00    +0.000 NA
ENDROOT
BRANCH   1  10
ATOM      6  C   UNL     1       0.913   9.825  19.529  0.00  0.00    +0.000 A 
ATOM      7  C   UNL     1       0.608   9.358  20.818  0.00  0.00    +0.000 A 
ATOM      8  C   UNL     1       1.101   8.137  21.291  0.00  0.00    +0.000 A 
ATOM      9  C   UNL     1       1.887   7.333  20.469  0.00  0.00    +0.000 A 
ATOM     10  C   UNL     1       2.177   7.734  19.162  0.00  0.00    +0.000 A 
ATOM     11  C   UNL     1       1.668   8.961  18.706  0.00  0.00    +0.000 A 
BRANCH   6  18
ATOM     12  C   UNL     1       2.104  14.494  19.214  0.00  0.00    +0.000 C 
ATOM     13  C   UNL     1       1.116  13.414  18.900  0.00  0.00    +0.000 A 
ATOM     14  C   UNL     1      -0.105  13.708  18.323  0.00  0.00    +0.000 A 
ATOM     15  N   UNL     1      -1.039  12.766  18.080  0.00  0.00    +0.000 NA
ATOM     16  C   UNL     1      -0.731  11.491  18.454  0.00  0.00    +0.000 A 
ATOM     17  C   UNL     1      -1.849  10.510  18.271  0.00  0.00    +0.000 C 
ATOM     18  C   UNL     1       0.515  11.162  19.017  0.00  0.00    +0.000 A 
ATOM     19  N   UNL     1       1.441  12.143  19.243  0.00  0.00    +0.000 NA
ENDBRANCH   6  18
ENDBRANCH   1  10
BRANCH   4  20
ATOM     20  C   UNL     1       4.320   3.809  17.274  0.00  0.00    +0.000 C 
BRANCH  20  21
ATOM     21  C   UNL     1       3.184   2.818  17.594  0.00  0.00    +0.000 C 
BRANCH  21  22
ATOM     22  C   UNL     1       2.689   2.783  19.033  0.00  0.00    +0.000 A 
ATOM     23  C   UNL     1       3.547   2.531  20.118  0.00  0.00    +0.000 A 
ATOM     24  C   UNL     1       3.062   2.508  21.428  0.00  0.00    +0.000 A 
ATOM     25  C   UNL     1       1.717   2.763  21.683  0.00  0.00    +0.000 A 
ATOM     26  C   UNL     1       0.858   3.049  20.627  0.00  0.00    +0.000 A 
ATOM     27  C   UNL     1       1.341   3.066  19.316  0.00  0.00    +0.000 A 
ENDBRANCH  21  22
BRANCH  21  28
ATOM     28  O   UNL     1       2.124   2.995  16.645  0.00  0.00    +0.000 OA
ATOM     29  H   UNL     1       1.446   2.328  16.854  0.00  0.00    +0.000 HD
ENDBRANCH  21  28
ENDBRANCH  20  21
ENDBRANCH   4  20
TORSDOF 6
ENDMDL
