MODEL 1
REMARK VINA RESULT:      -8.4      0.000      0.000
REMARK  Name = 
REMARK  6 active torsions:
REMARK  status: ('A' for Active; 'I' for Inactive)
REMARK    1  A    between atoms: C_1  and  C_2
REMARK    2  A    between atoms: N_4  and  C_5
REMARK    3  A    between atoms: C_8  and  N_9
REMARK    4  A    between atoms: N_9  and  C_10
REMARK    5  A    between atoms: C_11  and  N_12
REMARK    6  A    between atoms: N_17  and  C_18
REMARK                            x       y       z     vdW  Elec       q    Type
REMARK                         _______ _______ _______ _____ _____    ______ ____
ROOT
ATOM      1  C   UNL     1       3.613   6.722  18.117  0.00  0.00    +0.000 A 
ATOM      2  C   UNL     1       4.957   6.711  17.974  0.00  0.00    +0.000 A 
ATOM      3  C   UNL     1       5.680   5.518  18.388  0.00  0.00    +0.000 A 
ATOM      4  O   UNL     1       6.077   5.431  19.553  0.00  0.00    +0.000 OA
ATOM      5  N   UNL     1       5.319   4.424  17.640  0.00  0.00    +0.000 N 
ATOM      6  C   UNL     1       3.961   4.110  17.790  0.00  0.00    +0.000 A 
ATOM      7  C   UNL     1       3.729   2.707  17.681  0.00  0.00    +0.000 A 
ATOM      8  C   UNL     1       2.468   2.214  17.742  0.00  0.00    +0.000 A 
ATOM      9  C   UNL     1       1.453   3.155  17.910  0.00  0.00    +0.000 A 
ATOM     10  C   UNL     1       1.698   4.602  18.046  0.00  0.00    +0.000 A 
ATOM     11  C   UNL     1       2.996   5.168  18.029  0.00  0.00    +0.000 A 
ENDROOT
BRANCH   5  12
ATOM     12  C   UNL     1       5.817   4.246  16.310  0.00  0.00    +0.000 A 
ATOM     13  C   UNL     1       4.895   3.890  15.330  0.00  0.00    +0.000 A 
ATOM     14  C   UNL     1       5.288   3.834  13.994  0.00  0.00    +0.000 A 
ATOM     15  C   UNL     1       6.611   4.094  13.634  0.00  0.00    +0.000 A 
ATOM     16  C   UNL     1       7.553   4.406  14.607  0.00  0.00    +0.000 A 
ATOM     17  C   UNL     1       7.158   4.492  15.942  0.00  0.00    +0.000 A 
ENDBRANCH   5  12
BRANCH   2  18
ATOM     18  N   UNL     1       5.433   7.378  16.777  0.00  0.00    +0.000 N 
ATOM     19  O   UNL     1       6.553   7.873  16.862  0.00  0.00    +0.000 OA
ATOM     20  O   UNL     1       4.735   7.375  15.755  0.00  0.00    +0.000 OA
ENDBRANCH   2  18
BRANCH   1  21
ATOM     21  N   UNL     1       2.987   8.075  18.070  0.00  0.00    +0.000 N 
ATOM     22  H   UNL     1       3.741   8.760  18.244  0.00  0.00    +0.000 HD
BRANCH  21  26
ATOM     23  C   UNL     1      -0.008   9.574  21.122  0.00  0.00    +0.000 A 
ATOM     24  C   UNL     1       0.807   8.473  21.398  0.00  0.00    +0.000 A 
ATOM     25  C   UNL     1       1.757   7.936  20.411  0.00  0.00    +0.000 A 
ATOM     26  C   UNL     1       1.908   8.479  19.096  0.00  0.00    +0.000 A 
ATOM     27  C   UNL     1       1.026   9.538  18.827  0.00  0.00    +0.000 A 
ATOM     28  C   UNL     1       0.098  10.059  19.808  0.00  0.00    +0.000 A 
BRANCH  23  32
ATOM     29  C   UNL     1      -2.082  12.015  23.330  0.00  0.00    +0.000 C 
ATOM     30  C   UNL     1      -0.878  11.604  22.460  0.00  0.00    +0.000 C 
ATOM     31  O   UNL     1      -0.018  12.432  22.179  0.00  0.00    +0.000 OA
ATOM     32  N   UNL     1      -0.890  10.270  22.041  0.00  0.00    +0.000 N 
ATOM     33  H   UNL     1      -1.668   9.727  22.394  0.00  0.00    +0.000 HD
ENDBRANCH  23  32
ENDBRANCH  21  26
ENDBRANCH   1  21
TORSDOF 5
ENDMDL
MODEL 2
REMARK VINA RESULT:      -7.9      3.598      9.687
REMARK  Name = 
REMARK  6 active torsions:
REMARK  status: ('A' for Active; 'I' for Inactive)
REMARK    1  A    between atoms: C_1  and  C_2
REMARK    2  A    between atoms: N_4  and  C_5
REMARK    3  A    between atoms: C_8  and  N_9
REMARK    4  A    between atoms: N_9  and  C_10
REMARK    5  A    between atoms: C_11  and  N_12
REMARK    6  A    between atoms: N_17  and  C_18
REMARK                            x       y       z     vdW  Elec       q    Type
REMARK                         _______ _______ _______ _____ _____    ______ ____
ROOT
ATOM      1  C   UNL     1       0.621  11.564  18.878  0.00  0.00    +0.000 A 
ATOM      2  C   UNL     1       0.653  12.742  19.540  0.00  0.00    +0.000 A 
ATOM      3  C   UNL     1      -0.415  13.698  19.292  0.00  0.00    +0.000 A 
ATOM      4  O   UNL     1      -0.286  14.519  18.380  0.00  0.00    +0.000 OA
ATOM      5  N   UNL     1      -1.637  13.202  19.681  0.00  0.00    +0.000 N 
ATOM      6  C   UNL     1      -1.989  12.051  18.963  0.00  0.00    +0.000 A 
ATOM      7  C   UNL     1      -3.400  11.954  18.781  0.00  0.00    +0.000 A 
ATOM      8  C   UNL     1      -3.939  10.877  18.158  0.00  0.00    +0.000 A 
ATOM      9  C   UNL     1      -3.035   9.906  17.728  0.00  0.00    +0.000 A 
ATOM     10  C   UNL     1      -1.575  10.020  17.897  0.00  0.00    +0.000 A 
ATOM     11  C   UNL     1      -0.955  11.140  18.505  0.00  0.00    +0.000 A 
ENDROOT
BRANCH   5  12
ATOM     12  C   UNL     1      -2.009  13.167  21.062  0.00  0.00    +0.000 A 
ATOM     13  C   UNL     1      -2.319  14.383  21.666  0.00  0.00    +0.000 A 
ATOM     14  C   UNL     1      -2.819  14.405  22.967  0.00  0.00    +0.000 A 
ATOM     15  C   UNL     1      -2.975  13.219  23.685  0.00  0.00    +0.000 A 
ATOM     16  C   UNL     1      -2.626  12.001  23.111  0.00  0.00    +0.000 A 
ATOM     17  C   UNL     1      -2.154  11.972  21.800  0.00  0.00    +0.000 A 
ENDBRANCH   5  12
BRANCH   2  18
ATOM     18  N   UNL     1       1.133  12.643  20.906  0.00  0.00    +0.000 N 
ATOM     19  O   UNL     1       1.035  11.531  21.418  0.00  0.00    +0.000 OA
ATOM     20  O   UNL     1       1.642  13.631  21.450  0.00  0.00    +0.000 OA
ENDBRANCH   2  18
BRANCH   1  21
ATOM     21  N   UNL     1       1.912  10.820  18.855  0.00  0.00    +0.000 N 
ATOM     22  H   UNL     1       2.382  11.063  17.966  0.00  0.00    +0.000 HD
BRANCH  21  26
ATOM     23  C   UNL     1       2.246   6.305  19.051  0.00  0.00    +0.000 A 
ATOM     24  C   UNL     1       2.488   6.991  17.858  0.00  0.00    +0.000 A 
ATOM     25  C   UNL     1       2.344   8.452  17.752  0.00  0.00    +0.000 A 
ATOM     26  C   UNL     1       1.931   9.277  18.844  0.00  0.00    +0.000 A 
ATOM     27  C   UNL     1       1.628   8.550  20.007  0.00  0.00    +0.000 A 
ATOM     28  C   UNL     1       1.776   7.114  20.099  0.00  0.00    +0.000 A 
BRANCH  23  32
ATOM     29  C   UNL     1       2.583   2.430  19.127  0.00  0.00    +0.000 C 
ATOM     30  C   UNL     1       2.002   3.769  18.631  0.00  0.00    +0.000 C 
ATOM     31  O   UNL     1       1.210   3.781  17.695  0.00  0.00    +0.000 OA
ATOM     32  N   UNL     1       2.466   4.895  19.318  0.00  0.00    +0.000 N 
ATOM     33  H   UNL     1       3.098   4.690  20.082  0.00  0.00    +0.000 HD
ENDBRANCH  23  32
ENDBRANCH  21  26
ENDBRANCH   1  21
TORSDOF 5
ENDMDL
MODEL 3
REMARK VINA RESULT:      -7.8      3.130     10.111
REMARK  Name = 
REMARK  6 active torsions:
REMARK  status: ('A' for Active; 'I' for Inactive)
REMARK    1  A    between atoms: C_1  and  C_2
REMARK    2  A    between atoms: N_4  and  C_5
REMARK    3  A    between atoms: C_8  and  N_9
REMARK    4  A    between atoms: N_9  and  C_10
REMARK    5  A    between atoms: C_11  and  N_12
REMARK    6  A    between atoms: N_17  and  C_18
REMARK                            x       y       z     vdW  Elec       q    Type
REMARK                         _______ _______ _______ _____ _____    ______ ____
ROOT
ATOM      1  C   UNL     1       0.099  11.212  19.913  0.00  0.00    +0.000 A 
ATOM      2  C   UNL     1       0.089  12.485  20.365  0.00  0.00    +0.000 A 
ATOM      3  C   UNL     1      -0.646  13.479  19.598  0.00  0.00    +0.000 A 
ATOM      4  O   UNL     1      -0.068  14.092  18.697  0.00  0.00    +0.000 OA
ATOM      5  N   UNL     1      -1.991  13.195  19.562  0.00  0.00    +0.000 N 
ATOM      6  C   UNL     1      -2.251  11.969  18.934  0.00  0.00    +0.000 A 
ATOM      7  C   UNL     1      -3.501  11.983  18.249  0.00  0.00    +0.000 A 
ATOM      8  C   UNL     1      -3.954  10.867  17.626  0.00  0.00    +0.000 A 
ATOM      9  C   UNL     1      -3.132   9.744  17.713  0.00  0.00    +0.000 A 
ATOM     10  C   UNL     1      -1.830   9.739  18.403  0.00  0.00    +0.000 A 
ATOM     11  C   UNL     1      -1.289  10.886  19.036  0.00  0.00    +0.000 A 
ENDROOT
BRANCH   5  12
ATOM     12  C   UNL     1      -2.829  13.466  20.689  0.00  0.00    +0.000 A 
ATOM     13  C   UNL     1      -2.929  14.792  21.101  0.00  0.00    +0.000 A 
ATOM     14  C   UNL     1      -3.832  15.141  22.104  0.00  0.00    +0.000 A 
ATOM     15  C   UNL     1      -4.610  14.165  22.728  0.00  0.00    +0.000 A 
ATOM     16  C   UNL     1      -4.487  12.830  22.359  0.00  0.00    +0.000 A 
ATOM     17  C   UNL     1      -3.607  12.480  21.335  0.00  0.00    +0.000 A 
ENDBRANCH   5  12
BRANCH   2  18
ATOM     18  N   UNL     1       0.030  12.603  21.810  0.00  0.00    +0.000 N 
ATOM     19  O   UNL     1       0.376  13.691  22.263  0.00  0.00    +0.000 OA
ATOM     20  O   UNL     1      -0.394  11.657  22.485  0.00  0.00    +0.000 OA
ENDBRANCH   2  18
BRANCH   1  21
ATOM     21  N   UNL     1       1.172  10.349  20.486  0.00  0.00    +0.000 N 
ATOM     22  H   UNL     1       2.060  10.870  20.387  0.00  0.00    +0.000 HD
BRANCH  21  26
ATOM     23  C   UNL     1       2.438   6.323  18.834  0.00  0.00    +0.000 A 
ATOM     24  C   UNL     1       2.386   7.452  18.012  0.00  0.00    +0.000 A 
ATOM     25  C   UNL     1       1.936   8.762  18.508  0.00  0.00    +0.000 A 
ATOM     26  C   UNL     1       1.503   8.981  19.853  0.00  0.00    +0.000 A 
ATOM     27  C   UNL     1       1.500   7.813  20.634  0.00  0.00    +0.000 A 
ATOM     28  C   UNL     1       1.947   6.531  20.134  0.00  0.00    +0.000 A 
BRANCH  23  32
ATOM     29  C   UNL     1       3.319   2.769  17.523  0.00  0.00    +0.000 C 
ATOM     30  C   UNL     1       2.373   3.948  17.826  0.00  0.00    +0.000 C 
ATOM     31  O   UNL     1       1.203   3.899  17.464  0.00  0.00    +0.000 OA
ATOM     32  N   UNL     1       2.972   5.015  18.502  0.00  0.00    +0.000 N 
ATOM     33  H   UNL     1       3.943   4.866  18.745  0.00  0.00    +0.000 HD
ENDBRANCH  23  32
ENDBRANCH  21  26
ENDBRANCH   1  21
TORSDOF 5
ENDMDL
MODEL 4
REMARK VINA RESULT:      -7.7      3.287      9.685
REMARK  Name = 
REMARK  6 active torsions:
REMARK  status: ('A' for Active; 'I' for Inactive)
REMARK    1  A    between atoms: C_1  and  C_2
REMARK    2  A    between atoms: N_4  and  C_5
REMARK    3  A    between atoms: C_8  and  N_9
REMARK    4  A    between atoms: N_9  and  C_10
REMARK    5  A    between atoms: C_11  and  N_12
REMARK    6  A    between atoms: N_17  and  C_18
REMARK                            x       y       z     vdW  Elec       q    Type
REMARK                         _______ _______ _______ _____ _____    ______ ____
ROOT
ATOM      1  C   UNL     1       0.579  11.594  18.886  0.00  0.00    +0.000 A 
ATOM      2  C   UNL     1       0.596  12.768  19.556  0.00  0.00    +0.000 A 
ATOM      3  C   UNL     1      -0.481  13.714  19.310  0.00  0.00    +0.000 A 
ATOM      4  O   UNL     1      -0.358  14.542  18.404  0.00  0.00    +0.000 OA
ATOM      5  N   UNL     1      -1.699  13.202  19.692  0.00  0.00    +0.000 N 
ATOM      6  C   UNL     1      -2.036  12.052  18.965  0.00  0.00    +0.000 A 
ATOM      7  C   UNL     1      -3.445  11.941  18.778  0.00  0.00    +0.000 A 
ATOM      8  C   UNL     1      -3.970  10.863  18.146  0.00  0.00    +0.000 A 
ATOM      9  C   UNL     1      -3.054   9.904  17.714  0.00  0.00    +0.000 A 
ATOM     10  C   UNL     1      -1.596  10.033  17.888  0.00  0.00    +0.000 A 
ATOM     11  C   UNL     1      -0.991  11.155  18.505  0.00  0.00    +0.000 A 
ENDROOT
BRANCH   5  12
ATOM     12  C   UNL     1      -2.075  13.155  21.071  0.00  0.00    +0.000 A 
ATOM     13  C   UNL     1      -2.472  14.351  21.662  0.00  0.00    +0.000 A 
ATOM     14  C   UNL     1      -2.979  14.350  22.960  0.00  0.00    +0.000 A 
ATOM     15  C   UNL     1      -3.056  13.163  23.689  0.00  0.00    +0.000 A 
ATOM     16  C   UNL     1      -2.620  11.968  23.129  0.00  0.00    +0.000 A 
ATOM     17  C   UNL     1      -2.140  11.959  21.820  0.00  0.00    +0.000 A 
ENDBRANCH   5  12
BRANCH   2  18
ATOM     18  N   UNL     1       1.073  12.665  20.922  0.00  0.00    +0.000 N 
ATOM     19  O   UNL     1       1.400  13.726  21.446  0.00  0.00    +0.000 OA
ATOM     20  O   UNL     1       1.082  11.564  21.488  0.00  0.00    +0.000 OA
ENDBRANCH   2  18
BRANCH   1  21
ATOM     21  N   UNL     1       1.879  10.864  18.862  0.00  0.00    +0.000 N 
ATOM     22  H   UNL     1       2.333  11.091  17.961  0.00  0.00    +0.000 HD
BRANCH  21  26
ATOM     23  C   UNL     1       2.268   6.359  19.159  0.00  0.00    +0.000 A 
ATOM     24  C   UNL     1       2.478   7.019  17.945  0.00  0.00    +0.000 A 
ATOM     25  C   UNL     1       2.315   8.475  17.807  0.00  0.00    +0.000 A 
ATOM     26  C   UNL     1       1.916   9.322  18.888  0.00  0.00    +0.000 A 
ATOM     27  C   UNL     1       1.645   8.620  20.074  0.00  0.00    +0.000 A 
ATOM     28  C   UNL     1       1.811   7.188  20.197  0.00  0.00    +0.000 A 
BRANCH  23  32
ATOM     29  C   UNL     1       3.577   2.805  20.047  0.00  0.00    +0.000 C 
ATOM     30  C   UNL     1       3.718   4.260  19.558  0.00  0.00    +0.000 C 
ATOM     31  O   UNL     1       4.829   4.715  19.310  0.00  0.00    +0.000 OA
ATOM     32  N   UNL     1       2.511   4.959  19.455  0.00  0.00    +0.000 N 
ATOM     33  H   UNL     1       1.689   4.411  19.676  0.00  0.00    +0.000 HD
ENDBRANCH  23  32
ENDBRANCH  21  26
ENDBRANCH   1  21
TORSDOF 5
ENDMDL
MODEL 5
REMARK VINA RESULT:      -7.7      3.620      9.591
REMARK  Name = 
REMARK  6 active torsions:
REMARK  status: ('A' for Active; 'I' for Inactive)
REMARK    1  A    between atoms: C_1  and  C_2
REMARK    2  A    between atoms: N_4  and  C_5
REMARK    3  A    between atoms: C_8  and  N_9
REMARK    4  A    between atoms: N_9  and  C_10
REMARK    5  A    between atoms: C_11  and  N_12
REMARK    6  A    between atoms: N_17  and  C_18
REMARK                            x       y       z     vdW  Elec       q    Type
REMARK                         _______ _______ _______ _____ _____    ______ ____
ROOT
ATOM      1  C   UNL     1       0.644  11.437  18.884  0.00  0.00    +0.000 A 
ATOM      2  C   UNL     1       0.667  12.629  19.522  0.00  0.00    +0.000 A 
ATOM      3  C   UNL     1      -0.382  13.590  19.217  0.00  0.00    +0.000 A 
ATOM      4  O   UNL     1      -0.213  14.390  18.292  0.00  0.00    +0.000 OA
ATOM      5  N   UNL     1      -1.621  13.115  19.575  0.00  0.00    +0.000 N 
ATOM      6  C   UNL     1      -1.961  11.953  18.870  0.00  0.00    +0.000 A 
ATOM      7  C   UNL     1      -3.366  11.865  18.644  0.00  0.00    +0.000 A 
ATOM      8  C   UNL     1      -3.895  10.781  18.025  0.00  0.00    +0.000 A 
ATOM      9  C   UNL     1      -2.988   9.791  17.648  0.00  0.00    +0.000 A 
ATOM     10  C   UNL     1      -1.534   9.895  17.863  0.00  0.00    +0.000 A 
ATOM     11  C   UNL     1      -0.923  11.021  18.467  0.00  0.00    +0.000 A 
ENDROOT
BRANCH   5  12
ATOM     12  C   UNL     1      -2.040  13.115  20.943  0.00  0.00    +0.000 A 
ATOM     13  C   UNL     1      -2.043  11.890  21.604  0.00  0.00    +0.000 A 
ATOM     14  C   UNL     1      -2.310  11.839  22.972  0.00  0.00    +0.000 A 
ATOM     15  C   UNL     1      -2.613  13.005  23.677  0.00  0.00    +0.000 A 
ATOM     16  C   UNL     1      -2.659  14.229  23.020  0.00  0.00    +0.000 A 
ATOM     17  C   UNL     1      -2.364  14.288  21.659  0.00  0.00    +0.000 A 
ENDBRANCH   5  12
BRANCH   2  18
ATOM     18  N   UNL     1       1.100  12.555  20.905  0.00  0.00    +0.000 N 
ATOM     19  O   UNL     1       1.391  13.630  21.422  0.00  0.00    +0.000 OA
ATOM     20  O   UNL     1       1.109  11.463  21.487  0.00  0.00    +0.000 OA
ENDBRANCH   2  18
BRANCH   1  21
ATOM     21  N   UNL     1       1.928  10.680  18.920  0.00  0.00    +0.000 N 
ATOM     22  H   UNL     1       2.439  10.915  18.053  0.00  0.00    +0.000 HD
BRANCH  21  26
ATOM     23  C   UNL     1       2.219   6.162  19.129  0.00  0.00    +0.000 A 
ATOM     24  C   UNL     1       2.450   6.842  17.929  0.00  0.00    +0.000 A 
ATOM     25  C   UNL     1       2.319   8.304  17.820  0.00  0.00    +0.000 A 
ATOM     26  C   UNL     1       1.931   9.137  18.915  0.00  0.00    +0.000 A 
ATOM     27  C   UNL     1       1.638   8.418  20.085  0.00  0.00    +0.000 A 
ATOM     28  C   UNL     1       1.773   6.980  20.181  0.00  0.00    +0.000 A 
BRANCH  23  32
ATOM     29  C   UNL     1       2.544   2.287  19.203  0.00  0.00    +0.000 C 
ATOM     30  C   UNL     1       1.978   3.629  18.697  0.00  0.00    +0.000 C 
ATOM     31  O   UNL     1       1.209   3.645  17.743  0.00  0.00    +0.000 OA
ATOM     32  N   UNL     1       2.430   4.751  19.397  0.00  0.00    +0.000 N 
ATOM     33  H   UNL     1       3.042   4.543  20.175  0.00  0.00    +0.000 HD
ENDBRANCH  23  32
ENDBRANCH  21  26
ENDBRANCH   1  21
TORSDOF 5
ENDMDL
MODEL 6
REMARK VINA RESULT:      -7.6      3.653      9.450
REMARK  Name = 
REMARK  6 active torsions:
REMARK  status: ('A' for Active; 'I' for Inactive)
REMARK    1  A    between atoms: C_1  and  C_2
REMARK    2  A    between atoms: N_4  and  C_5
REMARK    3  A    between atoms: C_8  and  N_9
REMARK    4  A    between atoms: N_9  and  C_10
REMARK    5  A    between atoms: C_11  and  N_12
REMARK    6  A    between atoms: N_17  and  C_18
REMARK                            x       y       z     vdW  Elec       q    Type
REMARK                         _______ _______ _______ _____ _____    ______ ____
ROOT
ATOM      1  C   UNL     1       0.743  11.405  18.673  0.00  0.00    +0.000 A 
ATOM      2  C   UNL     1       0.806  12.574  19.347  0.00  0.00    +0.000 A 
ATOM      3  C   UNL     1      -0.269  13.536  19.155  0.00  0.00    +0.000 A 
ATOM      4  O   UNL     1      -0.175  14.368  18.249  0.00  0.00    +0.000 OA
ATOM      5  N   UNL     1      -1.475  13.037  19.588  0.00  0.00    +0.000 N 
ATOM      6  C   UNL     1      -1.859  11.896  18.870  0.00  0.00    +0.000 A 
ATOM      7  C   UNL     1      -3.277  11.804  18.746  0.00  0.00    +0.000 A 
ATOM      8  C   UNL     1      -3.843  10.737  18.131  0.00  0.00    +0.000 A 
ATOM      9  C   UNL     1      -2.960   9.769  17.653  0.00  0.00    +0.000 A 
ATOM     10  C   UNL     1      -1.495   9.878  17.763  0.00  0.00    +0.000 A 
ATOM     11  C   UNL     1      -0.848  10.989  18.359  0.00  0.00    +0.000 A 
ENDROOT
BRANCH   5  12
ATOM     12  C   UNL     1      -1.791  12.986  20.982  0.00  0.00    +0.000 A 
ATOM     13  C   UNL     1      -2.114  14.189  21.604  0.00  0.00    +0.000 A 
ATOM     14  C   UNL     1      -2.562  14.190  22.924  0.00  0.00    +0.000 A 
ATOM     15  C   UNL     1      -2.652  12.997  23.642  0.00  0.00    +0.000 A 
ATOM     16  C   UNL     1      -2.288  11.794  23.049  0.00  0.00    +0.000 A 
ATOM     17  C   UNL     1      -1.868  11.784  21.719  0.00  0.00    +0.000 A 
ENDBRANCH   5  12
BRANCH   2  18
ATOM     18  N   UNL     1       1.341  12.457  20.691  0.00  0.00    +0.000 N 
ATOM     19  O   UNL     1       1.819  13.487  21.158  0.00  0.00    +0.000 OA
ATOM     20  O   UNL     1       1.251  11.381  21.295  0.00  0.00    +0.000 OA
ENDBRANCH   2  18
BRANCH   1  21
ATOM     21  N   UNL     1       2.031  10.659  18.586  0.00  0.00    +0.000 N 
ATOM     22  H   UNL     1       2.322  10.676  17.594  0.00  0.00    +0.000 HD
BRANCH  21  26
ATOM     23  C   UNL     1       1.976   6.195  19.364  0.00  0.00    +0.000 A 
ATOM     24  C   UNL     1       1.538   7.098  20.337  0.00  0.00    +0.000 A 
ATOM     25  C   UNL     1       1.586   8.554  20.131  0.00  0.00    +0.000 A 
ATOM     26  C   UNL     1       2.096   9.158  18.939  0.00  0.00    +0.000 A 
ATOM     27  C   UNL     1       2.592   8.227  18.012  0.00  0.00    +0.000 A 
ATOM     28  C   UNL     1       2.537   6.796  18.226  0.00  0.00    +0.000 A 
BRANCH  23  32
ATOM     29  C   UNL     1       1.650   2.366  18.755  0.00  0.00    +0.000 C 
ATOM     30  C   UNL     1       1.484   3.855  18.391  0.00  0.00    +0.000 C 
ATOM     31  O   UNL     1       1.054   4.167  17.286  0.00  0.00    +0.000 OA
ATOM     32  N   UNL     1       1.870   4.747  19.395  0.00  0.00    +0.000 N 
ATOM     33  H   UNL     1       2.176   4.306  20.253  0.00  0.00    +0.000 HD
ENDBRANCH  23  32
ENDBRANCH  21  26
ENDBRANCH   1  21
TORSDOF 5
ENDMDL
MODEL 7
REMARK VINA RESULT:      -7.5      3.413      9.736
REMARK  Name = 
REMARK  6 active torsions:
REMARK  status: ('A' for Active; 'I' for Inactive)
REMARK    1  A    between atoms: C_1  and  C_2
REMARK    2  A    between atoms: N_4  and  C_5
REMARK    3  A    between atoms: C_8  and  N_9
REMARK    4  A    between atoms: N_9  and  C_10
REMARK    5  A    between atoms: C_11  and  N_12
REMARK    6  A    between atoms: N_17  and  C_18
REMARK                            x       y       z     vdW  Elec       q    Type
REMARK                         _______ _______ _______ _____ _____    ______ ____
ROOT
ATOM      1  C   UNL     1       0.472  10.626  19.976  0.00  0.00    +0.000 A 
ATOM      2  C   UNL     1       0.497  11.864  20.516  0.00  0.00    +0.000 A 
ATOM      3  C   UNL     1       0.182  12.995  19.656  0.00  0.00    +0.000 A 
ATOM      4  O   UNL     1       1.093  13.546  19.032  0.00  0.00    +0.000 OA
ATOM      5  N   UNL     1      -1.108  12.929  19.188  0.00  0.00    +0.000 N 
ATOM      6  C   UNL     1      -1.325  11.788  18.403  0.00  0.00    +0.000 A 
ATOM      7  C   UNL     1      -2.282  12.030  17.375  0.00  0.00    +0.000 A 
ATOM      8  C   UNL     1      -2.666  11.028  16.546  0.00  0.00    +0.000 A 
ATOM      9  C   UNL     1      -2.075   9.786  16.776  0.00  0.00    +0.000 A 
ATOM     10  C   UNL     1      -1.069   9.545  17.825  0.00  0.00    +0.000 A 
ATOM     11  C   UNL     1      -0.602  10.563  18.693  0.00  0.00    +0.000 A 
ENDROOT
BRANCH   5  12
ATOM     12  C   UNL     1      -2.213  13.280  20.028  0.00  0.00    +0.000 A 
ATOM     13  C   UNL     1      -2.227  14.571  20.548  0.00  0.00    +0.000 A 
ATOM     14  C   UNL     1      -3.338  15.020  21.261  0.00  0.00    +0.000 A 
ATOM     15  C   UNL     1      -4.422  14.171  21.490  0.00  0.00    +0.000 A 
ATOM     16  C   UNL     1      -4.401  12.865  21.016  0.00  0.00    +0.000 A 
ATOM     17  C   UNL     1      -3.304  12.421  20.278  0.00  0.00    +0.000 A 
ENDBRANCH   5  12
BRANCH   2  18
ATOM     18  N   UNL     1       0.004  11.927  21.880  0.00  0.00    +0.000 N 
ATOM     19  O   UNL     1       0.249  12.970  22.479  0.00  0.00    +0.000 OA
ATOM     20  O   UNL     1      -0.653  10.985  22.339  0.00  0.00    +0.000 OA
ENDBRANCH   2  18
BRANCH   1  21
ATOM     21  N   UNL     1       1.182   9.580  20.766  0.00  0.00    +0.000 N 
ATOM     22  H   UNL     1       2.104   9.972  21.022  0.00  0.00    +0.000 HD
BRANCH  21  26
ATOM     23  C   UNL     1       2.522   5.570  19.133  0.00  0.00    +0.000 A 
ATOM     24  C   UNL     1       2.632   6.732  18.363  0.00  0.00    +0.000 A 
ATOM     25  C   UNL     1       2.164   8.040  18.849  0.00  0.00    +0.000 A 
ATOM     26  C   UNL     1       1.550   8.225  20.127  0.00  0.00    +0.000 A 
ATOM     27  C   UNL     1       1.390   7.028  20.845  0.00  0.00    +0.000 A 
ATOM     28  C   UNL     1       1.856   5.748  20.357  0.00  0.00    +0.000 A 
BRANCH  23  32
ATOM     29  C   UNL     1       3.344   1.959  17.944  0.00  0.00    +0.000 C 
ATOM     30  C   UNL     1       2.407   3.137  18.278  0.00  0.00    +0.000 C 
ATOM     31  O   UNL     1       1.207   3.046  18.048  0.00  0.00    +0.000 OA
ATOM     32  N   UNL     1       3.049   4.254  18.822  0.00  0.00    +0.000 N 
ATOM     33  H   UNL     1       4.044   4.138  18.966  0.00  0.00    +0.000 HD
ENDBRANCH  23  32
ENDBRANCH  21  26
ENDBRANCH   1  21
TORSDOF 5
ENDMDL
MODEL 8
REMARK VINA RESULT:      -7.5      3.472      9.501
REMARK  Name = 
REMARK  6 active torsions:
REMARK  status: ('A' for Active; 'I' for Inactive)
REMARK    1  A    between atoms: C_1  and  C_2
REMARK    2  A    between atoms: N_4  and  C_5
REMARK    3  A    between atoms: C_8  and  N_9
REMARK    4  A    between atoms: N_9  and  C_10
REMARK    5  A    between atoms: C_11  and  N_12
REMARK    6  A    between atoms: N_17  and  C_18
REMARK                            x       y       z     vdW  Elec       q    Type
REMARK                         _______ _______ _______ _____ _____    ______ ____
ROOT
ATOM      1  C   UNL     1       0.745  10.458  19.670  0.00  0.00    +0.000 A 
ATOM      2  C   UNL     1       1.183  11.718  19.888  0.00  0.00    +0.000 A 
ATOM      3  C   UNL     1       0.945  12.716  18.857  0.00  0.00    +0.000 A 
ATOM      4  O   UNL     1       1.784  12.870  17.965  0.00  0.00    +0.000 OA
ATOM      5  N   UNL     1      -0.399  12.927  18.661  0.00  0.00    +0.000 N 
ATOM      6  C   UNL     1      -1.054  11.769  18.221  0.00  0.00    +0.000 A 
ATOM      7  C   UNL     1      -2.145  12.076  17.356  0.00  0.00    +0.000 A 
ATOM      8  C   UNL     1      -2.937  11.088  16.872  0.00  0.00    +0.000 A 
ATOM      9  C   UNL     1      -2.613   9.793  17.279  0.00  0.00    +0.000 A 
ATOM     10  C   UNL     1      -1.470   9.477  18.154  0.00  0.00    +0.000 A 
ATOM     11  C   UNL     1      -0.587  10.464  18.656  0.00  0.00    +0.000 A 
ENDROOT
BRANCH   5  12
ATOM     12  C   UNL     1      -1.160  13.717  19.580  0.00  0.00    +0.000 A 
ATOM     13  C   UNL     1      -0.836  15.068  19.673  0.00  0.00    +0.000 A 
ATOM     14  C   UNL     1      -1.624  15.919  20.446  0.00  0.00    +0.000 A 
ATOM     15  C   UNL     1      -2.715  15.420  21.160  0.00  0.00    +0.000 A 
ATOM     16  C   UNL     1      -3.022  14.065  21.112  0.00  0.00    +0.000 A 
ATOM     17  C   UNL     1      -2.254  13.216  20.317  0.00  0.00    +0.000 A 
ENDBRANCH   5  12
BRANCH   2  18
ATOM     18  N   UNL     1       1.057  12.161  21.264  0.00  0.00    +0.000 N 
ATOM     19  O   UNL     1       1.718  13.153  21.559  0.00  0.00    +0.000 OA
ATOM     20  O   UNL     1       0.284  11.572  22.030  0.00  0.00    +0.000 OA
ENDBRANCH   2  18
BRANCH   1  21
ATOM     21  N   UNL     1       1.360   9.418  20.543  0.00  0.00    +0.000 N 
ATOM     22  H   UNL     1       2.279   9.784  20.844  0.00  0.00    +0.000 HD
BRANCH  21  26
ATOM     23  C   UNL     1       2.651   5.309  19.133  0.00  0.00    +0.000 A 
ATOM     24  C   UNL     1       2.774   6.425  18.300  0.00  0.00    +0.000 A 
ATOM     25  C   UNL     1       2.322   7.763  18.713  0.00  0.00    +0.000 A 
ATOM     26  C   UNL     1       1.711   8.025  19.979  0.00  0.00    +0.000 A 
ATOM     27  C   UNL     1       1.538   6.872  20.762  0.00  0.00    +0.000 A 
ATOM     28  C   UNL     1       1.989   5.561  20.346  0.00  0.00    +0.000 A 
BRANCH  23  32
ATOM     29  C   UNL     1       3.463   1.651  18.089  0.00  0.00    +0.000 C 
ATOM     30  C   UNL     1       2.538   2.863  18.316  0.00  0.00    +0.000 C 
ATOM     31  O   UNL     1       1.360   2.802  17.980  0.00  0.00    +0.000 OA
ATOM     32  N   UNL     1       3.162   3.971  18.895  0.00  0.00    +0.000 N 
ATOM     33  H   UNL     1       4.136   3.829  19.130  0.00  0.00    +0.000 HD
ENDBRANCH  23  32
ENDBRANCH  21  26
ENDBRANCH   1  21
TORSDOF 5
ENDMDL
MODEL 9
REMARK VINA RESULT:      -7.5      1.997      9.642
REMARK  Name = 
REMARK  6 active torsions:
REMARK  status: ('A' for Active; 'I' for Inactive)
REMARK    1  A    between atoms: C_1  and  C_2
REMARK    2  A    between atoms: N_4  and  C_5
REMARK    3  A    between atoms: C_8  and  N_9
REMARK    4  A    between atoms: N_9  and  C_10
REMARK    5  A    between atoms: C_11  and  N_12
REMARK    6  A    between atoms: N_17  and  C_18
REMARK                            x       y       z     vdW  Elec       q    Type
REMARK                         _______ _______ _______ _____ _____    ______ ____
ROOT
ATOM      1  C   UNL     1       0.601   9.383  20.421  0.00  0.00    +0.000 A 
ATOM      2  C   UNL     1       0.815  10.199  21.477  0.00  0.00    +0.000 A 
ATOM      3  C   UNL     1       0.851  11.634  21.239  0.00  0.00    +0.000 A 
ATOM      4  O   UNL     1       1.926  12.169  20.956  0.00  0.00    +0.000 OA
ATOM      5  N   UNL     1      -0.357  12.099  20.778  0.00  0.00    +0.000 N 
ATOM      6  C   UNL     1      -0.707  11.524  19.549  0.00  0.00    +0.000 A 
ATOM      7  C   UNL     1      -1.459  12.425  18.740  0.00  0.00    +0.000 A 
ATOM      8  C   UNL     1      -1.938  12.029  17.535  0.00  0.00    +0.000 A 
ATOM      9  C   UNL     1      -1.650  10.715  17.167  0.00  0.00    +0.000 A 
ATOM     10  C   UNL     1      -0.853   9.793  17.995  0.00  0.00    +0.000 A 
ATOM     11  C   UNL     1      -0.296  10.165  19.243  0.00  0.00    +0.000 A 
ENDROOT
BRANCH   5  12
ATOM     12  C   UNL     1      -1.460  12.290  21.670  0.00  0.00    +0.000 A 
ATOM     13  C   UNL     1      -1.170  12.783  22.940  0.00  0.00    +0.000 A 
ATOM     14  C   UNL     1      -2.208  13.118  23.808  0.00  0.00    +0.000 A 
ATOM     15  C   UNL     1      -3.537  12.927  23.429  0.00  0.00    +0.000 A 
ATOM     16  C   UNL     1      -3.840  12.391  22.182  0.00  0.00    +0.000 A 
ATOM     17  C   UNL     1      -2.806  12.082  21.300  0.00  0.00    +0.000 A 
ENDBRANCH   5  12
BRANCH   2  18
ATOM     18  N   UNL     1       0.182   9.758  22.706  0.00  0.00    +0.000 N 
ATOM     19  O   UNL     1      -0.920   9.235  22.571  0.00  0.00    +0.000 OA
ATOM     20  O   UNL     1       0.780   9.883  23.782  0.00  0.00    +0.000 OA
ENDBRANCH   2  18
BRANCH   1  21
ATOM     21  N   UNL     1       0.976   7.957  20.641  0.00  0.00    +0.000 N 
ATOM     22  H   UNL     1       1.382   7.897  21.590  0.00  0.00    +0.000 HD
BRANCH  21  26
ATOM     23  C   UNL     1       3.874   5.926  17.810  0.00  0.00    +0.000 A 
ATOM     24  C   UNL     1       3.535   5.339  19.033  0.00  0.00    +0.000 A 
ATOM     25  C   UNL     1       2.632   5.995  19.992  0.00  0.00    +0.000 A 
ATOM     26  C   UNL     1       2.049   7.281  19.763  0.00  0.00    +0.000 A 
ATOM     27  C   UNL     1       2.465   7.874  18.559  0.00  0.00    +0.000 A 
ATOM     28  C   UNL     1       3.352   7.217  17.623  0.00  0.00    +0.000 A 
BRANCH  23  32
ATOM     29  C   UNL     1       6.472   4.731  15.174  0.00  0.00    +0.000 C 
ATOM     30  C   UNL     1       5.896   5.705  16.221  0.00  0.00    +0.000 C 
ATOM     31  O   UNL     1       6.536   6.699  16.546  0.00  0.00    +0.000 OA
ATOM     32  N   UNL     1       4.649   5.336  16.734  0.00  0.00    +0.000 N 
ATOM     33  H   UNL     1       4.260   4.495  16.327  0.00  0.00    +0.000 HD
ENDBRANCH  23  32
ENDBRANCH  21  26
ENDBRANCH   1  21
TORSDOF 5
ENDMDL
