MODEL 1
REMARK VINA RESULT:      -7.0      0.000      0.000
REMARK  Name = 
REMARK  2 active torsions:
REMARK  status: ('A' for Active; 'I' for Inactive)
REMARK    1  A    between atoms: C_1  and  N_2
REMARK    2  A    between atoms: N_7  and  C_8
REMARK                            x       y       z     vdW  Elec       q    Type
REMARK                         _______ _______ _______ _____ _____    ______ ____
ROOT
ATOM      1  C   UNL     1       0.937   9.910  19.348  0.00  0.00    +0.000 C 
ATOM      2  N   UNL     1       1.674   8.679  19.128  0.00  0.00    +0.000 N 
ATOM      3  C   UNL     1       2.535   8.589  18.049  0.00  0.00    +0.000 A 
ATOM      4  O   UNL     1       2.698   9.541  17.288  0.00  0.00    +0.000 OA
ATOM      5  N   UNL     1       3.237   7.442  17.835  0.00  0.00    +0.000 NA
ATOM      6  C   UNL     1       3.198   6.395  18.614  0.00  0.00    +0.000 A 
ATOM      7  N   UNL     1       4.008   5.238  18.374  0.00  0.00    +0.000 N 
ATOM      8  C   UNL     1       3.850   4.108  19.280  0.00  0.00    +0.000 A 
ATOM      9  C   UNL     1       4.662   2.957  19.200  0.00  0.00    +0.000 A 
ATOM     10  C   UNL     1       4.435   1.829  19.993  0.00  0.00    +0.000 A 
ATOM     11  C   UNL     1       3.436   1.848  20.953  0.00  0.00    +0.000 A 
ATOM     12  C   UNL     1       2.681   3.005  21.137  0.00  0.00    +0.000 A 
ATOM     13 CL   UNL     1       1.522   2.964  22.426  0.00  0.00    +0.000 Cl
ATOM     14  C   UNL     1       2.875   4.139  20.313  0.00  0.00    +0.000 A 
ATOM     15  C   UNL     1       2.107   5.368  20.535  0.00  0.00    +0.000 A 
ATOM     16  C   UNL     1       2.256   6.442  19.754  0.00  0.00    +0.000 A 
ATOM     17  C   UNL     1       1.466   7.656  20.021  0.00  0.00    +0.000 A 
ATOM     18  O   UNL     1       0.693   7.724  20.974  0.00  0.00    +0.000 OA
ENDROOT
BRANCH   7  19
ATOM     19  C   UNL     1       4.877   5.232  17.209  0.00  0.00    +0.000 A 
ATOM     20  C   UNL     1       4.510   4.574  16.015  0.00  0.00    +0.000 A 
ATOM     21  C   UNL     1       5.359   4.522  14.899  0.00  0.00    +0.000 A 
ATOM     22  C   UNL     1       6.572   5.195  14.927  0.00  0.00    +0.000 A 
ATOM     23 BR   UNL     1       7.701   5.169  13.413  0.00  0.00    +0.000 Br
ATOM     24  C   UNL     1       6.960   5.878  16.073  0.00  0.00    +0.000 A 
ATOM     25  C   UNL     1       6.141   5.854  17.213  0.00  0.00    +0.000 A 
ENDBRANCH   7  19
TORSDOF 1
ENDMDL
MODEL 2
REMARK VINA RESULT:      -7.0      4.011      6.000
REMARK  Name = 
REMARK  2 active torsions:
REMARK  status: ('A' for Active; 'I' for Inactive)
REMARK    1  A    between atoms: C_1  and  N_2
REMARK    2  A    between atoms: N_7  and  C_8
REMARK                            x       y       z     vdW  Elec       q    Type
REMARK                         _______ _______ _______ _____ _____    ______ ____
ROOT
ATOM      1  C   UNL     1       7.260   3.924  11.851  0.00  0.00    +0.000 C 
ATOM      2  N   UNL     1       6.942   4.365  13.196  0.00  0.00    +0.000 N 
ATOM      3  C   UNL     1       7.682   5.385  13.767  0.00  0.00    +0.000 A 
ATOM      4  O   UNL     1       8.590   5.934  13.144  0.00  0.00    +0.000 OA
ATOM      5  N   UNL     1       7.390   5.812  15.027  0.00  0.00    +0.000 NA
ATOM      6  C   UNL     1       6.407   5.355  15.754  0.00  0.00    +0.000 A 
ATOM      7  N   UNL     1       6.108   5.887  17.049  0.00  0.00    +0.000 N 
ATOM      8  C   UNL     1       5.019   5.269  17.794  0.00  0.00    +0.000 A 
ATOM      9  C   UNL     1       4.570   5.771  19.034  0.00  0.00    +0.000 A 
ATOM     10  C   UNL     1       3.605   5.112  19.800  0.00  0.00    +0.000 A 
ATOM     11  C   UNL     1       2.995   3.970  19.309  0.00  0.00    +0.000 A 
ATOM     12  C   UNL     1       3.331   3.501  18.040  0.00  0.00    +0.000 A 
ATOM     13 CL   UNL     1       2.444   2.122  17.475  0.00  0.00    +0.000 Cl
ATOM     14  C   UNL     1       4.336   4.137  17.273  0.00  0.00    +0.000 A 
ATOM     15  C   UNL     1       4.660   3.665  15.923  0.00  0.00    +0.000 A 
ATOM     16  C   UNL     1       5.621   4.234  15.190  0.00  0.00    +0.000 A 
ATOM     17  C   UNL     1       5.906   3.729  13.836  0.00  0.00    +0.000 A 
ATOM     18  O   UNL     1       5.253   2.814  13.341  0.00  0.00    +0.000 OA
ENDROOT
BRANCH   7  19
ATOM     19  C   UNL     1       6.947   6.953  17.570  0.00  0.00    +0.000 A 
ATOM     20  C   UNL     1       7.925   6.710  18.559  0.00  0.00    +0.000 A 
ATOM     21  C   UNL     1       8.710   7.738  19.102  0.00  0.00    +0.000 A 
ATOM     22  C   UNL     1       8.585   9.029  18.612  0.00  0.00    +0.000 A 
ATOM     23 BR   UNL     1       9.670  10.412  19.306  0.00  0.00    +0.000 Br
ATOM     24  C   UNL     1       7.654   9.308  17.619  0.00  0.00    +0.000 A 
ATOM     25  C   UNL     1       6.815   8.289  17.141  0.00  0.00    +0.000 A 
ENDBRANCH   7  19
TORSDOF 1
ENDMDL
MODEL 3
REMARK VINA RESULT:      -6.8      2.336      4.699
REMARK  Name = 
REMARK  2 active torsions:
REMARK  status: ('A' for Active; 'I' for Inactive)
REMARK    1  A    between atoms: C_1  and  N_2
REMARK    2  A    between atoms: N_7  and  C_8
REMARK                            x       y       z     vdW  Elec       q    Type
REMARK                         _______ _______ _______ _____ _____    ______ ____
ROOT
ATOM      1  C   UNL     1       3.312   1.315  21.879  0.00  0.00    +0.000 C 
ATOM      2  N   UNL     1       3.413   2.465  20.998  0.00  0.00    +0.000 N 
ATOM      3  C   UNL     1       4.281   2.418  19.922  0.00  0.00    +0.000 A 
ATOM      4  O   UNL     1       4.951   1.414  19.692  0.00  0.00    +0.000 OA
ATOM      5  N   UNL     1       4.380   3.488  19.084  0.00  0.00    +0.000 NA
ATOM      6  C   UNL     1       3.669   4.578  19.188  0.00  0.00    +0.000 A 
ATOM      7  N   UNL     1       3.771   5.645  18.239  0.00  0.00    +0.000 N 
ATOM      8  C   UNL     1       2.965   6.835  18.478  0.00  0.00    +0.000 A 
ATOM      9  C   UNL     1       2.909   7.907  17.562  0.00  0.00    +0.000 A 
ATOM     10  C   UNL     1       2.229   9.095  17.844  0.00  0.00    +0.000 A 
ATOM     11  C   UNL     1       1.509   9.215  19.022  0.00  0.00    +0.000 A 
ATOM     12  C   UNL     1       1.450   8.140  19.906  0.00  0.00    +0.000 A 
ATOM     13 CL   UNL     1       0.447   8.354  21.305  0.00  0.00    +0.000 Cl
ATOM     14  C   UNL     1       2.169   6.947  19.650  0.00  0.00    +0.000 A 
ATOM     15  C   UNL     1       2.072   5.803  20.561  0.00  0.00    +0.000 A 
ATOM     16  C   UNL     1       2.760   4.677  20.353  0.00  0.00    +0.000 A 
ATOM     17  C   UNL     1       2.626   3.552  21.293  0.00  0.00    +0.000 A 
ATOM     18  O   UNL     1       1.863   3.605  22.254  0.00  0.00    +0.000 OA
ENDROOT
BRANCH   7  19
ATOM     19  C   UNL     1       4.718   5.511  17.145  0.00  0.00    +0.000 A 
ATOM     20  C   UNL     1       4.450   4.687  16.030  0.00  0.00    +0.000 A 
ATOM     21  C   UNL     1       5.375   4.513  14.990  0.00  0.00    +0.000 A 
ATOM     22  C   UNL     1       6.567   5.223  15.005  0.00  0.00    +0.000 A 
ATOM     23 BR   UNL     1       7.798   5.030  13.586  0.00  0.00    +0.000 Br
ATOM     24  C   UNL     1       6.859   6.066  16.070  0.00  0.00    +0.000 A 
ATOM     25  C   UNL     1       5.964   6.169  17.147  0.00  0.00    +0.000 A 
ENDBRANCH   7  19
TORSDOF 1
ENDMDL
MODEL 4
REMARK VINA RESULT:      -6.7      3.193      5.395
REMARK  Name = 
REMARK  2 active torsions:
REMARK  status: ('A' for Active; 'I' for Inactive)
REMARK    1  A    between atoms: C_1  and  N_2
REMARK    2  A    between atoms: N_7  and  C_8
REMARK                            x       y       z     vdW  Elec       q    Type
REMARK                         _______ _______ _______ _____ _____    ______ ____
ROOT
ATOM      1  C   UNL     1       6.576   5.205  14.287  0.00  0.00    +0.000 C 
ATOM      2  N   UNL     1       5.720   5.314  15.455  0.00  0.00    +0.000 N 
ATOM      3  C   UNL     1       5.025   6.489  15.677  0.00  0.00    +0.000 A 
ATOM      4  O   UNL     1       5.107   7.431  14.891  0.00  0.00    +0.000 OA
ATOM      5  N   UNL     1       4.214   6.602  16.765  0.00  0.00    +0.000 NA
ATOM      6  C   UNL     1       3.995   5.646  17.627  0.00  0.00    +0.000 A 
ATOM      7  N   UNL     1       3.081   5.801  18.719  0.00  0.00    +0.000 N 
ATOM      8  C   UNL     1       2.949   4.687  19.647  0.00  0.00    +0.000 A 
ATOM      9  C   UNL     1       2.009   4.688  20.700  0.00  0.00    +0.000 A 
ATOM     10  C   UNL     1       1.962   3.671  21.658  0.00  0.00    +0.000 A 
ATOM     11  C   UNL     1       2.800   2.574  21.543  0.00  0.00    +0.000 A 
ATOM     12  C   UNL     1       3.669   2.482  20.457  0.00  0.00    +0.000 A 
ATOM     13 CL   UNL     1       4.608   1.028  20.350  0.00  0.00    +0.000 Cl
ATOM     14  C   UNL     1       3.755   3.525  19.504  0.00  0.00    +0.000 A 
ATOM     15  C   UNL     1       4.640   3.408  18.342  0.00  0.00    +0.000 A 
ATOM     16  C   UNL     1       4.755   4.390  17.442  0.00  0.00    +0.000 A 
ATOM     17  C   UNL     1       5.654   4.223  16.287  0.00  0.00    +0.000 A 
ATOM     18  O   UNL     1       6.278   3.181  16.104  0.00  0.00    +0.000 OA
ENDROOT
BRANCH   7  19
ATOM     19  C   UNL     1       2.402   7.077  18.876  0.00  0.00    +0.000 A 
ATOM     20  C   UNL     1       1.994   7.547  20.143  0.00  0.00    +0.000 A 
ATOM     21  C   UNL     1       1.298   8.754  20.304  0.00  0.00    +0.000 A 
ATOM     22  C   UNL     1       1.057   9.560  19.200  0.00  0.00    +0.000 A 
ATOM     23 BR   UNL     1       0.160  11.209  19.413  0.00  0.00    +0.000 Br
ATOM     24  C   UNL     1       1.466   9.148  17.939  0.00  0.00    +0.000 A 
ATOM     25  C   UNL     1       2.088   7.900  17.777  0.00  0.00    +0.000 A 
ENDBRANCH   7  19
TORSDOF 1
ENDMDL
MODEL 5
REMARK VINA RESULT:      -6.2      8.476      9.911
REMARK  Name = 
REMARK  2 active torsions:
REMARK  status: ('A' for Active; 'I' for Inactive)
REMARK    1  A    between atoms: C_1  and  N_2
REMARK    2  A    between atoms: N_7  and  C_8
REMARK                            x       y       z     vdW  Elec       q    Type
REMARK                         _______ _______ _______ _____ _____    ______ ____
ROOT
ATOM      1  C   UNL     1      -3.464  13.831  24.761  0.00  0.00    +0.000 C 
ATOM      2  N   UNL     1      -3.022  13.561  23.405  0.00  0.00    +0.000 N 
ATOM      3  C   UNL     1      -1.742  13.922  23.025  0.00  0.00    +0.000 A 
ATOM      4  O   UNL     1      -0.970  14.451  23.824  0.00  0.00    +0.000 OA
ATOM      5  N   UNL     1      -1.313  13.668  21.758  0.00  0.00    +0.000 NA
ATOM      6  C   UNL     1      -2.017  13.051  20.848  0.00  0.00    +0.000 A 
ATOM      7  N   UNL     1      -1.490  12.755  19.550  0.00  0.00    +0.000 N 
ATOM      8  C   UNL     1      -2.380  12.105  18.597  0.00  0.00    +0.000 A 
ATOM      9  C   UNL     1      -1.942  11.677  17.325  0.00  0.00    +0.000 A 
ATOM     10  C   UNL     1      -2.821  11.159  16.370  0.00  0.00    +0.000 A 
ATOM     11  C   UNL     1      -4.156  10.974  16.688  0.00  0.00    +0.000 A 
ATOM     12  C   UNL     1      -4.609  11.284  17.969  0.00  0.00    +0.000 A 
ATOM     13 CL   UNL     1      -6.273  10.927  18.299  0.00  0.00    +0.000 Cl
ATOM     14  C   UNL     1      -3.736  11.847  18.932  0.00  0.00    +0.000 A 
ATOM     15  C   UNL     1      -4.205  12.134  20.291  0.00  0.00    +0.000 A 
ATOM     16  C   UNL     1      -3.407  12.688  21.208  0.00  0.00    +0.000 A 
ATOM     17  C   UNL     1      -3.921  12.952  22.563  0.00  0.00    +0.000 A 
ATOM     18  O   UNL     1      -5.063  12.640  22.889  0.00  0.00    +0.000 OA
ENDROOT
BRANCH   7  19
ATOM     19  C   UNL     1      -0.136  13.182  19.239  0.00  0.00    +0.000 A 
ATOM     20  C   UNL     1       0.156  14.517  18.884  0.00  0.00    +0.000 A 
ATOM     21  C   UNL     1       1.450  14.931  18.538  0.00  0.00    +0.000 A 
ATOM     22  C   UNL     1       2.503  14.030  18.611  0.00  0.00    +0.000 A 
ATOM     23 BR   UNL     1       4.257  14.591  18.190  0.00  0.00    +0.000 Br
ATOM     24  C   UNL     1       2.264  12.714  18.983  0.00  0.00    +0.000 A 
ATOM     25  C   UNL     1       0.952  12.288  19.246  0.00  0.00    +0.000 A 
ENDBRANCH   7  19
TORSDOF 1
ENDMDL
MODEL 6
REMARK VINA RESULT:      -6.2      3.759      5.980
REMARK  Name = 
REMARK  2 active torsions:
REMARK  status: ('A' for Active; 'I' for Inactive)
REMARK    1  A    between atoms: C_1  and  N_2
REMARK    2  A    between atoms: N_7  and  C_8
REMARK                            x       y       z     vdW  Elec       q    Type
REMARK                         _______ _______ _______ _____ _____    ______ ____
ROOT
ATOM      1  C   UNL     1       1.813   3.382  19.232  0.00  0.00    +0.000 C 
ATOM      2  N   UNL     1       2.921   3.953  18.488  0.00  0.00    +0.000 N 
ATOM      3  C   UNL     1       3.681   4.954  19.067  0.00  0.00    +0.000 A 
ATOM      4  O   UNL     1       3.443   5.350  20.206  0.00  0.00    +0.000 OA
ATOM      5  N   UNL     1       4.727   5.493  18.382  0.00  0.00    +0.000 NA
ATOM      6  C   UNL     1       5.116   5.105  17.198  0.00  0.00    +0.000 A 
ATOM      7  N   UNL     1       6.263   5.666  16.552  0.00  0.00    +0.000 N 
ATOM      8  C   UNL     1       6.579   5.191  15.211  0.00  0.00    +0.000 A 
ATOM      9  C   UNL     1       7.739   5.599  14.518  0.00  0.00    +0.000 A 
ATOM     10  C   UNL     1       7.982   5.234  13.191  0.00  0.00    +0.000 A 
ATOM     11  C   UNL     1       7.110   4.376  12.540  0.00  0.00    +0.000 A 
ATOM     12  C   UNL     1       6.009   3.864  13.224  0.00  0.00    +0.000 A 
ATOM     13 CL   UNL     1       5.031   2.725  12.355  0.00  0.00    +0.000 Cl
ATOM     14  C   UNL     1       5.731   4.259  14.555  0.00  0.00    +0.000 A 
ATOM     15  C   UNL     1       4.595   3.688  15.284  0.00  0.00    +0.000 A 
ATOM     16  C   UNL     1       4.299   4.064  16.533  0.00  0.00    +0.000 A 
ATOM     17  C   UNL     1       3.151   3.457  17.227  0.00  0.00    +0.000 A 
ATOM     18  O   UNL     1       2.473   2.579  16.702  0.00  0.00    +0.000 OA
ENDROOT
BRANCH   7  19
ATOM     19  C   UNL     1       6.995   6.720  17.235  0.00  0.00    +0.000 A 
ATOM     20  C   UNL     1       7.880   6.438  18.298  0.00  0.00    +0.000 A 
ATOM     21  C   UNL     1       8.557   7.450  18.994  0.00  0.00    +0.000 A 
ATOM     22  C   UNL     1       8.421   8.770  18.592  0.00  0.00    +0.000 A 
ATOM     23 BR   UNL     1       9.365  10.135  19.495  0.00  0.00    +0.000 Br
ATOM     24  C   UNL     1       7.582   9.089  17.532  0.00  0.00    +0.000 A 
ATOM     25  C   UNL     1       6.843   8.079  16.896  0.00  0.00    +0.000 A 
ENDBRANCH   7  19
TORSDOF 1
ENDMDL
MODEL 7
REMARK VINA RESULT:      -6.0      5.219      8.031
REMARK  Name = 
REMARK  2 active torsions:
REMARK  status: ('A' for Active; 'I' for Inactive)
REMARK    1  A    between atoms: C_1  and  N_2
REMARK    2  A    between atoms: N_7  and  C_8
REMARK                            x       y       z     vdW  Elec       q    Type
REMARK                         _______ _______ _______ _____ _____    ______ ____
ROOT
ATOM      1  C   UNL     1       1.321  15.507  22.080  0.00  0.00    +0.000 C 
ATOM      2  N   UNL     1       0.849  14.352  21.340  0.00  0.00    +0.000 N 
ATOM      3  C   UNL     1       1.729  13.323  21.057  0.00  0.00    +0.000 A 
ATOM      4  O   UNL     1       2.897  13.366  21.440  0.00  0.00    +0.000 OA
ATOM      5  N   UNL     1       1.296  12.230  20.369  0.00  0.00    +0.000 NA
ATOM      6  C   UNL     1       0.066  12.043  19.975  0.00  0.00    +0.000 A 
ATOM      7  N   UNL     1      -0.345  10.844  19.309  0.00  0.00    +0.000 N 
ATOM      8  C   UNL     1      -1.732  10.761  18.871  0.00  0.00    +0.000 A 
ATOM      9  C   UNL     1      -2.274   9.592  18.294  0.00  0.00    +0.000 A 
ATOM     10  C   UNL     1      -3.568   9.551  17.770  0.00  0.00    +0.000 A 
ATOM     11  C   UNL     1      -4.395  10.657  17.882  0.00  0.00    +0.000 A 
ATOM     12  C   UNL     1      -3.935  11.796  18.541  0.00  0.00    +0.000 A 
ATOM     13 CL   UNL     1      -5.075  13.092  18.714  0.00  0.00    +0.000 Cl
ATOM     14  C   UNL     1      -2.612  11.863  19.039  0.00  0.00    +0.000 A 
ATOM     15  C   UNL     1      -2.144  13.047  19.766  0.00  0.00    +0.000 A 
ATOM     16  C   UNL     1      -0.892  13.143  20.225  0.00  0.00    +0.000 A 
ATOM     17  C   UNL     1      -0.471  14.350  20.955  0.00  0.00    +0.000 A 
ATOM     18  O   UNL     1      -1.255  15.266  21.192  0.00  0.00    +0.000 OA
ENDROOT
BRANCH   7  19
ATOM     19  C   UNL     1       0.654   9.821  19.047  0.00  0.00    +0.000 A 
ATOM     20  C   UNL     1       1.332   9.747  17.811  0.00  0.00    +0.000 A 
ATOM     21  C   UNL     1       2.264   8.738  17.529  0.00  0.00    +0.000 A 
ATOM     22  C   UNL     1       2.597   7.817  18.512  0.00  0.00    +0.000 A 
ATOM     23 BR   UNL     1       3.885   6.481  18.157  0.00  0.00    +0.000 Br
ATOM     24  C   UNL     1       1.974   7.870  19.752  0.00  0.00    +0.000 A 
ATOM     25  C   UNL     1       0.980   8.832  19.996  0.00  0.00    +0.000 A 
ENDBRANCH   7  19
TORSDOF 1
ENDMDL
MODEL 8
REMARK VINA RESULT:      -5.9      8.792     10.548
REMARK  Name = 
REMARK  2 active torsions:
REMARK  status: ('A' for Active; 'I' for Inactive)
REMARK    1  A    between atoms: C_1  and  N_2
REMARK    2  A    between atoms: N_7  and  C_8
REMARK                            x       y       z     vdW  Elec       q    Type
REMARK                         _______ _______ _______ _____ _____    ______ ____
ROOT
ATOM      1  C   UNL     1       0.450  14.609  21.788  0.00  0.00    +0.000 C 
ATOM      2  N   UNL     1      -0.704  13.962  21.191  0.00  0.00    +0.000 N 
ATOM      3  C   UNL     1      -0.590  13.403  19.930  0.00  0.00    +0.000 A 
ATOM      4  O   UNL     1       0.477  13.430  19.320  0.00  0.00    +0.000 OA
ATOM      5  N   UNL     1      -1.664  12.788  19.362  0.00  0.00    +0.000 NA
ATOM      6  C   UNL     1      -2.823  12.637  19.942  0.00  0.00    +0.000 A 
ATOM      7  N   UNL     1      -3.898  11.924  19.320  0.00  0.00    +0.000 N 
ATOM      8  C   UNL     1      -5.164  11.857  20.038  0.00  0.00    +0.000 A 
ATOM      9  C   UNL     1      -6.260  11.101  19.569  0.00  0.00    +0.000 A 
ATOM     10  C   UNL     1      -7.508  11.129  20.197  0.00  0.00    +0.000 A 
ATOM     11  C   UNL     1      -7.677  11.853  21.367  0.00  0.00    +0.000 A 
ATOM     12  C   UNL     1      -6.591  12.527  21.922  0.00  0.00    +0.000 A 
ATOM     13 CL   UNL     1      -6.878  13.323  23.436  0.00  0.00    +0.000 Cl
ATOM     14  C   UNL     1      -5.333  12.538  21.273  0.00  0.00    +0.000 A 
ATOM     15  C   UNL     1      -4.183  13.215  21.880  0.00  0.00    +0.000 A 
ATOM     16  C   UNL     1      -2.992  13.260  21.275  0.00  0.00    +0.000 A 
ATOM     17  C   UNL     1      -1.864  13.946  21.927  0.00  0.00    +0.000 A 
ATOM     18  O   UNL     1      -1.977  14.451  23.041  0.00  0.00    +0.000 OA
ENDROOT
BRANCH   7  19
ATOM     19  C   UNL     1      -3.688  11.378  17.989  0.00  0.00    +0.000 A 
ATOM     20  C   UNL     1      -4.378  11.881  16.865  0.00  0.00    +0.000 A 
ATOM     21  C   UNL     1      -4.217  11.333  15.584  0.00  0.00    +0.000 A 
ATOM     22  C   UNL     1      -3.301  10.311  15.384  0.00  0.00    +0.000 A 
ATOM     23 BR   UNL     1      -3.045   9.598  13.653  0.00  0.00    +0.000 Br
ATOM     24  C   UNL     1      -2.580   9.806  16.458  0.00  0.00    +0.000 A 
ATOM     25  C   UNL     1      -2.809  10.303  17.751  0.00  0.00    +0.000 A 
ENDBRANCH   7  19
TORSDOF 1
ENDMDL
MODEL 9
REMARK VINA RESULT:      -5.9      8.712     11.922
REMARK  Name = 
REMARK  2 active torsions:
REMARK  status: ('A' for Active; 'I' for Inactive)
REMARK    1  A    between atoms: C_1  and  N_2
REMARK    2  A    between atoms: N_7  and  C_8
REMARK                            x       y       z     vdW  Elec       q    Type
REMARK                         _______ _______ _______ _____ _____    ______ ____
ROOT
ATOM      1  C   UNL     1      -7.449  13.477  19.036  0.00  0.00    +0.000 C 
ATOM      2  N   UNL     1      -6.314  13.484  19.941  0.00  0.00    +0.000 N 
ATOM      3  C   UNL     1      -5.352  12.497  19.828  0.00  0.00    +0.000 A 
ATOM      4  O   UNL     1      -5.435  11.628  18.962  0.00  0.00    +0.000 OA
ATOM      5  N   UNL     1      -4.279  12.496  20.668  0.00  0.00    +0.000 NA
ATOM      6  C   UNL     1      -4.050  13.404  21.576  0.00  0.00    +0.000 A 
ATOM      7  N   UNL     1      -2.871  13.387  22.389  0.00  0.00    +0.000 N 
ATOM      8  C   UNL     1      -2.740  14.423  23.404  0.00  0.00    +0.000 A 
ATOM      9  C   UNL     1      -1.579  14.564  24.195  0.00  0.00    +0.000 A 
ATOM     10  C   UNL     1      -1.500  15.483  25.245  0.00  0.00    +0.000 A 
ATOM     11  C   UNL     1      -2.552  16.352  25.484  0.00  0.00    +0.000 A 
ATOM     12  C   UNL     1      -3.674  16.319  24.658  0.00  0.00    +0.000 A 
ATOM     13 CL   UNL     1      -4.895  17.508  24.977  0.00  0.00    +0.000 Cl
ATOM     14  C   UNL     1      -3.783  15.365  23.617  0.00  0.00    +0.000 A 
ATOM     15  C   UNL     1      -4.946  15.358  22.725  0.00  0.00    +0.000 A 
ATOM     16  C   UNL     1      -5.081  14.452  21.752  0.00  0.00    +0.000 A 
ATOM     17  C   UNL     1      -6.265  14.490  20.876  0.00  0.00    +0.000 A 
ATOM     18  O   UNL     1      -7.122  15.362  20.991  0.00  0.00    +0.000 OA
ENDROOT
BRANCH   7  19
ATOM     19  C   UNL     1      -1.919  12.304  22.204  0.00  0.00    +0.000 A 
ATOM     20  C   UNL     1      -1.758  11.287  23.170  0.00  0.00    +0.000 A 
ATOM     21  C   UNL     1      -0.812  10.262  23.024  0.00  0.00    +0.000 A 
ATOM     22  C   UNL     1      -0.051  10.189  21.866  0.00  0.00    +0.000 A 
ATOM     23 BR   UNL     1       1.194   8.785  21.641  0.00  0.00    +0.000 Br
ATOM     24  C   UNL     1      -0.198  11.153  20.878  0.00  0.00    +0.000 A 
ATOM     25  C   UNL     1      -1.088  12.223  21.070  0.00  0.00    +0.000 A 
ENDBRANCH   7  19
TORSDOF 1
ENDMDL
