MODEL 1
REMARK VINA RESULT:      -7.1      0.000      0.000
REMARK  Name = 
REMARK  14 active torsions:
REMARK  status: ('A' for Active; 'I' for Inactive)
REMARK    1  A    between atoms: C_1  and  C_2
REMARK    2  A    between atoms: C_2  and  C_3
REMARK    3  A    between atoms: C_3  and  C_4
REMARK    4  A    between atoms: C_4  and  C_5
REMARK    5  A    between atoms: C_5  and  C_6
REMARK    6  A    between atoms: C_6  and  C_7
REMARK    7  A    between atoms: C_7  and  C_8
REMARK    8  A    between atoms: C_8  and  C_9
REMARK    9  A    between atoms: C_9  and  C_10
REMARK   10  A    between atoms: C_10  and  N_11
REMARK   11  A    between atoms: N_17  and  C_18
REMARK   12  A    between atoms: C_21  and  O_22
REMARK   13  A    between atoms: O_22  and  S_23
REMARK   14  A    between atoms: S_23  and  N_24
REMARK                            x       y       z     vdW  Elec       q    Type
REMARK                         _______ _______ _______ _____ _____    ______ ____
ROOT
ATOM      1  N   UNL     1       4.867   4.653  17.672  0.00  0.00    +0.000 NA
ATOM      2  C   UNL     1       3.919   4.003  18.600  0.00  0.00    +0.000 C 
ATOM      3  C   UNL     1       3.437   4.870  19.784  0.00  0.00    +0.000 C 
ATOM      4  N   UNL     1       3.186   6.256  19.372  0.00  0.00    +0.000 N 
ATOM      5  C   UNL     1       2.086   6.944  19.892  0.00  0.00    +0.000 C 
ATOM      6  O   UNL     1       1.352   6.463  20.747  0.00  0.00    +0.000 OA
ATOM      7  N   UNL     1       1.897   8.185  19.325  0.00  0.00    +0.000 N 
ATOM      8  C   UNL     1       4.235   6.854  18.556  0.00  0.00    +0.000 C 
ATOM      9  C   UNL     1       4.401   5.998  17.308  0.00  0.00    +0.000 C 
ATOM     10  H   UNL     1       2.335   8.320  18.433  0.00  0.00    +0.000 HD
ENDROOT
BRANCH   7  11
ATOM     11  C   UNL     1       0.933   9.161  19.642  0.00  0.00    +0.000 A 
ATOM     12  C   UNL     1       0.435  10.090  18.738  0.00  0.00    +0.000 A 
ATOM     13  C   UNL     1      -0.432  11.087  19.182  0.00  0.00    +0.000 A 
ATOM     14  C   UNL     1      -0.826  11.155  20.529  0.00  0.00    +0.000 A 
ATOM     15  C   UNL     1      -0.349  10.201  21.431  0.00  0.00    +0.000 A 
ATOM     16 CL   UNL     1      -0.630  10.221  23.132  0.00  0.00    +0.000 Cl
ATOM     17  C   UNL     1       0.504   9.193  20.974  0.00  0.00    +0.000 A 
BRANCH  14  18
ATOM     18  O   UNL     1      -1.588  12.255  20.819  0.00  0.00    +0.000 OA
BRANCH  18  19
ATOM     19  S   UNL     1      -0.960  13.719  21.145  0.00  0.00    +0.000 S 
ATOM     20  O   UNL     1      -0.704  14.428  19.915  0.00  0.00    +0.000 OA
ATOM     21  O   UNL     1      -1.675  14.286  22.263  0.00  0.00    +0.000 OA
BRANCH  19  22
ATOM     22  N   UNL     1       0.560  13.330  21.743  0.00  0.00    +0.000 NA
ATOM     23  H   UNL     1       1.285  13.903  21.320  0.00  0.00    +0.000 HD
ATOM     24  H   UNL     1       0.733  12.329  21.789  0.00  0.00    +0.000 HD
ENDBRANCH  19  22
ENDBRANCH  18  19
ENDBRANCH  14  18
ENDBRANCH   7  11
BRANCH   1  25
ATOM     25  C   UNL     1       6.255   4.731  18.152  0.00  0.00    +0.000 C 
BRANCH  25  26
ATOM     26  C   UNL     1       7.339   4.780  17.077  0.00  0.00    +0.000 C 
BRANCH  26  27
ATOM     27  C   UNL     1       7.022   3.896  15.878  0.00  0.00    +0.000 C 
BRANCH  27  28
ATOM     28  C   UNL     1       6.821   4.741  14.624  0.00  0.00    +0.000 C 
BRANCH  28  29
ATOM     29  C   UNL     1       5.749   4.124  13.733  0.00  0.00    +0.000 C 
BRANCH  29  30
ATOM     30  C   UNL     1       6.369   3.541  12.470  0.00  0.00    +0.000 C 
BRANCH  30  31
ATOM     31  C   UNL     1       5.329   2.789  11.643  0.00  0.00    +0.000 C 
BRANCH  31  32
ATOM     32  C   UNL     1       4.120   3.682  11.380  0.00  0.00    +0.000 C 
BRANCH  32  34
ATOM     33  C   UNL     1       2.660   4.251   9.425  0.00  0.00    +0.000 C 
ATOM     34  C   UNL     1       3.238   3.125  10.267  0.00  0.00    +0.000 C 
ENDBRANCH  32  34
ENDBRANCH  31  32
ENDBRANCH  30  31
ENDBRANCH  29  30
ENDBRANCH  28  29
ENDBRANCH  27  28
ENDBRANCH  26  27
ENDBRANCH  25  26
ENDBRANCH   1  25
TORSDOF 13
ENDMDL
MODEL 2
REMARK VINA RESULT:      -7.1      4.887      9.799
REMARK  Name = 
REMARK  14 active torsions:
REMARK  status: ('A' for Active; 'I' for Inactive)
REMARK    1  A    between atoms: C_1  and  C_2
REMARK    2  A    between atoms: C_2  and  C_3
REMARK    3  A    between atoms: C_3  and  C_4
REMARK    4  A    between atoms: C_4  and  C_5
REMARK    5  A    between atoms: C_5  and  C_6
REMARK    6  A    between atoms: C_6  and  C_7
REMARK    7  A    between atoms: C_7  and  C_8
REMARK    8  A    between atoms: C_8  and  C_9
REMARK    9  A    between atoms: C_9  and  C_10
REMARK   10  A    between atoms: C_10  and  N_11
REMARK   11  A    between atoms: N_17  and  C_18
REMARK   12  A    between atoms: C_21  and  O_22
REMARK   13  A    between atoms: O_22  and  S_23
REMARK   14  A    between atoms: S_23  and  N_24
REMARK                            x       y       z     vdW  Elec       q    Type
REMARK                         _______ _______ _______ _____ _____    ______ ____
ROOT
ATOM      1  N   UNL     1       0.213  13.173  19.842  0.00  0.00    +0.000 NA
ATOM      2  C   UNL     1       0.396  12.679  21.222  0.00  0.00    +0.000 C 
ATOM      3  C   UNL     1       0.101  11.179  21.443  0.00  0.00    +0.000 C 
ATOM      4  N   UNL     1       0.594  10.362  20.327  0.00  0.00    +0.000 N 
ATOM      5  C   UNL     1       1.186   9.122  20.586  0.00  0.00    +0.000 C 
ATOM      6  O   UNL     1       1.247   8.643  21.712  0.00  0.00    +0.000 OA
ATOM      7  N   UNL     1       1.717   8.523  19.466  0.00  0.00    +0.000 N 
ATOM      8  C   UNL     1       0.262  10.867  19.001  0.00  0.00    +0.000 C 
ATOM      9  C   UNL     1       0.848  12.267  18.875  0.00  0.00    +0.000 C 
ATOM     10  H   UNL     1       1.905   9.140  18.698  0.00  0.00    +0.000 HD
ENDROOT
BRANCH   7  11
ATOM     11  C   UNL     1       2.331   7.261  19.349  0.00  0.00    +0.000 A 
ATOM     12  C   UNL     1       3.113   6.870  18.270  0.00  0.00    +0.000 A 
ATOM     13  C   UNL     1       3.580   5.559  18.197  0.00  0.00    +0.000 A 
ATOM     14  C   UNL     1       3.288   4.630  19.210  0.00  0.00    +0.000 A 
ATOM     15  C   UNL     1       2.527   5.034  20.310  0.00  0.00    +0.000 A 
ATOM     16 CL   UNL     1       1.974   3.990  21.566  0.00  0.00    +0.000 Cl
ATOM     17  C   UNL     1       2.080   6.356  20.385  0.00  0.00    +0.000 A 
BRANCH  14  18
ATOM     18  O   UNL     1       3.727   3.364  18.931  0.00  0.00    +0.000 OA
BRANCH  18  19
ATOM     19  S   UNL     1       2.776   2.205  18.300  0.00  0.00    +0.000 S 
ATOM     20  O   UNL     1       1.802   1.783  19.277  0.00  0.00    +0.000 OA
ATOM     21  O   UNL     1       2.443   2.574  16.945  0.00  0.00    +0.000 OA
BRANCH  19  22
ATOM     22  N   UNL     1       3.835   0.911  18.160  0.00  0.00    +0.000 NA
ATOM     23  H   UNL     1       4.413   0.989  17.327  0.00  0.00    +0.000 HD
ATOM     24  H   UNL     1       3.399   0.009  18.334  0.00  0.00    +0.000 HD
ENDBRANCH  19  22
ENDBRANCH  18  19
ENDBRANCH  14  18
ENDBRANCH   7  11
BRANCH   1  25
ATOM     25  C   UNL     1      -1.183  13.410  19.444  0.00  0.00    +0.000 C 
BRANCH  25  26
ATOM     26  C   UNL     1      -2.153  13.770  20.568  0.00  0.00    +0.000 C 
BRANCH  26  27
ATOM     27  C   UNL     1      -3.541  13.175  20.363  0.00  0.00    +0.000 C 
BRANCH  27  28
ATOM     28  C   UNL     1      -3.477  11.970  19.430  0.00  0.00    +0.000 C 
BRANCH  28  29
ATOM     29  C   UNL     1      -4.744  11.885  18.586  0.00  0.00    +0.000 C 
BRANCH  29  30
ATOM     30  C   UNL     1      -4.504  11.047  17.337  0.00  0.00    +0.000 C 
BRANCH  30  31
ATOM     31  C   UNL     1      -3.392  10.026  17.564  0.00  0.00    +0.000 C 
BRANCH  31  32
ATOM     32  C   UNL     1      -2.733   9.661  16.237  0.00  0.00    +0.000 C 
BRANCH  32  34
ATOM     33  C   UNL     1      -3.438  10.010  13.859  0.00  0.00    +0.000 C 
ATOM     34  C   UNL     1      -3.034  10.693  15.155  0.00  0.00    +0.000 C 
ENDBRANCH  32  34
ENDBRANCH  31  32
ENDBRANCH  30  31
ENDBRANCH  29  30
ENDBRANCH  28  29
ENDBRANCH  27  28
ENDBRANCH  26  27
ENDBRANCH  25  26
ENDBRANCH   1  25
TORSDOF 13
ENDMDL
MODEL 3
REMARK VINA RESULT:      -6.8      6.501      8.576
REMARK  Name = 
REMARK  14 active torsions:
REMARK  status: ('A' for Active; 'I' for Inactive)
REMARK    1  A    between atoms: C_1  and  C_2
REMARK    2  A    between atoms: C_2  and  C_3
REMARK    3  A    between atoms: C_3  and  C_4
REMARK    4  A    between atoms: C_4  and  C_5
REMARK    5  A    between atoms: C_5  and  C_6
REMARK    6  A    between atoms: C_6  and  C_7
REMARK    7  A    between atoms: C_7  and  C_8
REMARK    8  A    between atoms: C_8  and  C_9
REMARK    9  A    between atoms: C_9  and  C_10
REMARK   10  A    between atoms: C_10  and  N_11
REMARK   11  A    between atoms: N_17  and  C_18
REMARK   12  A    between atoms: C_21  and  O_22
REMARK   13  A    between atoms: O_22  and  S_23
REMARK   14  A    between atoms: S_23  and  N_24
REMARK                            x       y       z     vdW  Elec       q    Type
REMARK                         _______ _______ _______ _____ _____    ______ ____
ROOT
ATOM      1  N   UNL     1       6.904   4.602  17.363  0.00  0.00    +0.000 NA
ATOM      2  C   UNL     1       6.562   5.594  16.324  0.00  0.00    +0.000 C 
ATOM      3  C   UNL     1       6.303   7.032  16.827  0.00  0.00    +0.000 C 
ATOM      4  N   UNL     1       7.247   7.411  17.885  0.00  0.00    +0.000 N 
ATOM      5  C   UNL     1       7.769   8.708  17.914  0.00  0.00    +0.000 C 
ATOM      6  O   UNL     1       7.413   9.579  17.129  0.00  0.00    +0.000 OA
ATOM      7  N   UNL     1       8.736   8.889  18.878  0.00  0.00    +0.000 N 
ATOM      8  C   UNL     1       7.431   6.414  18.932  0.00  0.00    +0.000 C 
ATOM      9  C   UNL     1       7.927   5.133  18.274  0.00  0.00    +0.000 C 
ATOM     10  H   UNL     1       9.170   8.048  19.213  0.00  0.00    +0.000 HD
ENDROOT
BRANCH   7  11
ATOM     11  C   UNL     1       9.427  10.066  19.222  0.00  0.00    +0.000 A 
ATOM     12  C   UNL     1       9.465  10.605  20.501  0.00  0.00    +0.000 A 
ATOM     13  C   UNL     1      10.082  11.837  20.712  0.00  0.00    +0.000 A 
ATOM     14  C   UNL     1      10.686  12.534  19.652  0.00  0.00    +0.000 A 
ATOM     15  C   UNL     1      10.674  11.975  18.372  0.00  0.00    +0.000 A 
ATOM     16 CL   UNL     1      11.252  12.757  16.947  0.00  0.00    +0.000 Cl
ATOM     17  C   UNL     1      10.070  10.731  18.172  0.00  0.00    +0.000 A 
BRANCH  14  18
ATOM     18  O   UNL     1      11.147  13.773  20.007  0.00  0.00    +0.000 OA
BRANCH  18  19
ATOM     19  S   UNL     1      10.282  15.137  19.820  0.00  0.00    +0.000 S 
ATOM     20  O   UNL     1       9.023  14.837  19.184  0.00  0.00    +0.000 OA
ATOM     21  O   UNL     1      10.403  15.925  21.023  0.00  0.00    +0.000 OA
BRANCH  19  22
ATOM     22  N   UNL     1      11.166  15.964  18.658  0.00  0.00    +0.000 NA
ATOM     23  H   UNL     1      11.852  16.584  19.081  0.00  0.00    +0.000 HD
ATOM     24  H   UNL     1      10.593  16.353  17.913  0.00  0.00    +0.000 HD
ENDBRANCH  19  22
ENDBRANCH  18  19
ENDBRANCH  14  18
ENDBRANCH   7  11
BRANCH   1  25
ATOM     25  C   UNL     1       5.766   4.099  18.145  0.00  0.00    +0.000 C 
BRANCH  25  26
ATOM     26  C   UNL     1       4.411   4.092  17.439  0.00  0.00    +0.000 C 
BRANCH  26  27
ATOM     27  C   UNL     1       3.881   2.685  17.193  0.00  0.00    +0.000 C 
BRANCH  27  28
ATOM     28  C   UNL     1       2.681   2.398  18.088  0.00  0.00    +0.000 C 
BRANCH  28  29
ATOM     29  C   UNL     1       1.886   3.675  18.336  0.00  0.00    +0.000 C 
BRANCH  29  30
ATOM     30  C   UNL     1       1.052   3.553  19.605  0.00  0.00    +0.000 C 
BRANCH  30  31
ATOM     31  C   UNL     1       1.280   4.746  20.530  0.00  0.00    +0.000 C 
BRANCH  31  32
ATOM     32  C   UNL     1       2.541   5.498  20.117  0.00  0.00    +0.000 C 
BRANCH  32  34
ATOM     33  C   UNL     1       2.681   7.298  18.380  0.00  0.00    +0.000 C 
ATOM     34  C   UNL     1       2.247   6.961  19.797  0.00  0.00    +0.000 C 
ENDBRANCH  32  34
ENDBRANCH  31  32
ENDBRANCH  30  31
ENDBRANCH  29  30
ENDBRANCH  28  29
ENDBRANCH  27  28
ENDBRANCH  26  27
ENDBRANCH  25  26
ENDBRANCH   1  25
TORSDOF 13
ENDMDL
MODEL 4
REMARK VINA RESULT:      -6.8      1.928      2.602
REMARK  Name = 
REMARK  14 active torsions:
REMARK  status: ('A' for Active; 'I' for Inactive)
REMARK    1  A    between atoms: C_1  and  C_2
REMARK    2  A    between atoms: C_2  and  C_3
REMARK    3  A    between atoms: C_3  and  C_4
REMARK    4  A    between atoms: C_4  and  C_5
REMARK    5  A    between atoms: C_5  and  C_6
REMARK    6  A    between atoms: C_6  and  C_7
REMARK    7  A    between atoms: C_7  and  C_8
REMARK    8  A    between atoms: C_8  and  C_9
REMARK    9  A    between atoms: C_9  and  C_10
REMARK   10  A    between atoms: C_10  and  N_11
REMARK   11  A    between atoms: N_17  and  C_18
REMARK   12  A    between atoms: C_21  and  O_22
REMARK   13  A    between atoms: O_22  and  S_23
REMARK   14  A    between atoms: S_23  and  N_24
REMARK                            x       y       z     vdW  Elec       q    Type
REMARK                         _______ _______ _______ _____ _____    ______ ____
ROOT
ATOM      1  N   UNL     1       2.833   4.340  18.840  0.00  0.00    +0.000 NA
ATOM      2  C   UNL     1       1.952   4.295  20.025  0.00  0.00    +0.000 C 
ATOM      3  C   UNL     1       1.963   5.555  20.919  0.00  0.00    +0.000 C 
ATOM      4  N   UNL     1       2.008   6.784  20.118  0.00  0.00    +0.000 N 
ATOM      5  C   UNL     1       1.255   7.895  20.511  0.00  0.00    +0.000 C 
ATOM      6  O   UNL     1       0.606   7.916  21.550  0.00  0.00    +0.000 OA
ATOM      7  N   UNL     1       1.289   8.930  19.604  0.00  0.00    +0.000 N 
ATOM      8  C   UNL     1       2.992   6.782  19.043  0.00  0.00    +0.000 C 
ATOM      9  C   UNL     1       2.673   5.612  18.121  0.00  0.00    +0.000 C 
ATOM     10  H   UNL     1       1.559   8.675  18.672  0.00  0.00    +0.000 HD
ENDROOT
BRANCH   7  11
ATOM     11  C   UNL     1       0.699  10.205  19.699  0.00  0.00    +0.000 A 
ATOM     12  C   UNL     1       1.029  11.149  20.664  0.00  0.00    +0.000 A 
ATOM     13  C   UNL     1       0.304  12.336  20.742  0.00  0.00    +0.000 A 
ATOM     14  C   UNL     1      -0.745  12.603  19.846  0.00  0.00    +0.000 A 
ATOM     15  C   UNL     1      -1.056  11.666  18.858  0.00  0.00    +0.000 A 
ATOM     16 CL   UNL     1      -2.390  11.782  17.771  0.00  0.00    +0.000 Cl
ATOM     17  C   UNL     1      -0.311  10.487  18.774  0.00  0.00    +0.000 A 
BRANCH  14  18
ATOM     18  O   UNL     1      -1.423  13.758  20.130  0.00  0.00    +0.000 OA
BRANCH  18  19
ATOM     19  S   UNL     1      -0.794  15.242  19.911  0.00  0.00    +0.000 S 
ATOM     20  O   UNL     1      -0.165  15.693  21.129  0.00  0.00    +0.000 OA
ATOM     21  O   UNL     1      -0.156  15.283  18.618  0.00  0.00    +0.000 OA
BRANCH  19  22
ATOM     22  N   UNL     1      -2.168  16.193  19.758  0.00  0.00    +0.000 NA
ATOM     23  H   UNL     1      -1.962  17.077  19.302  0.00  0.00    +0.000 HD
ATOM     24  H   UNL     1      -2.731  16.232  20.605  0.00  0.00    +0.000 HD
ENDBRANCH  19  22
ENDBRANCH  18  19
ENDBRANCH  14  18
ENDBRANCH   7  11
BRANCH   1  25
ATOM     25  C   UNL     1       4.259   4.109  19.113  0.00  0.00    +0.000 C 
BRANCH  25  26
ATOM     26  C   UNL     1       5.133   3.783  17.904  0.00  0.00    +0.000 C 
BRANCH  26  27
ATOM     27  C   UNL     1       6.485   4.485  17.945  0.00  0.00    +0.000 C 
BRANCH  27  28
ATOM     28  C   UNL     1       6.850   5.031  16.569  0.00  0.00    +0.000 C 
BRANCH  28  29
ATOM     29  C   UNL     1       5.659   5.755  15.951  0.00  0.00    +0.000 C 
BRANCH  29  30
ATOM     30  C   UNL     1       5.587   5.492  14.452  0.00  0.00    +0.000 C 
BRANCH  30  31
ATOM     31  C   UNL     1       5.680   3.998  14.151  0.00  0.00    +0.000 C 
BRANCH  31  32
ATOM     32  C   UNL     1       6.484   3.768  12.875  0.00  0.00    +0.000 C 
BRANCH  32  34
ATOM     33  C   UNL     1       4.407   3.340  11.542  0.00  0.00    +0.000 C 
ATOM     34  C   UNL     1       5.776   2.805  11.927  0.00  0.00    +0.000 C 
ENDBRANCH  32  34
ENDBRANCH  31  32
ENDBRANCH  30  31
ENDBRANCH  29  30
ENDBRANCH  28  29
ENDBRANCH  27  28
ENDBRANCH  26  27
ENDBRANCH  25  26
ENDBRANCH   1  25
TORSDOF 13
ENDMDL
MODEL 5
REMARK VINA RESULT:      -6.7      1.509      1.856
REMARK  Name = 
REMARK  14 active torsions:
REMARK  status: ('A' for Active; 'I' for Inactive)
REMARK    1  A    between atoms: C_1  and  C_2
REMARK    2  A    between atoms: C_2  and  C_3
REMARK    3  A    between atoms: C_3  and  C_4
REMARK    4  A    between atoms: C_4  and  C_5
REMARK    5  A    between atoms: C_5  and  C_6
REMARK    6  A    between atoms: C_6  and  C_7
REMARK    7  A    between atoms: C_7  and  C_8
REMARK    8  A    between atoms: C_8  and  C_9
REMARK    9  A    between atoms: C_9  and  C_10
REMARK   10  A    between atoms: C_10  and  N_11
REMARK   11  A    between atoms: N_17  and  C_18
REMARK   12  A    between atoms: C_21  and  O_22
REMARK   13  A    between atoms: O_22  and  S_23
REMARK   14  A    between atoms: S_23  and  N_24
REMARK                            x       y       z     vdW  Elec       q    Type
REMARK                         _______ _______ _______ _____ _____    ______ ____
ROOT
ATOM      1  N   UNL     1       4.464   4.498  17.043  0.00  0.00    +0.000 NA
ATOM      2  C   UNL     1       3.599   3.809  18.022  0.00  0.00    +0.000 C 
ATOM      3  C   UNL     1       3.364   4.555  19.354  0.00  0.00    +0.000 C 
ATOM      4  N   UNL     1       3.183   5.995  19.141  0.00  0.00    +0.000 N 
ATOM      5  C   UNL     1       2.231   6.692  19.892  0.00  0.00    +0.000 C 
ATOM      6  O   UNL     1       1.581   6.162  20.786  0.00  0.00    +0.000 OA
ATOM      7  N   UNL     1       2.076   8.003  19.501  0.00  0.00    +0.000 N 
ATOM      8  C   UNL     1       4.158   6.613  18.252  0.00  0.00    +0.000 C 
ATOM      9  C   UNL     1       4.073   5.908  16.904  0.00  0.00    +0.000 C 
ATOM     10  H   UNL     1       2.397   8.215  18.575  0.00  0.00    +0.000 HD
ENDROOT
BRANCH   7  11
ATOM     11  C   UNL     1       1.255   8.999  20.065  0.00  0.00    +0.000 A 
ATOM     12  C   UNL     1       0.441   8.805  21.174  0.00  0.00    +0.000 A 
ATOM     13  C   UNL     1      -0.420   9.822  21.581  0.00  0.00    +0.000 A 
ATOM     14  C   UNL     1      -0.464  11.050  20.899  0.00  0.00    +0.000 A 
ATOM     15  C   UNL     1       0.377  11.254  19.803  0.00  0.00    +0.000 A 
ATOM     16 CL   UNL     1       0.354  12.645  18.784  0.00  0.00    +0.000 Cl
ATOM     17  C   UNL     1       1.252  10.236  19.412  0.00  0.00    +0.000 A 
BRANCH  14  18
ATOM     18  O   UNL     1      -1.439  11.894  21.359  0.00  0.00    +0.000 OA
BRANCH  18  19
ATOM     19  S   UNL     1      -2.568  12.564  20.400  0.00  0.00    +0.000 S 
ATOM     20  O   UNL     1      -2.281  13.965  20.209  0.00  0.00    +0.000 OA
ATOM     21  O   UNL     1      -2.853  11.651  19.320  0.00  0.00    +0.000 OA
BRANCH  19  22
ATOM     22  N   UNL     1      -3.931  12.533  21.379  0.00  0.00    +0.000 NA
ATOM     23  H   UNL     1      -4.083  13.428  21.837  0.00  0.00    +0.000 HD
ATOM     24  H   UNL     1      -3.993  11.702  21.962  0.00  0.00    +0.000 HD
ENDBRANCH  19  22
ENDBRANCH  18  19
ENDBRANCH  14  18
ENDBRANCH   7  11
BRANCH   1  25
ATOM     25  C   UNL     1       5.906   4.417  17.319  0.00  0.00    +0.000 C 
BRANCH  25  26
ATOM     26  C   UNL     1       6.836   4.695  16.139  0.00  0.00    +0.000 C 
BRANCH  26  27
ATOM     27  C   UNL     1       6.263   4.218  14.810  0.00  0.00    +0.000 C 
BRANCH  27  28
ATOM     28  C   UNL     1       7.288   4.379  13.693  0.00  0.00    +0.000 C 
BRANCH  28  29
ATOM     29  C   UNL     1       6.597   4.377  12.334  0.00  0.00    +0.000 C 
BRANCH  29  30
ATOM     30  C   UNL     1       6.678   2.999  11.689  0.00  0.00    +0.000 C 
BRANCH  30  31
ATOM     31  C   UNL     1       5.313   2.318  11.674  0.00  0.00    +0.000 C 
BRANCH  31  32
ATOM     32  C   UNL     1       4.208   3.356  11.504  0.00  0.00    +0.000 C 
BRANCH  32  34
ATOM     33  C   UNL     1       2.919   4.346   9.598  0.00  0.00    +0.000 C 
ATOM     34  C   UNL     1       3.336   3.058  10.288  0.00  0.00    +0.000 C 
ENDBRANCH  32  34
ENDBRANCH  31  32
ENDBRANCH  30  31
ENDBRANCH  29  30
ENDBRANCH  28  29
ENDBRANCH  27  28
ENDBRANCH  26  27
ENDBRANCH  25  26
ENDBRANCH   1  25
TORSDOF 13
ENDMDL
MODEL 6
REMARK VINA RESULT:      -6.6      1.867      2.474
REMARK  Name = 
REMARK  14 active torsions:
REMARK  status: ('A' for Active; 'I' for Inactive)
REMARK    1  A    between atoms: C_1  and  C_2
REMARK    2  A    between atoms: C_2  and  C_3
REMARK    3  A    between atoms: C_3  and  C_4
REMARK    4  A    between atoms: C_4  and  C_5
REMARK    5  A    between atoms: C_5  and  C_6
REMARK    6  A    between atoms: C_6  and  C_7
REMARK    7  A    between atoms: C_7  and  C_8
REMARK    8  A    between atoms: C_8  and  C_9
REMARK    9  A    between atoms: C_9  and  C_10
REMARK   10  A    between atoms: C_10  and  N_11
REMARK   11  A    between atoms: N_17  and  C_18
REMARK   12  A    between atoms: C_21  and  O_22
REMARK   13  A    between atoms: O_22  and  S_23
REMARK   14  A    between atoms: S_23  and  N_24
REMARK                            x       y       z     vdW  Elec       q    Type
REMARK                         _______ _______ _______ _____ _____    ______ ____
ROOT
ATOM      1  N   UNL     1       3.394   4.270  18.720  0.00  0.00    +0.000 NA
ATOM      2  C   UNL     1       2.353   4.111  19.755  0.00  0.00    +0.000 C 
ATOM      3  C   UNL     1       2.152   5.318  20.698  0.00  0.00    +0.000 C 
ATOM      4  N   UNL     1       2.237   6.590  19.971  0.00  0.00    +0.000 N 
ATOM      5  C   UNL     1       1.366   7.634  20.297  0.00  0.00    +0.000 C 
ATOM      6  O   UNL     1       0.571   7.562  21.226  0.00  0.00    +0.000 OA
ATOM      7  N   UNL     1       1.468   8.718  19.454  0.00  0.00    +0.000 N 
ATOM      8  C   UNL     1       3.367   6.702  19.057  0.00  0.00    +0.000 C 
ATOM      9  C   UNL     1       3.262   5.569  18.044  0.00  0.00    +0.000 C 
ATOM     10  H   UNL     1       1.888   8.530  18.563  0.00  0.00    +0.000 HD
ENDROOT
BRANCH   7  11
ATOM     11  C   UNL     1       0.791   9.951  19.519  0.00  0.00    +0.000 A 
ATOM     12  C   UNL     1       0.928  10.864  20.557  0.00  0.00    +0.000 A 
ATOM     13  C   UNL     1       0.125  12.003  20.582  0.00  0.00    +0.000 A 
ATOM     14  C   UNL     1      -0.809  12.253  19.562  0.00  0.00    +0.000 A 
ATOM     15  C   UNL     1      -0.923  11.349  18.504  0.00  0.00    +0.000 A 
ATOM     16 CL   UNL     1      -2.104  11.440  17.249  0.00  0.00    +0.000 Cl
ATOM     17  C   UNL     1      -0.101  10.219  18.475  0.00  0.00    +0.000 A 
BRANCH  14  18
ATOM     18  O   UNL     1      -1.590  13.352  19.796  0.00  0.00    +0.000 OA
BRANCH  18  19
ATOM     19  S   UNL     1      -2.968  13.304  20.657  0.00  0.00    +0.000 S 
ATOM     20  O   UNL     1      -3.985  12.596  19.918  0.00  0.00    +0.000 OA
ATOM     21  O   UNL     1      -2.640  13.026  22.034  0.00  0.00    +0.000 OA
BRANCH  19  22
ATOM     22  N   UNL     1      -3.459  14.909  20.635  0.00  0.00    +0.000 NA
ATOM     23  H   UNL     1      -2.776  15.515  21.080  0.00  0.00    +0.000 HD
ATOM     24  H   UNL     1      -4.432  15.040  20.901  0.00  0.00    +0.000 HD
ENDBRANCH  19  22
ENDBRANCH  18  19
ENDBRANCH  14  18
ENDBRANCH   7  11
BRANCH   1  25
ATOM     25  C   UNL     1       4.776   4.104  19.193  0.00  0.00    +0.000 C 
BRANCH  25  26
ATOM     26  C   UNL     1       5.765   5.195  18.787  0.00  0.00    +0.000 C 
BRANCH  26  27
ATOM     27  C   UNL     1       6.853   4.686  17.850  0.00  0.00    +0.000 C 
BRANCH  27  28
ATOM     28  C   UNL     1       7.136   5.704  16.750  0.00  0.00    +0.000 C 
BRANCH  28  29
ATOM     29  C   UNL     1       6.097   5.590  15.641  0.00  0.00    +0.000 C 
BRANCH  29  30
ATOM     30  C   UNL     1       5.930   4.139  15.206  0.00  0.00    +0.000 C 
BRANCH  30  31
ATOM     31  C   UNL     1       5.305   4.049  13.817  0.00  0.00    +0.000 C 
BRANCH  31  32
ATOM     32  C   UNL     1       6.331   3.540  12.810  0.00  0.00    +0.000 C 
BRANCH  32  34
ATOM     33  C   UNL     1       4.259   3.229  11.437  0.00  0.00    +0.000 C 
ATOM     34  C   UNL     1       5.674   2.737  11.691  0.00  0.00    +0.000 C 
ENDBRANCH  32  34
ENDBRANCH  31  32
ENDBRANCH  30  31
ENDBRANCH  29  30
ENDBRANCH  28  29
ENDBRANCH  27  28
ENDBRANCH  26  27
ENDBRANCH  25  26
ENDBRANCH   1  25
TORSDOF 13
ENDMDL
MODEL 7
REMARK VINA RESULT:      -6.6      0.980      1.188
REMARK  Name = 
REMARK  14 active torsions:
REMARK  status: ('A' for Active; 'I' for Inactive)
REMARK    1  A    between atoms: C_1  and  C_2
REMARK    2  A    between atoms: C_2  and  C_3
REMARK    3  A    between atoms: C_3  and  C_4
REMARK    4  A    between atoms: C_4  and  C_5
REMARK    5  A    between atoms: C_5  and  C_6
REMARK    6  A    between atoms: C_6  and  C_7
REMARK    7  A    between atoms: C_7  and  C_8
REMARK    8  A    between atoms: C_8  and  C_9
REMARK    9  A    between atoms: C_9  and  C_10
REMARK   10  A    between atoms: C_10  and  N_11
REMARK   11  A    between atoms: N_17  and  C_18
REMARK   12  A    between atoms: C_21  and  O_22
REMARK   13  A    between atoms: O_22  and  S_23
REMARK   14  A    between atoms: S_23  and  N_24
REMARK                            x       y       z     vdW  Elec       q    Type
REMARK                         _______ _______ _______ _____ _____    ______ ____
ROOT
ATOM      1  N   UNL     1       4.774   4.437  17.047  0.00  0.00    +0.000 NA
ATOM      2  C   UNL     1       3.928   3.725  18.027  0.00  0.00    +0.000 C 
ATOM      3  C   UNL     1       3.601   4.502  19.321  0.00  0.00    +0.000 C 
ATOM      4  N   UNL     1       3.326   5.917  19.046  0.00  0.00    +0.000 N 
ATOM      5  C   UNL     1       2.305   6.572  19.741  0.00  0.00    +0.000 C 
ATOM      6  O   UNL     1       1.666   6.032  20.636  0.00  0.00    +0.000 OA
ATOM      7  N   UNL     1       2.071   7.854  19.294  0.00  0.00    +0.000 N 
ATOM      8  C   UNL     1       4.283   6.569  18.160  0.00  0.00    +0.000 C 
ATOM      9  C   UNL     1       4.289   5.809  16.840  0.00  0.00    +0.000 C 
ATOM     10  H   UNL     1       2.405   8.053  18.369  0.00  0.00    +0.000 HD
ENDROOT
BRANCH   7  11
ATOM     11  C   UNL     1       1.166   8.809  19.793  0.00  0.00    +0.000 A 
ATOM     12  C   UNL     1       0.595   9.820  19.030  0.00  0.00    +0.000 A 
ATOM     13  C   UNL     1      -0.200  10.784  19.646  0.00  0.00    +0.000 A 
ATOM     14  C   UNL     1      -0.450  10.740  21.028  0.00  0.00    +0.000 A 
ATOM     15  C   UNL     1       0.100   9.706  21.790  0.00  0.00    +0.000 A 
ATOM     16 CL   UNL     1      -0.001   9.581  23.507  0.00  0.00    +0.000 Cl
ATOM     17  C   UNL     1       0.880   8.731  21.161  0.00  0.00    +0.000 A 
BRANCH  14  18
ATOM     18  O   UNL     1      -1.154  11.819  21.490  0.00  0.00    +0.000 OA
BRANCH  18  19
ATOM     19  S   UNL     1      -0.453  13.138  22.132  0.00  0.00    +0.000 S 
ATOM     20  O   UNL     1      -0.846  13.279  23.513  0.00  0.00    +0.000 OA
ATOM     21  O   UNL     1       0.916  13.197  21.679  0.00  0.00    +0.000 OA
BRANCH  19  22
ATOM     22  N   UNL     1      -1.239  14.386  21.331  0.00  0.00    +0.000 NA
ATOM     23  H   UNL     1      -0.771  14.625  20.461  0.00  0.00    +0.000 HD
ATOM     24  H   UNL     1      -1.501  15.158  21.940  0.00  0.00    +0.000 HD
ENDBRANCH  19  22
ENDBRANCH  18  19
ENDBRANCH  14  18
ENDBRANCH   7  11
BRANCH   1  25
ATOM     25  C   UNL     1       6.209   4.468  17.366  0.00  0.00    +0.000 C 
BRANCH  25  26
ATOM     26  C   UNL     1       7.054   5.466  16.578  0.00  0.00    +0.000 C 
BRANCH  26  27
ATOM     27  C   UNL     1       6.791   5.408  15.078  0.00  0.00    +0.000 C 
BRANCH  27  28
ATOM     28  C   UNL     1       6.581   3.967  14.624  0.00  0.00    +0.000 C 
BRANCH  28  29
ATOM     29  C   UNL     1       5.392   3.877  13.674  0.00  0.00    +0.000 C 
BRANCH  29  30
ATOM     30  C   UNL     1       5.806   3.246  12.351  0.00  0.00    +0.000 C 
BRANCH  30  31
ATOM     31  C   UNL     1       4.898   3.707  11.214  0.00  0.00    +0.000 C 
BRANCH  31  32
ATOM     32  C   UNL     1       3.650   2.832  11.148  0.00  0.00    +0.000 C 
BRANCH  32  34
ATOM     33  C   UNL     1       2.889   4.596   9.541  0.00  0.00    +0.000 C 
ATOM     34  C   UNL     1       2.823   3.120   9.899  0.00  0.00    +0.000 C 
ENDBRANCH  32  34
ENDBRANCH  31  32
ENDBRANCH  30  31
ENDBRANCH  29  30
ENDBRANCH  28  29
ENDBRANCH  27  28
ENDBRANCH  26  27
ENDBRANCH  25  26
ENDBRANCH   1  25
TORSDOF 13
ENDMDL
MODEL 8
REMARK VINA RESULT:      -6.5      3.129      4.421
REMARK  Name = 
REMARK  14 active torsions:
REMARK  status: ('A' for Active; 'I' for Inactive)
REMARK    1  A    between atoms: C_1  and  C_2
REMARK    2  A    between atoms: C_2  and  C_3
REMARK    3  A    between atoms: C_3  and  C_4
REMARK    4  A    between atoms: C_4  and  C_5
REMARK    5  A    between atoms: C_5  and  C_6
REMARK    6  A    between atoms: C_6  and  C_7
REMARK    7  A    between atoms: C_7  and  C_8
REMARK    8  A    between atoms: C_8  and  C_9
REMARK    9  A    between atoms: C_9  and  C_10
REMARK   10  A    between atoms: C_10  and  N_11
REMARK   11  A    between atoms: N_17  and  C_18
REMARK   12  A    between atoms: C_21  and  O_22
REMARK   13  A    between atoms: O_22  and  S_23
REMARK   14  A    between atoms: S_23  and  N_24
REMARK                            x       y       z     vdW  Elec       q    Type
REMARK                         _______ _______ _______ _____ _____    ______ ____
ROOT
ATOM      1  N   UNL     1       2.046   4.114  19.014  0.00  0.00    +0.000 NA
ATOM      2  C   UNL     1       1.713   4.494  20.403  0.00  0.00    +0.000 C 
ATOM      3  C   UNL     1       2.177   5.900  20.845  0.00  0.00    +0.000 C 
ATOM      4  N   UNL     1       1.992   6.889  19.777  0.00  0.00    +0.000 N 
ATOM      5  C   UNL     1       1.547   8.176  20.095  0.00  0.00    +0.000 C 
ATOM      6  O   UNL     1       1.372   8.545  21.250  0.00  0.00    +0.000 OA
ATOM      7  N   UNL     1       1.294   8.958  18.990  0.00  0.00    +0.000 N 
ATOM      8  C   UNL     1       2.460   6.470  18.462  0.00  0.00    +0.000 C 
ATOM      9  C   UNL     1       1.710   5.200  18.083  0.00  0.00    +0.000 C 
ATOM     10  H   UNL     1       1.148   8.457  18.134  0.00  0.00    +0.000 HD
ENDROOT
BRANCH   7  11
ATOM     11  C   UNL     1       0.891  10.307  18.939  0.00  0.00    +0.000 A 
ATOM     12  C   UNL     1      -0.428  10.732  19.036  0.00  0.00    +0.000 A 
ATOM     13  C   UNL     1      -0.730  12.081  18.858  0.00  0.00    +0.000 A 
ATOM     14  C   UNL     1       0.281  13.022  18.601  0.00  0.00    +0.000 A 
ATOM     15  C   UNL     1       1.610  12.596  18.534  0.00  0.00    +0.000 A 
ATOM     16 CL   UNL     1       2.947  13.596  18.100  0.00  0.00    +0.000 Cl
ATOM     17  C   UNL     1       1.908  11.246  18.734  0.00  0.00    +0.000 A 
BRANCH  14  18
ATOM     18  O   UNL     1      -0.197  14.278  18.342  0.00  0.00    +0.000 OA
BRANCH  18  19
ATOM     19  S   UNL     1       0.013  15.540  19.345  0.00  0.00    +0.000 S 
ATOM     20  O   UNL     1       0.057  15.079  20.711  0.00  0.00    +0.000 OA
ATOM     21  O   UNL     1       0.995  16.427  18.768  0.00  0.00    +0.000 OA
BRANCH  19  22
ATOM     22  N   UNL     1      -1.450  16.351  19.211  0.00  0.00    +0.000 NA
ATOM     23  H   UNL     1      -2.212  15.714  18.995  0.00  0.00    +0.000 HD
ATOM     24  H   UNL     1      -1.393  17.203  18.658  0.00  0.00    +0.000 HD
ENDBRANCH  19  22
ENDBRANCH  18  19
ENDBRANCH  14  18
ENDBRANCH   7  11
BRANCH   1  25
ATOM     25  C   UNL     1       3.440   3.699  18.798  0.00  0.00    +0.000 C 
BRANCH  25  26
ATOM     26  C   UNL     1       3.665   2.609  17.753  0.00  0.00    +0.000 C 
BRANCH  26  27
ATOM     27  C   UNL     1       4.737   2.979  16.735  0.00  0.00    +0.000 C 
BRANCH  27  28
ATOM     28  C   UNL     1       5.318   4.356  17.041  0.00  0.00    +0.000 C 
BRANCH  28  29
ATOM     29  C   UNL     1       5.530   5.141  15.752  0.00  0.00    +0.000 C 
BRANCH  29  30
ATOM     30  C   UNL     1       5.155   6.605  15.945  0.00  0.00    +0.000 C 
BRANCH  30  31
ATOM     31  C   UNL     1       5.830   7.188  17.183  0.00  0.00    +0.000 C 
BRANCH  31  32
ATOM     32  C   UNL     1       7.340   6.987  17.103  0.00  0.00    +0.000 C 
BRANCH  32  34
ATOM     33  C   UNL     1       7.847   5.749  19.221  0.00  0.00    +0.000 C 
ATOM     34  C   UNL     1       7.994   7.067  18.479  0.00  0.00    +0.000 C 
ENDBRANCH  32  34
ENDBRANCH  31  32
ENDBRANCH  30  31
ENDBRANCH  29  30
ENDBRANCH  28  29
ENDBRANCH  27  28
ENDBRANCH  26  27
ENDBRANCH  25  26
ENDBRANCH   1  25
TORSDOF 13
ENDMDL
MODEL 9
REMARK VINA RESULT:      -6.5      2.686      4.110
REMARK  Name = 
REMARK  14 active torsions:
REMARK  status: ('A' for Active; 'I' for Inactive)
REMARK    1  A    between atoms: C_1  and  C_2
REMARK    2  A    between atoms: C_2  and  C_3
REMARK    3  A    between atoms: C_3  and  C_4
REMARK    4  A    between atoms: C_4  and  C_5
REMARK    5  A    between atoms: C_5  and  C_6
REMARK    6  A    between atoms: C_6  and  C_7
REMARK    7  A    between atoms: C_7  and  C_8
REMARK    8  A    between atoms: C_8  and  C_9
REMARK    9  A    between atoms: C_9  and  C_10
REMARK   10  A    between atoms: C_10  and  N_11
REMARK   11  A    between atoms: N_17  and  C_18
REMARK   12  A    between atoms: C_21  and  O_22
REMARK   13  A    between atoms: O_22  and  S_23
REMARK   14  A    between atoms: S_23  and  N_24
REMARK                            x       y       z     vdW  Elec       q    Type
REMARK                         _______ _______ _______ _____ _____    ______ ____
ROOT
ATOM      1  N   UNL     1       2.095   4.005  19.120  0.00  0.00    +0.000 NA
ATOM      2  C   UNL     1       1.660   4.471  20.453  0.00  0.00    +0.000 C 
ATOM      3  C   UNL     1       2.132   5.885  20.858  0.00  0.00    +0.000 C 
ATOM      4  N   UNL     1       2.070   6.818  19.727  0.00  0.00    +0.000 N 
ATOM      5  C   UNL     1       1.643   8.133  19.938  0.00  0.00    +0.000 C 
ATOM      6  O   UNL     1       1.385   8.571  21.053  0.00  0.00    +0.000 OA
ATOM      7  N   UNL     1       1.511   8.860  18.776  0.00  0.00    +0.000 N 
ATOM      8  C   UNL     1       2.632   6.314  18.481  0.00  0.00    +0.000 C 
ATOM      9  C   UNL     1       1.874   5.046  18.107  0.00  0.00    +0.000 C 
ATOM     10  H   UNL     1       1.420   8.316  17.938  0.00  0.00    +0.000 HD
ENDROOT
BRANCH   7  11
ATOM     11  C   UNL     1       1.159  10.214  18.619  0.00  0.00    +0.000 A 
ATOM     12  C   UNL     1       2.075  11.251  18.502  0.00  0.00    +0.000 A 
ATOM     13  C   UNL     1       1.623  12.569  18.467  0.00  0.00    +0.000 A 
ATOM     14  C   UNL     1       0.251  12.865  18.529  0.00  0.00    +0.000 A 
ATOM     15  C   UNL     1      -0.671  11.819  18.616  0.00  0.00    +0.000 A 
ATOM     16 CL   UNL     1      -2.371  12.016  18.832  0.00  0.00    +0.000 Cl
ATOM     17  C   UNL     1      -0.211  10.500  18.631  0.00  0.00    +0.000 A 
BRANCH  14  18
ATOM     18  O   UNL     1      -0.014  14.206  18.595  0.00  0.00    +0.000 OA
BRANCH  18  19
ATOM     19  S   UNL     1      -0.214  15.012  19.994  0.00  0.00    +0.000 S 
ATOM     20  O   UNL     1      -0.168  14.089  21.102  0.00  0.00    +0.000 OA
ATOM     21  O   UNL     1       0.555  16.231  19.935  0.00  0.00    +0.000 OA
BRANCH  19  22
ATOM     22  N   UNL     1      -1.819  15.495  19.902  0.00  0.00    +0.000 NA
ATOM     23  H   UNL     1      -2.115  15.624  18.938  0.00  0.00    +0.000 HD
ATOM     24  H   UNL     1      -2.059  16.232  20.560  0.00  0.00    +0.000 HD
ENDBRANCH  19  22
ENDBRANCH  18  19
ENDBRANCH  14  18
ENDBRANCH   7  11
BRANCH   1  25
ATOM     25  C   UNL     1       3.487   3.539  19.046  0.00  0.00    +0.000 C 
BRANCH  25  26
ATOM     26  C   UNL     1       3.916   2.898  17.727  0.00  0.00    +0.000 C 
BRANCH  26  27
ATOM     27  C   UNL     1       5.075   3.632  17.064  0.00  0.00    +0.000 C 
BRANCH  27  28
ATOM     28  C   UNL     1       4.634   4.253  15.743  0.00  0.00    +0.000 C 
BRANCH  28  29
ATOM     29  C   UNL     1       5.839   4.794  14.982  0.00  0.00    +0.000 C 
BRANCH  29  30
ATOM     30  C   UNL     1       7.023   4.996  15.920  0.00  0.00    +0.000 C 
BRANCH  30  31
ATOM     31  C   UNL     1       7.316   6.479  16.124  0.00  0.00    +0.000 C 
BRANCH  31  32
ATOM     32  C   UNL     1       6.872   6.917  17.517  0.00  0.00    +0.000 C 
BRANCH  32  34
ATOM     33  C   UNL     1       7.104   5.494  19.565  0.00  0.00    +0.000 C 
ATOM     34  C   UNL     1       7.826   6.417  18.597  0.00  0.00    +0.000 C 
ENDBRANCH  32  34
ENDBRANCH  31  32
ENDBRANCH  30  31
ENDBRANCH  29  30
ENDBRANCH  28  29
ENDBRANCH  27  28
ENDBRANCH  26  27
ENDBRANCH  25  26
ENDBRANCH   1  25
TORSDOF 13
ENDMDL
