MODEL 1
REMARK VINA RESULT:      -6.4      0.000      0.000
REMARK  Name = 
REMARK  10 active torsions:
REMARK  status: ('A' for Active; 'I' for Inactive)
REMARK    1  A    between atoms: C_1  and  C_2
REMARK    2  A    between atoms: C_2  and  O_3
REMARK    3  A    between atoms: O_3  and  C_4
REMARK    4  A    between atoms: C_4  and  C_6
REMARK    5  A    between atoms: C_7  and  N_8
REMARK    6  A    between atoms: C_9  and  C_11
REMARK    7  A    between atoms: C_11  and  S_12
REMARK    8  A    between atoms: S_12  and  C_13
REMARK    9  A    between atoms: C_19  and  C_20
REMARK   10  A    between atoms: C_21  and  C_22
REMARK                            x       y       z     vdW  Elec       q    Type
REMARK                         _______ _______ _______ _____ _____    ______ ____
ROOT
ATOM      1  C   UNL     1       3.102   4.365  19.253  0.00  0.00    +0.000 A 
ATOM      2  C   UNL     1       4.310   3.672  19.288  0.00  0.00    +0.000 A 
ATOM      3  S   UNL     1       4.292   2.435  20.452  0.00  0.00    +0.000 S 
ATOM      4  C   UNL     1       2.698   2.756  20.928  0.00  0.00    +0.000 A 
ATOM      5  C   UNL     1       2.067   1.910  21.982  0.00  0.00    +0.000 C 
ATOM      6  C   UNL     1       2.157   3.824  20.232  0.00  0.00    +0.000 A 
ATOM      7  C   UNL     1       0.764   4.341  20.440  0.00  0.00    +0.000 C 
ENDROOT
BRANCH   2   8
ATOM      8  N   UNL     1       5.449   3.867  18.503  0.00  0.00    +0.000 N 
ATOM      9  C   UNL     1       6.548   4.663  18.816  0.00  0.00    +0.000 C 
ATOM     10  O   UNL     1       6.696   5.350  19.827  0.00  0.00    +0.000 OA
ATOM     11  H   UNL     1       5.470   3.345  17.634  0.00  0.00    +0.000 HD
BRANCH   9  12
ATOM     12  C   UNL     1       7.614   4.685  17.730  0.00  0.00    +0.000 C 
BRANCH  12  13
ATOM     13  S   UNL     1       7.250   5.950  16.488  0.00  0.00    +0.000 S 
BRANCH  13  14
ATOM     14  C   UNL     1       6.835   4.956  15.126  0.00  0.00    +0.000 A 
ATOM     15  N   UNL     1       7.235   5.218  13.840  0.00  0.00    +0.000 NA
ATOM     16  C   UNL     1       6.784   4.175  13.180  0.00  0.00    +0.000 A 
ATOM     17  N   UNL     1       6.126   3.346  14.030  0.00  0.00    +0.000 N 
ATOM     18  N   UNL     1       6.163   3.814  15.283  0.00  0.00    +0.000 NA
ATOM     19  H   UNL     1       5.662   2.464  13.839  0.00  0.00    +0.000 HD
ENDBRANCH  13  14
ENDBRANCH  12  13
ENDBRANCH   9  12
ENDBRANCH   2   8
BRANCH   1  20
ATOM     20  C   UNL     1       2.764   5.461  18.332  0.00  0.00    +0.000 C 
ATOM     21  O   UNL     1       1.897   5.369  17.468  0.00  0.00    +0.000 OA
BRANCH  20  22
ATOM     22  O   UNL     1       3.582   6.551  18.466  0.00  0.00    +0.000 OA
BRANCH  22  24
ATOM     23  C   UNL     1       2.117   8.432  18.406  0.00  0.00    +0.000 C 
ATOM     24  C   UNL     1       3.200   7.675  17.658  0.00  0.00    +0.000 C 
ENDBRANCH  22  24
ENDBRANCH  20  22
ENDBRANCH   1  20
TORSDOF 7
ENDMDL
MODEL 2
REMARK VINA RESULT:      -6.3      2.453      6.198
REMARK  Name = 
REMARK  10 active torsions:
REMARK  status: ('A' for Active; 'I' for Inactive)
REMARK    1  A    between atoms: C_1  and  C_2
REMARK    2  A    between atoms: C_2  and  O_3
REMARK    3  A    between atoms: O_3  and  C_4
REMARK    4  A    between atoms: C_4  and  C_6
REMARK    5  A    between atoms: C_7  and  N_8
REMARK    6  A    between atoms: C_9  and  C_11
REMARK    7  A    between atoms: C_11  and  S_12
REMARK    8  A    between atoms: S_12  and  C_13
REMARK    9  A    between atoms: C_19  and  C_20
REMARK   10  A    between atoms: C_21  and  C_22
REMARK                            x       y       z     vdW  Elec       q    Type
REMARK                         _______ _______ _______ _____ _____    ______ ____
ROOT
ATOM      1  C   UNL     1       5.713   4.950  17.521  0.00  0.00    +0.000 A 
ATOM      2  C   UNL     1       5.175   3.817  16.914  0.00  0.00    +0.000 A 
ATOM      3  S   UNL     1       5.740   3.629  15.323  0.00  0.00    +0.000 S 
ATOM      4  C   UNL     1       6.720   5.010  15.391  0.00  0.00    +0.000 A 
ATOM      5  C   UNL     1       7.549   5.375  14.206  0.00  0.00    +0.000 C 
ATOM      6  C   UNL     1       6.618   5.655  16.612  0.00  0.00    +0.000 A 
ATOM      7  C   UNL     1       7.366   6.907  16.963  0.00  0.00    +0.000 C 
ENDROOT
BRANCH   2   8
ATOM      8  N   UNL     1       4.293   2.877  17.451  0.00  0.00    +0.000 N 
ATOM      9  C   UNL     1       2.902   2.904  17.379  0.00  0.00    +0.000 C 
ATOM     10  O   UNL     1       2.209   3.774  16.851  0.00  0.00    +0.000 OA
ATOM     11  H   UNL     1       4.731   2.086  17.911  0.00  0.00    +0.000 HD
BRANCH   9  12
ATOM     12  C   UNL     1       2.232   1.741  18.095  0.00  0.00    +0.000 C 
BRANCH  12  13
ATOM     13  S   UNL     1       0.733   2.282  18.952  0.00  0.00    +0.000 S 
BRANCH  13  14
ATOM     14  C   UNL     1       1.414   3.287  20.193  0.00  0.00    +0.000 A 
ATOM     15  N   UNL     1       2.155   2.807  21.243  0.00  0.00    +0.000 NA
ATOM     16  C   UNL     1       2.535   3.906  21.854  0.00  0.00    +0.000 A 
ATOM     17  N   UNL     1       2.023   4.987  21.212  0.00  0.00    +0.000 N 
ATOM     18  N   UNL     1       1.319   4.617  20.136  0.00  0.00    +0.000 NA
ATOM     19  H   UNL     1       2.124   5.972  21.428  0.00  0.00    +0.000 HD
ENDBRANCH  13  14
ENDBRANCH  12  13
ENDBRANCH   9  12
ENDBRANCH   2   8
BRANCH   1  20
ATOM     20  C   UNL     1       5.471   5.381  18.907  0.00  0.00    +0.000 C 
ATOM     21  O   UNL     1       6.290   5.233  19.808  0.00  0.00    +0.000 OA
BRANCH  20  22
ATOM     22  O   UNL     1       4.206   5.864  19.110  0.00  0.00    +0.000 OA
BRANCH  22  24
ATOM     23  C   UNL     1       2.511   7.456  18.580  0.00  0.00    +0.000 C 
ATOM     24  C   UNL     1       3.727   6.714  18.056  0.00  0.00    +0.000 C 
ENDBRANCH  22  24
ENDBRANCH  20  22
ENDBRANCH   1  20
TORSDOF 7
ENDMDL
MODEL 3
REMARK VINA RESULT:      -6.2      2.073      3.105
REMARK  Name = 
REMARK  10 active torsions:
REMARK  status: ('A' for Active; 'I' for Inactive)
REMARK    1  A    between atoms: C_1  and  C_2
REMARK    2  A    between atoms: C_2  and  O_3
REMARK    3  A    between atoms: O_3  and  C_4
REMARK    4  A    between atoms: C_4  and  C_6
REMARK    5  A    between atoms: C_7  and  N_8
REMARK    6  A    between atoms: C_9  and  C_11
REMARK    7  A    between atoms: C_11  and  S_12
REMARK    8  A    between atoms: S_12  and  C_13
REMARK    9  A    between atoms: C_19  and  C_20
REMARK   10  A    between atoms: C_21  and  C_22
REMARK                            x       y       z     vdW  Elec       q    Type
REMARK                         _______ _______ _______ _____ _____    ______ ____
ROOT
ATOM      1  C   UNL     1       3.551   3.868  19.890  0.00  0.00    +0.000 A 
ATOM      2  C   UNL     1       4.126   4.938  19.205  0.00  0.00    +0.000 A 
ATOM      3  S   UNL     1       3.218   6.361  19.391  0.00  0.00    +0.000 S 
ATOM      4  C   UNL     1       2.062   5.625  20.387  0.00  0.00    +0.000 A 
ATOM      5  C   UNL     1       0.941   6.444  20.932  0.00  0.00    +0.000 C 
ATOM      6  C   UNL     1       2.327   4.280  20.578  0.00  0.00    +0.000 A 
ATOM      7  C   UNL     1       1.475   3.368  21.411  0.00  0.00    +0.000 C 
ENDROOT
BRANCH   2   8
ATOM      8  N   UNL     1       5.300   4.959  18.451  0.00  0.00    +0.000 N 
ATOM      9  C   UNL     1       6.601   5.062  18.938  0.00  0.00    +0.000 C 
ATOM     10  O   UNL     1       6.939   5.177  20.117  0.00  0.00    +0.000 OA
ATOM     11  H   UNL     1       5.173   4.858  17.449  0.00  0.00    +0.000 HD
BRANCH   9  12
ATOM     12  C   UNL     1       7.661   5.086  17.847  0.00  0.00    +0.000 C 
BRANCH  12  13
ATOM     13  S   UNL     1       7.244   6.292  16.562  0.00  0.00    +0.000 S 
BRANCH  13  14
ATOM     14  C   UNL     1       6.871   5.236  15.236  0.00  0.00    +0.000 A 
ATOM     15  N   UNL     1       5.838   4.335  15.245  0.00  0.00    +0.000 NA
ATOM     16  C   UNL     1       5.874   3.841  14.028  0.00  0.00    +0.000 A 
ATOM     17  N   UNL     1       6.897   4.405  13.336  0.00  0.00    +0.000 N 
ATOM     18  N   UNL     1       7.536   5.314  14.081  0.00  0.00    +0.000 NA
ATOM     19  H   UNL     1       7.196   4.242  12.381  0.00  0.00    +0.000 HD
ENDBRANCH  13  14
ENDBRANCH  12  13
ENDBRANCH   9  12
ENDBRANCH   2   8
BRANCH   1  20
ATOM     20  C   UNL     1       4.103   2.507  19.978  0.00  0.00    +0.000 C 
ATOM     21  O   UNL     1       5.151   2.243  20.558  0.00  0.00    +0.000 OA
BRANCH  20  22
ATOM     22  O   UNL     1       3.386   1.586  19.262  0.00  0.00    +0.000 OA
BRANCH  22  24
ATOM     23  C   UNL     1       2.231   2.411  17.345  0.00  0.00    +0.000 C 
ATOM     24  C   UNL     1       3.498   1.735  17.838  0.00  0.00    +0.000 C 
ENDBRANCH  22  24
ENDBRANCH  20  22
ENDBRANCH   1  20
TORSDOF 7
ENDMDL
MODEL 4
REMARK VINA RESULT:      -6.1      4.610      7.557
REMARK  Name = 
REMARK  10 active torsions:
REMARK  status: ('A' for Active; 'I' for Inactive)
REMARK    1  A    between atoms: C_1  and  C_2
REMARK    2  A    between atoms: C_2  and  O_3
REMARK    3  A    between atoms: O_3  and  C_4
REMARK    4  A    between atoms: C_4  and  C_6
REMARK    5  A    between atoms: C_7  and  N_8
REMARK    6  A    between atoms: C_9  and  C_11
REMARK    7  A    between atoms: C_11  and  S_12
REMARK    8  A    between atoms: S_12  and  C_13
REMARK    9  A    between atoms: C_19  and  C_20
REMARK   10  A    between atoms: C_21  and  C_22
REMARK                            x       y       z     vdW  Elec       q    Type
REMARK                         _______ _______ _______ _____ _____    ______ ____
ROOT
ATOM      1  C   UNL     1       2.888   4.917  18.214  0.00  0.00    +0.000 A 
ATOM      2  C   UNL     1       3.205   6.268  18.333  0.00  0.00    +0.000 A 
ATOM      3  S   UNL     1       4.682   6.636  17.579  0.00  0.00    +0.000 S 
ATOM      4  C   UNL     1       4.938   5.044  17.059  0.00  0.00    +0.000 A 
ATOM      5  C   UNL     1       6.155   4.725  16.257  0.00  0.00    +0.000 C 
ATOM      6  C   UNL     1       3.922   4.197  17.467  0.00  0.00    +0.000 A 
ATOM      7  C   UNL     1       3.878   2.731  17.158  0.00  0.00    +0.000 C 
ENDROOT
BRANCH   2   8
ATOM      8  N   UNL     1       2.471   7.283  18.950  0.00  0.00    +0.000 N 
ATOM      9  C   UNL     1       2.004   8.453  18.355  0.00  0.00    +0.000 C 
ATOM     10  O   UNL     1       2.178   8.806  17.188  0.00  0.00    +0.000 OA
ATOM     11  H   UNL     1       2.240   7.119  19.924  0.00  0.00    +0.000 HD
BRANCH   9  12
ATOM     12  C   UNL     1       1.261   9.370  19.314  0.00  0.00    +0.000 C 
BRANCH  12  13
ATOM     13  S   UNL     1       1.117   8.617  20.955  0.00  0.00    +0.000 S 
BRANCH  13  14
ATOM     14  C   UNL     1       0.027   9.726  21.726  0.00  0.00    +0.000 A 
ATOM     15  N   UNL     1      -0.417   9.588  23.016  0.00  0.00    +0.000 NA
ATOM     16  C   UNL     1      -1.123  10.681  23.197  0.00  0.00    +0.000 A 
ATOM     17  N   UNL     1      -1.119  11.422  22.060  0.00  0.00    +0.000 N 
ATOM     18  N   UNL     1      -0.374  10.842  21.111  0.00  0.00    +0.000 NA
ATOM     19  H   UNL     1      -1.566  12.312  21.869  0.00  0.00    +0.000 HD
ENDBRANCH  13  14
ENDBRANCH  12  13
ENDBRANCH   9  12
ENDBRANCH   2   8
BRANCH   1  20
ATOM     20  C   UNL     1       1.661   4.273  18.710  0.00  0.00    +0.000 C 
ATOM     21  O   UNL     1       0.899   3.637  17.990  0.00  0.00    +0.000 OA
BRANCH  20  22
ATOM     22  O   UNL     1       1.404   4.543  20.027  0.00  0.00    +0.000 OA
BRANCH  22  24
ATOM     23  C   UNL     1       2.464   2.870  21.357  0.00  0.00    +0.000 C 
ATOM     24  C   UNL     1       1.136   3.379  20.824  0.00  0.00    +0.000 C 
ENDBRANCH  22  24
ENDBRANCH  20  22
ENDBRANCH   1  20
TORSDOF 7
ENDMDL
MODEL 5
REMARK VINA RESULT:      -6.1      2.777      5.289
REMARK  Name = 
REMARK  10 active torsions:
REMARK  status: ('A' for Active; 'I' for Inactive)
REMARK    1  A    between atoms: C_1  and  C_2
REMARK    2  A    between atoms: C_2  and  O_3
REMARK    3  A    between atoms: O_3  and  C_4
REMARK    4  A    between atoms: C_4  and  C_6
REMARK    5  A    between atoms: C_7  and  N_8
REMARK    6  A    between atoms: C_9  and  C_11
REMARK    7  A    between atoms: C_11  and  S_12
REMARK    8  A    between atoms: S_12  and  C_13
REMARK    9  A    between atoms: C_19  and  C_20
REMARK   10  A    between atoms: C_21  and  C_22
REMARK                            x       y       z     vdW  Elec       q    Type
REMARK                         _______ _______ _______ _____ _____    ______ ____
ROOT
ATOM      1  C   UNL     1       2.264   7.460  19.151  0.00  0.00    +0.000 A 
ATOM      2  C   UNL     1       1.977   6.985  20.429  0.00  0.00    +0.000 A 
ATOM      3  S   UNL     1       1.069   8.107  21.326  0.00  0.00    +0.000 S 
ATOM      4  C   UNL     1       1.008   9.233  20.062  0.00  0.00    +0.000 A 
ATOM      5  C   UNL     1       0.263  10.511  20.258  0.00  0.00    +0.000 C 
ATOM      6  C   UNL     1       1.696   8.793  18.944  0.00  0.00    +0.000 A 
ATOM      7  C   UNL     1       1.818   9.578  17.672  0.00  0.00    +0.000 C 
ENDROOT
BRANCH   2   8
ATOM      8  N   UNL     1       2.321   5.759  21.000  0.00  0.00    +0.000 N 
ATOM      9  C   UNL     1       1.638   4.553  20.857  0.00  0.00    +0.000 C 
ATOM     10  O   UNL     1       0.600   4.365  20.222  0.00  0.00    +0.000 OA
ATOM     11  H   UNL     1       3.175   5.761  21.548  0.00  0.00    +0.000 HD
BRANCH   9  12
ATOM     12  C   UNL     1       2.260   3.404  21.636  0.00  0.00    +0.000 C 
BRANCH  12  13
ATOM     13  S   UNL     1       2.650   2.013  20.544  0.00  0.00    +0.000 S 
BRANCH  13  14
ATOM     14  C   UNL     1       3.719   2.780  19.413  0.00  0.00    +0.000 A 
ATOM     15  N   UNL     1       4.765   3.589  19.778  0.00  0.00    +0.000 NA
ATOM     16  C   UNL     1       5.340   3.855  18.627  0.00  0.00    +0.000 A 
ATOM     17  N   UNL     1       4.654   3.252  17.623  0.00  0.00    +0.000 N 
ATOM     18  N   UNL     1       3.625   2.543  18.102  0.00  0.00    +0.000 NA
ATOM     19  H   UNL     1       4.833   3.261  16.625  0.00  0.00    +0.000 HD
ENDBRANCH  13  14
ENDBRANCH  12  13
ENDBRANCH   9  12
ENDBRANCH   2   8
BRANCH   1  20
ATOM     20  C   UNL     1       2.990   6.725  18.102  0.00  0.00    +0.000 C 
ATOM     21  O   UNL     1       2.581   5.678  17.611  0.00  0.00    +0.000 OA
BRANCH  20  22
ATOM     22  O   UNL     1       4.211   7.269  17.809  0.00  0.00    +0.000 OA
BRANCH  22  24
ATOM     23  C   UNL     1       6.295   6.754  16.768  0.00  0.00    +0.000 C 
ATOM     24  C   UNL     1       4.788   6.790  16.584  0.00  0.00    +0.000 C 
ENDBRANCH  22  24
ENDBRANCH  20  22
ENDBRANCH   1  20
TORSDOF 7
ENDMDL
MODEL 6
REMARK VINA RESULT:      -6.1      4.835      7.208
REMARK  Name = 
REMARK  10 active torsions:
REMARK  status: ('A' for Active; 'I' for Inactive)
REMARK    1  A    between atoms: C_1  and  C_2
REMARK    2  A    between atoms: C_2  and  O_3
REMARK    3  A    between atoms: O_3  and  C_4
REMARK    4  A    between atoms: C_4  and  C_6
REMARK    5  A    between atoms: C_7  and  N_8
REMARK    6  A    between atoms: C_9  and  C_11
REMARK    7  A    between atoms: C_11  and  S_12
REMARK    8  A    between atoms: S_12  and  C_13
REMARK    9  A    between atoms: C_19  and  C_20
REMARK   10  A    between atoms: C_21  and  C_22
REMARK                            x       y       z     vdW  Elec       q    Type
REMARK                         _______ _______ _______ _____ _____    ______ ____
ROOT
ATOM      1  C   UNL     1       3.225   5.162  17.947  0.00  0.00    +0.000 A 
ATOM      2  C   UNL     1       3.545   6.496  17.703  0.00  0.00    +0.000 A 
ATOM      3  S   UNL     1       5.201   6.695  17.379  0.00  0.00    +0.000 S 
ATOM      4  C   UNL     1       5.541   5.042  17.528  0.00  0.00    +0.000 A 
ATOM      5  C   UNL     1       6.936   4.562  17.307  0.00  0.00    +0.000 C 
ATOM      6  C   UNL     1       4.411   4.310  17.851  0.00  0.00    +0.000 A 
ATOM      7  C   UNL     1       4.405   2.824  18.050  0.00  0.00    +0.000 C 
ENDROOT
BRANCH   2   8
ATOM      8  N   UNL     1       2.697   7.605  17.681  0.00  0.00    +0.000 N 
ATOM      9  C   UNL     1       2.052   8.181  18.773  0.00  0.00    +0.000 C 
ATOM     10  O   UNL     1       2.097   7.796  19.942  0.00  0.00    +0.000 OA
ATOM     11  H   UNL     1       2.575   8.039  16.772  0.00  0.00    +0.000 HD
BRANCH   9  12
ATOM     12  C   UNL     1       1.171   9.366  18.406  0.00  0.00    +0.000 C 
BRANCH  12  13
ATOM     13  S   UNL     1       0.767  10.354  19.868  0.00  0.00    +0.000 S 
BRANCH  13  14
ATOM     14  C   UNL     1       0.049  11.750  19.127  0.00  0.00    +0.000 A 
ATOM     15  N   UNL     1       0.399  13.040  19.432  0.00  0.00    +0.000 NA
ATOM     16  C   UNL     1      -0.313  13.741  18.579  0.00  0.00    +0.000 A 
ATOM     17  N   UNL     1      -1.068  12.907  17.819  0.00  0.00    +0.000 N 
ATOM     18  N   UNL     1      -0.839  11.628  18.138  0.00  0.00    +0.000 NA
ATOM     19  H   UNL     1      -1.723  13.128  17.077  0.00  0.00    +0.000 HD
ENDBRANCH  13  14
ENDBRANCH  12  13
ENDBRANCH   9  12
ENDBRANCH   2   8
BRANCH   1  20
ATOM     20  C   UNL     1       1.877   4.635  18.213  0.00  0.00    +0.000 C 
ATOM     21  O   UNL     1       1.099   4.302  17.326  0.00  0.00    +0.000 OA
BRANCH  20  22
ATOM     22  O   UNL     1       1.543   4.654  19.541  0.00  0.00    +0.000 OA
BRANCH  22  24
ATOM     23  C   UNL     1       1.604   3.019  21.277  0.00  0.00    +0.000 C 
ATOM     24  C   UNL     1       0.903   3.453  20.002  0.00  0.00    +0.000 C 
ENDBRANCH  22  24
ENDBRANCH  20  22
ENDBRANCH   1  20
TORSDOF 7
ENDMDL
MODEL 7
REMARK VINA RESULT:      -6.0      2.633      4.399
REMARK  Name = 
REMARK  10 active torsions:
REMARK  status: ('A' for Active; 'I' for Inactive)
REMARK    1  A    between atoms: C_1  and  C_2
REMARK    2  A    between atoms: C_2  and  O_3
REMARK    3  A    between atoms: O_3  and  C_4
REMARK    4  A    between atoms: C_4  and  C_6
REMARK    5  A    between atoms: C_7  and  N_8
REMARK    6  A    between atoms: C_9  and  C_11
REMARK    7  A    between atoms: C_11  and  S_12
REMARK    8  A    between atoms: S_12  and  C_13
REMARK    9  A    between atoms: C_19  and  C_20
REMARK   10  A    between atoms: C_21  and  C_22
REMARK                            x       y       z     vdW  Elec       q    Type
REMARK                         _______ _______ _______ _____ _____    ______ ____
ROOT
ATOM      1  C   UNL     1       1.902   6.362  19.747  0.00  0.00    +0.000 A 
ATOM      2  C   UNL     1       2.535   6.407  18.506  0.00  0.00    +0.000 A 
ATOM      3  S   UNL     1       2.566   7.984  17.874  0.00  0.00    +0.000 S 
ATOM      4  C   UNL     1       1.773   8.654  19.213  0.00  0.00    +0.000 A 
ATOM      5  C   UNL     1       1.522  10.124  19.251  0.00  0.00    +0.000 C 
ATOM      6  C   UNL     1       1.447   7.692  20.154  0.00  0.00    +0.000 A 
ATOM      7  C   UNL     1       0.737   7.987  21.442  0.00  0.00    +0.000 C 
ENDROOT
BRANCH   2   8
ATOM      8  N   UNL     1       3.120   5.362  17.789  0.00  0.00    +0.000 N 
ATOM      9  C   UNL     1       4.200   4.579  18.191  0.00  0.00    +0.000 C 
ATOM     10  O   UNL     1       4.840   4.689  19.238  0.00  0.00    +0.000 OA
ATOM     11  H   UNL     1       2.681   5.148  16.900  0.00  0.00    +0.000 HD
BRANCH   9  12
ATOM     12  C   UNL     1       4.616   3.539  17.162  0.00  0.00    +0.000 C 
BRANCH  12  13
ATOM     13  S   UNL     1       5.428   4.315  15.743  0.00  0.00    +0.000 S 
BRANCH  13  14
ATOM     14  C   UNL     1       6.232   5.645  16.518  0.00  0.00    +0.000 A 
ATOM     15  N   UNL     1       7.415   5.528  17.201  0.00  0.00    +0.000 NA
ATOM     16  C   UNL     1       7.688   6.773  17.521  0.00  0.00    +0.000 A 
ATOM     17  N   UNL     1       6.700   7.588  17.071  0.00  0.00    +0.000 N 
ATOM     18  N   UNL     1       5.768   6.892  16.409  0.00  0.00    +0.000 NA
ATOM     19  H   UNL     1       6.607   8.594  17.155  0.00  0.00    +0.000 HD
ENDBRANCH  13  14
ENDBRANCH  12  13
ENDBRANCH   9  12
ENDBRANCH   2   8
BRANCH   1  20
ATOM     20  C   UNL     1       1.744   5.166  20.590  0.00  0.00    +0.000 C 
ATOM     21  O   UNL     1       2.473   4.917  21.544  0.00  0.00    +0.000 OA
BRANCH  20  22
ATOM     22  O   UNL     1       0.773   4.312  20.139  0.00  0.00    +0.000 OA
BRANCH  22  24
ATOM     23  C   UNL     1       1.132   2.369  18.803  0.00  0.00    +0.000 C 
ATOM     24  C   UNL     1       1.131   2.924  20.216  0.00  0.00    +0.000 C 
ENDBRANCH  22  24
ENDBRANCH  20  22
ENDBRANCH   1  20
TORSDOF 7
ENDMDL
MODEL 8
REMARK VINA RESULT:      -6.0      1.890      2.789
REMARK  Name = 
REMARK  10 active torsions:
REMARK  status: ('A' for Active; 'I' for Inactive)
REMARK    1  A    between atoms: C_1  and  C_2
REMARK    2  A    between atoms: C_2  and  O_3
REMARK    3  A    between atoms: O_3  and  C_4
REMARK    4  A    between atoms: C_4  and  C_6
REMARK    5  A    between atoms: C_7  and  N_8
REMARK    6  A    between atoms: C_9  and  C_11
REMARK    7  A    between atoms: C_11  and  S_12
REMARK    8  A    between atoms: S_12  and  C_13
REMARK    9  A    between atoms: C_19  and  C_20
REMARK   10  A    between atoms: C_21  and  C_22
REMARK                            x       y       z     vdW  Elec       q    Type
REMARK                         _______ _______ _______ _____ _____    ______ ____
ROOT
ATOM      1  C   UNL     1       3.358   4.959  19.196  0.00  0.00    +0.000 A 
ATOM      2  C   UNL     1       4.044   3.791  18.867  0.00  0.00    +0.000 A 
ATOM      3  S   UNL     1       3.533   2.475  19.812  0.00  0.00    +0.000 S 
ATOM      4  C   UNL     1       2.387   3.389  20.662  0.00  0.00    +0.000 A 
ATOM      5  C   UNL     1       1.538   2.720  21.690  0.00  0.00    +0.000 C 
ATOM      6  C   UNL     1       2.386   4.715  20.264  0.00  0.00    +0.000 A 
ATOM      7  C   UNL     1       1.481   5.762  20.841  0.00  0.00    +0.000 C 
ENDROOT
BRANCH   2   8
ATOM      8  N   UNL     1       5.028   3.605  17.894  0.00  0.00    +0.000 N 
ATOM      9  C   UNL     1       4.886   3.790  16.521  0.00  0.00    +0.000 C 
ATOM     10  O   UNL     1       3.862   4.126  15.925  0.00  0.00    +0.000 OA
ATOM     11  H   UNL     1       5.940   3.336  18.247  0.00  0.00    +0.000 HD
BRANCH   9  12
ATOM     12  C   UNL     1       6.146   3.472  15.730  0.00  0.00    +0.000 C 
BRANCH  12  13
ATOM     13  S   UNL     1       6.965   4.988  15.175  0.00  0.00    +0.000 S 
BRANCH  13  14
ATOM     14  C   UNL     1       7.341   5.730  16.699  0.00  0.00    +0.000 A 
ATOM     15  N   UNL     1       7.584   5.026  17.851  0.00  0.00    +0.000 NA
ATOM     16  C   UNL     1       7.912   5.972  18.702  0.00  0.00    +0.000 A 
ATOM     17  N   UNL     1       7.844   7.182  18.091  0.00  0.00    +0.000 N 
ATOM     18  N   UNL     1       7.500   7.051  16.805  0.00  0.00    +0.000 NA
ATOM     19  H   UNL     1       8.031   8.105  18.467  0.00  0.00    +0.000 HD
ENDBRANCH  13  14
ENDBRANCH  12  13
ENDBRANCH   9  12
ENDBRANCH   2   8
BRANCH   1  20
ATOM     20  C   UNL     1       3.520   6.267  18.541  0.00  0.00    +0.000 C 
ATOM     21  O   UNL     1       4.612   6.784  18.336  0.00  0.00    +0.000 OA
BRANCH  20  22
ATOM     22  O   UNL     1       2.329   6.891  18.281  0.00  0.00    +0.000 OA
BRANCH  22  24
ATOM     23  C   UNL     1       1.210   8.902  17.653  0.00  0.00    +0.000 C 
ATOM     24  C   UNL     1       2.366   8.317  18.445  0.00  0.00    +0.000 C 
ENDBRANCH  22  24
ENDBRANCH  20  22
ENDBRANCH   1  20
TORSDOF 7
ENDMDL
MODEL 9
REMARK VINA RESULT:      -6.0      4.945      6.443
REMARK  Name = 
REMARK  10 active torsions:
REMARK  status: ('A' for Active; 'I' for Inactive)
REMARK    1  A    between atoms: C_1  and  C_2
REMARK    2  A    between atoms: C_2  and  O_3
REMARK    3  A    between atoms: O_3  and  C_4
REMARK    4  A    between atoms: C_4  and  C_6
REMARK    5  A    between atoms: C_7  and  N_8
REMARK    6  A    between atoms: C_9  and  C_11
REMARK    7  A    between atoms: C_11  and  S_12
REMARK    8  A    between atoms: S_12  and  C_13
REMARK    9  A    between atoms: C_19  and  C_20
REMARK   10  A    between atoms: C_21  and  C_22
REMARK                            x       y       z     vdW  Elec       q    Type
REMARK                         _______ _______ _______ _____ _____    ______ ____
ROOT
ATOM      1  C   UNL     1       5.683   5.536  16.593  0.00  0.00    +0.000 A 
ATOM      2  C   UNL     1       5.549   6.813  17.136  0.00  0.00    +0.000 A 
ATOM      3  S   UNL     1       4.065   7.000  17.942  0.00  0.00    +0.000 S 
ATOM      4  C   UNL     1       3.566   5.412  17.623  0.00  0.00    +0.000 A 
ATOM      5  C   UNL     1       2.250   4.942  18.145  0.00  0.00    +0.000 C 
ATOM      6  C   UNL     1       4.504   4.717  16.877  0.00  0.00    +0.000 A 
ATOM      7  C   UNL     1       4.337   3.292  16.441  0.00  0.00    +0.000 C 
ENDROOT
BRANCH   2   8
ATOM      8  N   UNL     1       6.456   7.874  17.101  0.00  0.00    +0.000 N 
ATOM      9  C   UNL     1       7.664   7.957  17.788  0.00  0.00    +0.000 C 
ATOM     10  O   UNL     1       8.130   7.122  18.564  0.00  0.00    +0.000 OA
ATOM     11  H   UNL     1       6.204   8.638  16.484  0.00  0.00    +0.000 HD
BRANCH   9  12
ATOM     12  C   UNL     1       8.408   9.265  17.557  0.00  0.00    +0.000 C 
BRANCH  12  13
ATOM     13  S   UNL     1       9.043   9.936  19.113  0.00  0.00    +0.000 S 
BRANCH  13  14
ATOM     14  C   UNL     1       9.673  11.462  18.574  0.00  0.00    +0.000 A 
ATOM     15  N   UNL     1       9.375  12.662  19.167  0.00  0.00    +0.000 NA
ATOM     16  C   UNL     1      10.133  13.507  18.505  0.00  0.00    +0.000 A 
ATOM     17  N   UNL     1      10.831  12.842  17.548  0.00  0.00    +0.000 N 
ATOM     18  N   UNL     1      10.568  11.531  17.586  0.00  0.00    +0.000 NA
ATOM     19  H   UNL     1      11.496  13.199  16.871  0.00  0.00    +0.000 HD
ENDBRANCH  13  14
ENDBRANCH  12  13
ENDBRANCH   9  12
ENDBRANCH   2   8
BRANCH   1  20
ATOM     20  C   UNL     1       6.861   5.026  15.875  0.00  0.00    +0.000 C 
ATOM     21  O   UNL     1       7.777   4.425  16.427  0.00  0.00    +0.000 OA
BRANCH  20  22
ATOM     22  O   UNL     1       6.882   5.380  14.552  0.00  0.00    +0.000 OA
BRANCH  22  24
ATOM     23  C   UNL     1       5.748   3.822  13.146  0.00  0.00    +0.000 C 
ATOM     24  C   UNL     1       7.103   4.281  13.654  0.00  0.00    +0.000 C 
ENDBRANCH  22  24
ENDBRANCH  20  22
ENDBRANCH   1  20
TORSDOF 7
ENDMDL
