MODEL 1
REMARK VINA RESULT:      -7.7      0.000      0.000
REMARK  Name = 
REMARK  10 active torsions:
REMARK  status: ('A' for Active; 'I' for Inactive)
REMARK    1  A    between atoms: C_1  and  C_2
REMARK    2  A    between atoms: C_5  and  C_6
REMARK    3  A    between atoms: C_7  and  S_8
REMARK    4  A    between atoms: S_8  and  N_11
REMARK    5  A    between atoms: N_11  and  C_12
REMARK    6  A    between atoms: C_13  and  N_14
REMARK    7  A    between atoms: C_17  and  N_18
REMARK    8  A    between atoms: N_18  and  C_19
REMARK    9  A    between atoms: N_18  and  C_20
REMARK   10  A    between atoms: C_20  and  C_21
REMARK                            x       y       z     vdW  Elec       q    Type
REMARK                         _______ _______ _______ _____ _____    ______ ____
ROOT
ATOM      1  C   UNL     1       2.860   5.365  18.369  0.00  0.00    +0.000 C 
ATOM      2  C   UNL     1       2.282   6.234  19.256  0.00  0.00    +0.000 C 
ATOM      3  C   UNL     1       1.607   5.099  19.962  0.00  0.00    +0.000 C 
ATOM      4  O   UNL     1       0.975   4.902  20.969  0.00  0.00    +0.000 OA
ATOM      5  C   UNL     1       2.198   4.186  18.952  0.00  0.00    +0.000 C 
ATOM      6  O   UNL     1       2.203   2.987  18.836  0.00  0.00    +0.000 OA
ENDROOT
BRANCH   2   7
ATOM      7  N   UNL     1       2.239   7.533  19.509  0.00  0.00    +0.000 N 
ATOM      8  C   UNL     1       1.715   8.102  20.745  0.00  0.00    +0.000 C 
ATOM      9  C   UNL     1       0.357   8.728  20.500  0.00  0.00    +0.000 C 
ATOM     10  C   UNL     1       0.399   9.820  19.416  0.00  0.00    +0.000 C 
ATOM     11  C   UNL     1       0.999   9.128  18.161  0.00  0.00    +0.000 C 
ATOM     12  C   UNL     1       2.380   8.549  18.453  0.00  0.00    +0.000 C 
BRANCH  10  13
ATOM     13  N   UNL     1       1.116  11.041  19.852  0.00  0.00    +0.000 NA
ATOM     14  C   UNL     1       1.460  11.937  18.742  0.00  0.00    +0.000 C 
BRANCH  13  15
ATOM     15  C   UNL     1       0.547  11.822  20.990  0.00  0.00    +0.000 C 
BRANCH  15  16
ATOM     16  C   UNL     1      -0.986  11.754  21.288  0.00  0.00    +0.000 C 
ATOM     17  C   UNL     1      -1.407  11.949  22.748  0.00  0.00    +0.000 C 
ATOM     18  C   UNL     1      -1.239  13.384  23.232  0.00  0.00    +0.000 C 
ATOM     19  C   UNL     1      -2.095  14.348  22.439  0.00  0.00    +0.000 C 
ATOM     20  C   UNL     1      -1.970  14.168  20.928  0.00  0.00    +0.000 C 
ATOM     21  C   UNL     1      -1.816  12.730  20.418  0.00  0.00    +0.000 C 
ENDBRANCH  15  16
ENDBRANCH  13  15
ENDBRANCH  10  13
ENDBRANCH   2   7
BRANCH   1  22
ATOM     22  N   UNL     1       3.750   5.521  17.245  0.00  0.00    +0.000 N 
ATOM     23  H   UNL     1       3.265   5.404  16.355  0.00  0.00    +0.000 HD
BRANCH  22  24
ATOM     24  S   UNL     1       5.053   4.397  17.285  0.00  0.00    +0.000 S 
ATOM     25  O   UNL     1       4.655   3.154  16.655  0.00  0.00    +0.000 OA
ATOM     26  O   UNL     1       5.603   4.438  18.626  0.00  0.00    +0.000 OA
BRANCH  24  33
ATOM     27  C   UNL     1       6.005   3.824  14.027  0.00  0.00    +0.000 C 
ATOM     28  C   UNL     1       6.653   4.744  14.991  0.00  0.00    +0.000 A 
ATOM     29  N   UNL     1       7.673   5.511  14.578  0.00  0.00    +0.000 NA
ATOM     30  O   UNL     1       8.018   6.307  15.651  0.00  0.00    +0.000 OA
ATOM     31  C   UNL     1       7.213   6.023  16.709  0.00  0.00    +0.000 A 
ATOM     32  C   UNL     1       7.445   6.829  17.924  0.00  0.00    +0.000 C 
ATOM     33  C   UNL     1       6.326   5.036  16.336  0.00  0.00    +0.000 A 
ENDBRANCH  24  33
ENDBRANCH  22  24
ENDBRANCH   1  22
TORSDOF 7
ENDMDL
MODEL 2
REMARK VINA RESULT:      -7.6      2.784      4.655
REMARK  Name = 
REMARK  10 active torsions:
REMARK  status: ('A' for Active; 'I' for Inactive)
REMARK    1  A    between atoms: C_1  and  C_2
REMARK    2  A    between atoms: C_5  and  C_6
REMARK    3  A    between atoms: C_7  and  S_8
REMARK    4  A    between atoms: S_8  and  N_11
REMARK    5  A    between atoms: N_11  and  C_12
REMARK    6  A    between atoms: C_13  and  N_14
REMARK    7  A    between atoms: C_17  and  N_18
REMARK    8  A    between atoms: N_18  and  C_19
REMARK    9  A    between atoms: N_18  and  C_20
REMARK   10  A    between atoms: C_20  and  C_21
REMARK                            x       y       z     vdW  Elec       q    Type
REMARK                         _______ _______ _______ _____ _____    ______ ____
ROOT
ATOM      1  C   UNL     1       3.411   5.902  19.694  0.00  0.00    +0.000 C 
ATOM      2  C   UNL     1       2.811   6.862  18.924  0.00  0.00    +0.000 C 
ATOM      3  C   UNL     1       3.877   6.726  17.882  0.00  0.00    +0.000 C 
ATOM      4  O   UNL     1       4.104   7.100  16.759  0.00  0.00    +0.000 OA
ATOM      5  C   UNL     1       4.539   5.731  18.763  0.00  0.00    +0.000 C 
ATOM      6  O   UNL     1       5.503   5.024  18.619  0.00  0.00    +0.000 OA
ENDROOT
BRANCH   2   7
ATOM      7  N   UNL     1       1.751   7.657  18.952  0.00  0.00    +0.000 N 
ATOM      8  C   UNL     1       1.392   8.568  17.871  0.00  0.00    +0.000 C 
ATOM      9  C   UNL     1       1.710   9.997  18.265  0.00  0.00    +0.000 C 
ATOM     10  C   UNL     1       0.987  10.427  19.554  0.00  0.00    +0.000 C 
ATOM     11  C   UNL     1       1.404   9.381  20.624  0.00  0.00    +0.000 C 
ATOM     12  C   UNL     1       1.028   7.966  20.196  0.00  0.00    +0.000 C 
BRANCH  10  13
ATOM     13  N   UNL     1      -0.476  10.580  19.373  0.00  0.00    +0.000 NA
ATOM     14  C   UNL     1      -1.068  11.575  20.274  0.00  0.00    +0.000 C 
BRANCH  13  15
ATOM     15  C   UNL     1      -0.999  10.761  17.987  0.00  0.00    +0.000 C 
BRANCH  15  16
ATOM     16  C   UNL     1      -2.154   9.843  17.468  0.00  0.00    +0.000 C 
ATOM     17  C   UNL     1      -3.522  10.027  18.133  0.00  0.00    +0.000 C 
ATOM     18  C   UNL     1      -4.203  11.333  17.746  0.00  0.00    +0.000 C 
ATOM     19  C   UNL     1      -4.471  11.409  16.258  0.00  0.00    +0.000 C 
ATOM     20  C   UNL     1      -3.258  11.048  15.405  0.00  0.00    +0.000 C 
ATOM     21  C   UNL     1      -2.354   9.928  15.935  0.00  0.00    +0.000 C 
ENDBRANCH  15  16
ENDBRANCH  13  15
ENDBRANCH  10  13
ENDBRANCH   2   7
BRANCH   1  22
ATOM     22  N   UNL     1       3.104   5.297  20.966  0.00  0.00    +0.000 N 
ATOM     23  H   UNL     1       3.945   4.983  21.453  0.00  0.00    +0.000 HD
BRANCH  22  24
ATOM     24  S   UNL     1       2.053   3.943  20.808  0.00  0.00    +0.000 S 
ATOM     25  O   UNL     1       0.716   4.390  20.471  0.00  0.00    +0.000 OA
ATOM     26  O   UNL     1       2.311   3.076  21.941  0.00  0.00    +0.000 OA
BRANCH  24  33
ATOM     27  C   UNL     1       1.079   3.836  17.508  0.00  0.00    +0.000 C 
ATOM     28  C   UNL     1       2.140   3.022  18.146  0.00  0.00    +0.000 A 
ATOM     29  N   UNL     1       2.877   2.197  17.387  0.00  0.00    +0.000 NA
ATOM     30  O   UNL     1       3.820   1.638  18.224  0.00  0.00    +0.000 OA
ATOM     31  C   UNL     1       3.655   2.119  19.486  0.00  0.00    +0.000 A 
ATOM     32  C   UNL     1       4.623   1.632  20.488  0.00  0.00    +0.000 C 
ATOM     33  C   UNL     1       2.599   3.006  19.484  0.00  0.00    +0.000 A 
ENDBRANCH  24  33
ENDBRANCH  22  24
ENDBRANCH   1  22
TORSDOF 7
ENDMDL
MODEL 3
REMARK VINA RESULT:      -7.4      0.624      1.628
REMARK  Name = 
REMARK  10 active torsions:
REMARK  status: ('A' for Active; 'I' for Inactive)
REMARK    1  A    between atoms: C_1  and  C_2
REMARK    2  A    between atoms: C_5  and  C_6
REMARK    3  A    between atoms: C_7  and  S_8
REMARK    4  A    between atoms: S_8  and  N_11
REMARK    5  A    between atoms: N_11  and  C_12
REMARK    6  A    between atoms: C_13  and  N_14
REMARK    7  A    between atoms: C_17  and  N_18
REMARK    8  A    between atoms: N_18  and  C_19
REMARK    9  A    between atoms: N_18  and  C_20
REMARK   10  A    between atoms: C_20  and  C_21
REMARK                            x       y       z     vdW  Elec       q    Type
REMARK                         _______ _______ _______ _____ _____    ______ ____
ROOT
ATOM      1  C   UNL     1       2.718   5.254  18.346  0.00  0.00    +0.000 C 
ATOM      2  C   UNL     1       2.246   6.194  19.223  0.00  0.00    +0.000 C 
ATOM      3  C   UNL     1       1.557   5.134  20.024  0.00  0.00    +0.000 C 
ATOM      4  O   UNL     1       0.981   5.021  21.077  0.00  0.00    +0.000 OA
ATOM      5  C   UNL     1       2.031   4.143  19.025  0.00  0.00    +0.000 C 
ATOM      6  O   UNL     1       1.962   2.942  18.969  0.00  0.00    +0.000 OA
ENDROOT
BRANCH   2   7
ATOM      7  N   UNL     1       2.292   7.504  19.414  0.00  0.00    +0.000 N 
ATOM      8  C   UNL     1       1.761   8.170  20.597  0.00  0.00    +0.000 C 
ATOM      9  C   UNL     1       0.465   8.882  20.261  0.00  0.00    +0.000 C 
ATOM     10  C   UNL     1       0.637   9.913  19.131  0.00  0.00    +0.000 C 
ATOM     11  C   UNL     1       1.236   9.117  17.939  0.00  0.00    +0.000 C 
ATOM     12  C   UNL     1       2.555   8.453  18.320  0.00  0.00    +0.000 C 
BRANCH  10  13
ATOM     13  N   UNL     1       1.425  11.098  19.544  0.00  0.00    +0.000 NA
ATOM     14  C   UNL     1       1.736  12.002  18.430  0.00  0.00    +0.000 C 
BRANCH  13  15
ATOM     15  C   UNL     1       0.956  11.878  20.727  0.00  0.00    +0.000 C 
BRANCH  15  16
ATOM     16  C   UNL     1      -0.422  12.614  20.673  0.00  0.00    +0.000 C 
ATOM     17  C   UNL     1      -1.580  11.948  21.423  0.00  0.00    +0.000 C 
ATOM     18  C   UNL     1      -1.441  12.033  22.937  0.00  0.00    +0.000 C 
ATOM     19  C   UNL     1      -1.427  13.467  23.420  0.00  0.00    +0.000 C 
ATOM     20  C   UNL     1      -0.464  14.360  22.643  0.00  0.00    +0.000 C 
ATOM     21  C   UNL     1      -0.340  14.089  21.138  0.00  0.00    +0.000 C 
ENDBRANCH  15  16
ENDBRANCH  13  15
ENDBRANCH  10  13
ENDBRANCH   2   7
BRANCH   1  22
ATOM     22  N   UNL     1       3.541   5.306  17.164  0.00  0.00    +0.000 N 
ATOM     23  H   UNL     1       3.037   4.997  16.332  0.00  0.00    +0.000 HD
BRANCH  22  24
ATOM     24  S   UNL     1       4.956   4.336  17.311  0.00  0.00    +0.000 S 
ATOM     25  O   UNL     1       4.716   3.022  16.749  0.00  0.00    +0.000 OA
ATOM     26  O   UNL     1       5.451   4.517  18.662  0.00  0.00    +0.000 OA
BRANCH  24  33
ATOM     27  C   UNL     1       7.400   6.640  18.067  0.00  0.00    +0.000 C 
ATOM     28  C   UNL     1       7.158   6.003  16.750  0.00  0.00    +0.000 A 
ATOM     29  N   UNL     1       7.997   6.260  15.735  0.00  0.00    +0.000 NA
ATOM     30  O   UNL     1       7.576   5.482  14.677  0.00  0.00    +0.000 OA
ATOM     31  C   UNL     1       6.486   4.757  15.047  0.00  0.00    +0.000 A 
ATOM     32  C   UNL     1       5.944   3.845  14.020  0.00  0.00    +0.000 C 
ATOM     33  C   UNL     1       6.185   5.053  16.359  0.00  0.00    +0.000 A 
ENDBRANCH  24  33
ENDBRANCH  22  24
ENDBRANCH   1  22
TORSDOF 7
ENDMDL
MODEL 4
REMARK VINA RESULT:      -7.3      0.772      1.265
REMARK  Name = 
REMARK  10 active torsions:
REMARK  status: ('A' for Active; 'I' for Inactive)
REMARK    1  A    between atoms: C_1  and  C_2
REMARK    2  A    between atoms: C_5  and  C_6
REMARK    3  A    between atoms: C_7  and  S_8
REMARK    4  A    between atoms: S_8  and  N_11
REMARK    5  A    between atoms: N_11  and  C_12
REMARK    6  A    between atoms: C_13  and  N_14
REMARK    7  A    between atoms: C_17  and  N_18
REMARK    8  A    between atoms: N_18  and  C_19
REMARK    9  A    between atoms: N_18  and  C_20
REMARK   10  A    between atoms: C_20  and  C_21
REMARK                            x       y       z     vdW  Elec       q    Type
REMARK                         _______ _______ _______ _____ _____    ______ ____
ROOT
ATOM      1  C   UNL     1       2.876   5.387  18.350  0.00  0.00    +0.000 C 
ATOM      2  C   UNL     1       2.344   6.305  19.215  0.00  0.00    +0.000 C 
ATOM      3  C   UNL     1       1.678   5.216  19.998  0.00  0.00    +0.000 C 
ATOM      4  O   UNL     1       1.081   5.077  21.035  0.00  0.00    +0.000 OA
ATOM      5  C   UNL     1       2.219   4.248  19.011  0.00  0.00    +0.000 C 
ATOM      6  O   UNL     1       2.201   3.044  18.951  0.00  0.00    +0.000 OA
ENDROOT
BRANCH   2   7
ATOM      7  N   UNL     1       2.330   7.616  19.409  0.00  0.00    +0.000 N 
ATOM      8  C   UNL     1       1.734   8.257  20.575  0.00  0.00    +0.000 C 
ATOM      9  C   UNL     1       0.422   8.917  20.197  0.00  0.00    +0.000 C 
ATOM     10  C   UNL     1       0.589   9.956  19.074  0.00  0.00    +0.000 C 
ATOM     11  C   UNL     1       1.257   9.188  17.901  0.00  0.00    +0.000 C 
ATOM     12  C   UNL     1       2.589   8.577  18.325  0.00  0.00    +0.000 C 
BRANCH  10  13
ATOM     13  N   UNL     1       1.314  11.171  19.513  0.00  0.00    +0.000 NA
ATOM     14  C   UNL     1       1.964  11.887  18.408  0.00  0.00    +0.000 C 
BRANCH  13  15
ATOM     15  C   UNL     1       0.601  12.133  20.404  0.00  0.00    +0.000 C 
BRANCH  15  16
ATOM     16  C   UNL     1      -0.282  13.261  19.778  0.00  0.00    +0.000 C 
ATOM     17  C   UNL     1      -1.365  12.811  18.793  0.00  0.00    +0.000 C 
ATOM     18  C   UNL     1      -2.525  12.090  19.468  0.00  0.00    +0.000 C 
ATOM     19  C   UNL     1      -3.237  12.980  20.463  0.00  0.00    +0.000 C 
ATOM     20  C   UNL     1      -2.291  13.697  21.422  0.00  0.00    +0.000 C 
ATOM     21  C   UNL     1      -0.951  14.167  20.841  0.00  0.00    +0.000 C 
ENDBRANCH  15  16
ENDBRANCH  13  15
ENDBRANCH  10  13
ENDBRANCH   2   7
BRANCH   1  22
ATOM     22  N   UNL     1       3.727   5.475  17.190  0.00  0.00    +0.000 N 
ATOM     23  H   UNL     1       3.217   5.285  16.326  0.00  0.00    +0.000 HD
BRANCH  22  24
ATOM     24  S   UNL     1       5.053   4.381  17.268  0.00  0.00    +0.000 S 
ATOM     25  O   UNL     1       4.690   3.117  16.658  0.00  0.00    +0.000 OA
ATOM     26  O   UNL     1       5.584   4.460  18.615  0.00  0.00    +0.000 OA
BRANCH  24  33
ATOM     27  C   UNL     1       6.016   3.815  14.011  0.00  0.00    +0.000 C 
ATOM     28  C   UNL     1       6.656   4.739  14.978  0.00  0.00    +0.000 A 
ATOM     29  N   UNL     1       7.673   5.513  14.568  0.00  0.00    +0.000 NA
ATOM     30  O   UNL     1       8.011   6.310  15.642  0.00  0.00    +0.000 OA
ATOM     31  C   UNL     1       7.205   6.020  16.698  0.00  0.00    +0.000 A 
ATOM     32  C   UNL     1       7.429   6.827  17.914  0.00  0.00    +0.000 C 
ATOM     33  C   UNL     1       6.324   5.029  16.322  0.00  0.00    +0.000 A 
ENDBRANCH  24  33
ENDBRANCH  22  24
ENDBRANCH   1  22
TORSDOF 7
ENDMDL
MODEL 5
REMARK VINA RESULT:      -7.2      5.540     10.682
REMARK  Name = 
REMARK  10 active torsions:
REMARK  status: ('A' for Active; 'I' for Inactive)
REMARK    1  A    between atoms: C_1  and  C_2
REMARK    2  A    between atoms: C_5  and  C_6
REMARK    3  A    between atoms: C_7  and  S_8
REMARK    4  A    between atoms: S_8  and  N_11
REMARK    5  A    between atoms: N_11  and  C_12
REMARK    6  A    between atoms: C_13  and  N_14
REMARK    7  A    between atoms: C_17  and  N_18
REMARK    8  A    between atoms: N_18  and  C_19
REMARK    9  A    between atoms: N_18  and  C_20
REMARK   10  A    between atoms: C_20  and  C_21
REMARK                            x       y       z     vdW  Elec       q    Type
REMARK                         _______ _______ _______ _____ _____    ______ ____
ROOT
ATOM      1  C   UNL     1      -0.525  14.014  19.282  0.00  0.00    +0.000 C 
ATOM      2  C   UNL     1       0.687  13.377  19.254  0.00  0.00    +0.000 C 
ATOM      3  C   UNL     1       1.359  14.628  18.783  0.00  0.00    +0.000 C 
ATOM      4  O   UNL     1       2.474  15.050  18.607  0.00  0.00    +0.000 OA
ATOM      5  C   UNL     1       0.024  15.278  18.764  0.00  0.00    +0.000 C 
ATOM      6  O   UNL     1      -0.333  16.408  18.552  0.00  0.00    +0.000 OA
ENDROOT
BRANCH   2   7
ATOM      7  N   UNL     1       1.202  12.182  19.504  0.00  0.00    +0.000 N 
ATOM      8  C   UNL     1       1.804  11.329  18.486  0.00  0.00    +0.000 C 
ATOM      9  C   UNL     1       0.875  10.180  18.148  0.00  0.00    +0.000 C 
ATOM     10  C   UNL     1       0.520   9.329  19.380  0.00  0.00    +0.000 C 
ATOM     11  C   UNL     1      -0.077  10.328  20.409  0.00  0.00    +0.000 C 
ATOM     12  C   UNL     1       0.912  11.441  20.742  0.00  0.00    +0.000 C 
BRANCH  10  13
ATOM     13  N   UNL     1       1.664   8.532  19.882  0.00  0.00    +0.000 NA
ATOM     14  C   UNL     1       1.434   7.968  21.217  0.00  0.00    +0.000 C 
BRANCH  13  15
ATOM     15  C   UNL     1       2.251   7.498  18.978  0.00  0.00    +0.000 C 
BRANCH  15  16
ATOM     16  C   UNL     1       2.707   6.123  19.567  0.00  0.00    +0.000 C 
ATOM     17  C   UNL     1       1.752   4.943  19.360  0.00  0.00    +0.000 C 
ATOM     18  C   UNL     1       1.700   4.462  17.916  0.00  0.00    +0.000 C 
ATOM     19  C   UNL     1       3.050   3.970  17.439  0.00  0.00    +0.000 C 
ATOM     20  C   UNL     1       4.191   4.935  17.746  0.00  0.00    +0.000 C 
ATOM     21  C   UNL     1       4.111   5.690  19.079  0.00  0.00    +0.000 C 
ENDBRANCH  15  16
ENDBRANCH  13  15
ENDBRANCH  10  13
ENDBRANCH   2   7
BRANCH   1  22
ATOM     22  N   UNL     1      -1.864  13.612  19.635  0.00  0.00    +0.000 N 
ATOM     23  H   UNL     1      -2.551  13.926  18.949  0.00  0.00    +0.000 HD
BRANCH  22  24
ATOM     24  S   UNL     1      -2.342  14.218  21.174  0.00  0.00    +0.000 S 
ATOM     25  O   UNL     1      -2.714  15.614  21.062  0.00  0.00    +0.000 OA
ATOM     26  O   UNL     1      -1.356  13.758  22.132  0.00  0.00    +0.000 OA
BRANCH  24  33
ATOM     27  C   UNL     1      -4.649  12.390  19.387  0.00  0.00    +0.000 C 
ATOM     28  C   UNL     1      -4.658  12.644  20.848  0.00  0.00    +0.000 A 
ATOM     29  N   UNL     1      -5.598  12.062  21.607  0.00  0.00    +0.000 NA
ATOM     30  O   UNL     1      -5.315  12.412  22.911  0.00  0.00    +0.000 OA
ATOM     31  C   UNL     1      -4.209  13.204  22.943  0.00  0.00    +0.000 A 
ATOM     32  C   UNL     1      -3.764  13.628  24.285  0.00  0.00    +0.000 C 
ATOM     33  C   UNL     1      -3.754  13.377  21.653  0.00  0.00    +0.000 A 
ENDBRANCH  24  33
ENDBRANCH  22  24
ENDBRANCH   1  22
TORSDOF 7
ENDMDL
MODEL 6
REMARK VINA RESULT:      -7.2      4.867     10.064
REMARK  Name = 
REMARK  10 active torsions:
REMARK  status: ('A' for Active; 'I' for Inactive)
REMARK    1  A    between atoms: C_1  and  C_2
REMARK    2  A    between atoms: C_5  and  C_6
REMARK    3  A    between atoms: C_7  and  S_8
REMARK    4  A    between atoms: S_8  and  N_11
REMARK    5  A    between atoms: N_11  and  C_12
REMARK    6  A    between atoms: C_13  and  N_14
REMARK    7  A    between atoms: C_17  and  N_18
REMARK    8  A    between atoms: N_18  and  C_19
REMARK    9  A    between atoms: N_18  and  C_20
REMARK   10  A    between atoms: C_20  and  C_21
REMARK                            x       y       z     vdW  Elec       q    Type
REMARK                         _______ _______ _______ _____ _____    ______ ____
ROOT
ATOM      1  C   UNL     1      -0.335  13.208  18.406  0.00  0.00    +0.000 C 
ATOM      2  C   UNL     1       0.764  12.723  19.063  0.00  0.00    +0.000 C 
ATOM      3  C   UNL     1       1.170  14.109  19.456  0.00  0.00    +0.000 C 
ATOM      4  O   UNL     1       1.971  14.653  20.174  0.00  0.00    +0.000 OA
ATOM      5  C   UNL     1       0.005  14.613  18.686  0.00  0.00    +0.000 C 
ATOM      6  O   UNL     1      -0.467  15.712  18.542  0.00  0.00    +0.000 OA
ENDROOT
BRANCH   2   7
ATOM      7  N   UNL     1       1.348  11.563  19.326  0.00  0.00    +0.000 N 
ATOM      8  C   UNL     1       1.951  10.710  18.309  0.00  0.00    +0.000 C 
ATOM      9  C   UNL     1       1.068   9.506  18.045  0.00  0.00    +0.000 C 
ATOM     10  C   UNL     1       0.808   8.678  19.316  0.00  0.00    +0.000 C 
ATOM     11  C   UNL     1       0.204   9.677  20.340  0.00  0.00    +0.000 C 
ATOM     12  C   UNL     1       1.148  10.848  20.597  0.00  0.00    +0.000 C 
BRANCH  10  13
ATOM     13  N   UNL     1       2.010   7.954  19.791  0.00  0.00    +0.000 NA
ATOM     14  C   UNL     1       1.843   7.371  21.127  0.00  0.00    +0.000 C 
BRANCH  13  15
ATOM     15  C   UNL     1       2.646   6.965  18.871  0.00  0.00    +0.000 C 
BRANCH  15  16
ATOM     16  C   UNL     1       3.065   5.559  19.413  0.00  0.00    +0.000 C 
ATOM     17  C   UNL     1       2.227   4.368  18.937  0.00  0.00    +0.000 C 
ATOM     18  C   UNL     1       2.459   4.022  17.472  0.00  0.00    +0.000 C 
ATOM     19  C   UNL     1       3.896   3.629  17.208  0.00  0.00    +0.000 C 
ATOM     20  C   UNL     1       4.910   4.605  17.797  0.00  0.00    +0.000 C 
ATOM     21  C   UNL     1       4.555   5.228  19.153  0.00  0.00    +0.000 C 
ENDBRANCH  15  16
ENDBRANCH  13  15
ENDBRANCH  10  13
ENDBRANCH   2   7
BRANCH   1  22
ATOM     22  N   UNL     1      -1.414  12.601  17.668  0.00  0.00    +0.000 N 
ATOM     23  H   UNL     1      -2.011  13.298  17.221  0.00  0.00    +0.000 HD
BRANCH  22  24
ATOM     24  S   UNL     1      -2.412  11.614  18.664  0.00  0.00    +0.000 S 
ATOM     25  O   UNL     1      -2.355  12.076  20.037  0.00  0.00    +0.000 OA
ATOM     26  O   UNL     1      -2.135  10.237  18.304  0.00  0.00    +0.000 OA
BRANCH  24  33
ATOM     27  C   UNL     1      -5.172  12.944  20.234  0.00  0.00    +0.000 C 
ATOM     28  C   UNL     1      -5.117  12.379  18.865  0.00  0.00    +0.000 A 
ATOM     29  N   UNL     1      -6.211  12.436  18.089  0.00  0.00    +0.000 NA
ATOM     30  O   UNL     1      -5.846  11.913  16.866  0.00  0.00    +0.000 OA
ATOM     31  C   UNL     1      -4.539  11.539  16.899  0.00  0.00    +0.000 A 
ATOM     32  C   UNL     1      -3.997  10.992  15.639  0.00  0.00    +0.000 C 
ATOM     33  C   UNL     1      -4.033  11.819  18.151  0.00  0.00    +0.000 A 
ENDBRANCH  24  33
ENDBRANCH  22  24
ENDBRANCH   1  22
TORSDOF 7
ENDMDL
MODEL 7
REMARK VINA RESULT:      -7.2      0.679      1.054
REMARK  Name = 
REMARK  10 active torsions:
REMARK  status: ('A' for Active; 'I' for Inactive)
REMARK    1  A    between atoms: C_1  and  C_2
REMARK    2  A    between atoms: C_5  and  C_6
REMARK    3  A    between atoms: C_7  and  S_8
REMARK    4  A    between atoms: S_8  and  N_11
REMARK    5  A    between atoms: N_11  and  C_12
REMARK    6  A    between atoms: C_13  and  N_14
REMARK    7  A    between atoms: C_17  and  N_18
REMARK    8  A    between atoms: N_18  and  C_19
REMARK    9  A    between atoms: N_18  and  C_20
REMARK   10  A    between atoms: C_20  and  C_21
REMARK                            x       y       z     vdW  Elec       q    Type
REMARK                         _______ _______ _______ _____ _____    ______ ____
ROOT
ATOM      1  C   UNL     1       3.050   5.911  18.631  0.00  0.00    +0.000 C 
ATOM      2  C   UNL     1       2.297   6.729  19.430  0.00  0.00    +0.000 C 
ATOM      3  C   UNL     1       1.702   5.544  20.123  0.00  0.00    +0.000 C 
ATOM      4  O   UNL     1       1.012   5.302  21.081  0.00  0.00    +0.000 OA
ATOM      5  C   UNL     1       2.483   4.679  19.204  0.00  0.00    +0.000 C 
ATOM      6  O   UNL     1       2.640   3.486  19.137  0.00  0.00    +0.000 OA
ENDROOT
BRANCH   2   7
ATOM      7  N   UNL     1       2.080   8.022  19.626  0.00  0.00    +0.000 N 
ATOM      8  C   UNL     1       1.389   8.560  20.792  0.00  0.00    +0.000 C 
ATOM      9  C   UNL     1      -0.008   9.009  20.413  0.00  0.00    +0.000 C 
ATOM     10  C   UNL     1      -0.003  10.064  19.292  0.00  0.00    +0.000 C 
ATOM     11  C   UNL     1       0.779   9.411  18.119  0.00  0.00    +0.000 C 
ATOM     12  C   UNL     1       2.189   9.014  18.544  0.00  0.00    +0.000 C 
BRANCH  10  13
ATOM     13  N   UNL     1       0.524  11.376  19.735  0.00  0.00    +0.000 NA
ATOM     14  C   UNL     1       1.235  12.100  18.675  0.00  0.00    +0.000 C 
BRANCH  13  15
ATOM     15  C   UNL     1      -0.399  12.297  20.461  0.00  0.00    +0.000 C 
BRANCH  15  16
ATOM     16  C   UNL     1      -0.224  12.516  21.999  0.00  0.00    +0.000 C 
ATOM     17  C   UNL     1      -0.461  13.939  22.516  0.00  0.00    +0.000 C 
ATOM     18  C   UNL     1      -1.927  14.350  22.486  0.00  0.00    +0.000 C 
ATOM     19  C   UNL     1      -2.778  13.461  23.367  0.00  0.00    +0.000 C 
ATOM     20  C   UNL     1      -2.531  11.972  23.143  0.00  0.00    +0.000 C 
ATOM     21  C   UNL     1      -1.086  11.551  22.850  0.00  0.00    +0.000 C 
ENDBRANCH  15  16
ENDBRANCH  13  15
ENDBRANCH  10  13
ENDBRANCH   2   7
BRANCH   1  22
ATOM     22  N   UNL     1       4.010   6.139  17.580  0.00  0.00    +0.000 N 
ATOM     23  H   UNL     1       3.563   6.429  16.710  0.00  0.00    +0.000 HD
BRANCH  22  24
ATOM     24  S   UNL     1       4.955   4.740  17.245  0.00  0.00    +0.000 S 
ATOM     25  O   UNL     1       4.187   3.802  16.451  0.00  0.00    +0.000 OA
ATOM     26  O   UNL     1       5.591   4.354  18.490  0.00  0.00    +0.000 OA
BRANCH  24  33
ATOM     27  C   UNL     1       5.949   3.820  14.080  0.00  0.00    +0.000 C 
ATOM     28  C   UNL     1       6.623   4.791  14.974  0.00  0.00    +0.000 A 
ATOM     29  N   UNL     1       7.693   5.463  14.522  0.00  0.00    +0.000 NA
ATOM     30  O   UNL     1       8.057   6.335  15.527  0.00  0.00    +0.000 OA
ATOM     31  C   UNL     1       7.213   6.192  16.585  0.00  0.00    +0.000 A 
ATOM     32  C   UNL     1       7.461   7.093  17.728  0.00  0.00    +0.000 C 
ATOM     33  C   UNL     1       6.283   5.222  16.277  0.00  0.00    +0.000 A 
ENDBRANCH  24  33
ENDBRANCH  22  24
ENDBRANCH   1  22
TORSDOF 7
ENDMDL
MODEL 8
REMARK VINA RESULT:      -7.1      1.825      2.664
REMARK  Name = 
REMARK  10 active torsions:
REMARK  status: ('A' for Active; 'I' for Inactive)
REMARK    1  A    between atoms: C_1  and  C_2
REMARK    2  A    between atoms: C_5  and  C_6
REMARK    3  A    between atoms: C_7  and  S_8
REMARK    4  A    between atoms: S_8  and  N_11
REMARK    5  A    between atoms: N_11  and  C_12
REMARK    6  A    between atoms: C_13  and  N_14
REMARK    7  A    between atoms: C_17  and  N_18
REMARK    8  A    between atoms: N_18  and  C_19
REMARK    9  A    between atoms: N_18  and  C_20
REMARK   10  A    between atoms: C_20  and  C_21
REMARK                            x       y       z     vdW  Elec       q    Type
REMARK                         _______ _______ _______ _____ _____    ______ ____
ROOT
ATOM      1  C   UNL     1       3.285   3.428  18.161  0.00  0.00    +0.000 C 
ATOM      2  C   UNL     1       2.248   3.882  18.931  0.00  0.00    +0.000 C 
ATOM      3  C   UNL     1       2.044   2.514  19.504  0.00  0.00    +0.000 C 
ATOM      4  O   UNL     1       1.413   1.981  20.382  0.00  0.00    +0.000 OA
ATOM      5  C   UNL     1       3.133   2.036  18.615  0.00  0.00    +0.000 C 
ATOM      6  O   UNL     1       3.688   0.973  18.501  0.00  0.00    +0.000 OA
ENDROOT
BRANCH   2   7
ATOM      7  N   UNL     1       1.592   5.007  19.173  0.00  0.00    +0.000 N 
ATOM      8  C   UNL     1       1.505   6.115  18.229  0.00  0.00    +0.000 C 
ATOM      9  C   UNL     1       2.396   7.257  18.679  0.00  0.00    +0.000 C 
ATOM     10  C   UNL     1       2.041   7.761  20.089  0.00  0.00    +0.000 C 
ATOM     11  C   UNL     1       2.127   6.509  21.004  0.00  0.00    +0.000 C 
ATOM     12  C   UNL     1       1.185   5.407  20.530  0.00  0.00    +0.000 C 
BRANCH  10  13
ATOM     13  N   UNL     1       0.744   8.476  20.138  0.00  0.00    +0.000 NA
ATOM     14  C   UNL     1       0.210   8.613  21.498  0.00  0.00    +0.000 C 
BRANCH  13  15
ATOM     15  C   UNL     1       0.626   9.771  19.403  0.00  0.00    +0.000 C 
BRANCH  15  16
ATOM     16  C   UNL     1      -0.120  10.974  20.067  0.00  0.00    +0.000 C 
ATOM     17  C   UNL     1       0.682  12.269  20.227  0.00  0.00    +0.000 C 
ATOM     18  C   UNL     1       0.938  12.981  18.905  0.00  0.00    +0.000 C 
ATOM     19  C   UNL     1      -0.353  13.394  18.231  0.00  0.00    +0.000 C 
ATOM     20  C   UNL     1      -1.385  12.272  18.158  0.00  0.00    +0.000 C 
ATOM     21  C   UNL     1      -1.454  11.323  19.362  0.00  0.00    +0.000 C 
ENDBRANCH  15  16
ENDBRANCH  13  15
ENDBRANCH  10  13
ENDBRANCH   2   7
BRANCH   1  22
ATOM     22  N   UNL     1       4.180   4.046  17.215  0.00  0.00    +0.000 N 
ATOM     23  H   UNL     1       4.544   3.374  16.538  0.00  0.00    +0.000 HD
BRANCH  22  24
ATOM     24  S   UNL     1       5.524   4.798  17.984  0.00  0.00    +0.000 S 
ATOM     25  O   UNL     1       6.256   3.822  18.767  0.00  0.00    +0.000 OA
ATOM     26  O   UNL     1       5.040   6.038  18.558  0.00  0.00    +0.000 OA
BRANCH  24  33
ATOM     27  C   UNL     1       6.143   3.652  14.798  0.00  0.00    +0.000 C 
ATOM     28  C   UNL     1       6.790   4.806  15.466  0.00  0.00    +0.000 A 
ATOM     29  N   UNL     1       7.659   5.560  14.775  0.00  0.00    +0.000 NA
ATOM     30  O   UNL     1       8.034   6.588  15.615  0.00  0.00    +0.000 OA
ATOM     31  C   UNL     1       7.398   6.457  16.810  0.00  0.00    +0.000 A 
ATOM     32  C   UNL     1       7.677   7.514  17.802  0.00  0.00    +0.000 C 
ATOM     33  C   UNL     1       6.593   5.339  16.761  0.00  0.00    +0.000 A 
ENDBRANCH  24  33
ENDBRANCH  22  24
ENDBRANCH   1  22
TORSDOF 7
ENDMDL
MODEL 9
REMARK VINA RESULT:      -7.1      6.845      9.185
REMARK  Name = 
REMARK  10 active torsions:
REMARK  status: ('A' for Active; 'I' for Inactive)
REMARK    1  A    between atoms: C_1  and  C_2
REMARK    2  A    between atoms: C_5  and  C_6
REMARK    3  A    between atoms: C_7  and  S_8
REMARK    4  A    between atoms: S_8  and  N_11
REMARK    5  A    between atoms: N_11  and  C_12
REMARK    6  A    between atoms: C_13  and  N_14
REMARK    7  A    between atoms: C_17  and  N_18
REMARK    8  A    between atoms: N_18  and  C_19
REMARK    9  A    between atoms: N_18  and  C_20
REMARK   10  A    between atoms: C_20  and  C_21
REMARK                            x       y       z     vdW  Elec       q    Type
REMARK                         _______ _______ _______ _____ _____    ______ ____
ROOT
ATOM      1  C   UNL     1       7.068  16.048  18.261  0.00  0.00    +0.000 C 
ATOM      2  C   UNL     1       5.881  16.005  18.942  0.00  0.00    +0.000 C 
ATOM      3  C   UNL     1       6.048  17.430  19.368  0.00  0.00    +0.000 C 
ATOM      4  O   UNL     1       5.409  18.299  19.906  0.00  0.00    +0.000 OA
ATOM      5  C   UNL     1       7.359  17.432  18.671  0.00  0.00    +0.000 C 
ATOM      6  O   UNL     1       8.170  18.296  18.457  0.00  0.00    +0.000 OA
ENDROOT
BRANCH   2   7
ATOM      7  N   UNL     1       4.902  15.152  19.206  0.00  0.00    +0.000 N 
ATOM      8  C   UNL     1       4.139  14.451  18.180  0.00  0.00    +0.000 C 
ATOM      9  C   UNL     1       2.754  15.054  18.054  0.00  0.00    +0.000 C 
ATOM     10  C   UNL     1       1.974  15.018  19.381  0.00  0.00    +0.000 C 
ATOM     11  C   UNL     1       2.880  15.754  20.407  0.00  0.00    +0.000 C 
ATOM     12  C   UNL     1       4.246  15.085  20.522  0.00  0.00    +0.000 C 
BRANCH  10  13
ATOM     13  N   UNL     1       1.571  13.649  19.779  0.00  0.00    +0.000 NA
ATOM     14  C   UNL     1       1.114  13.563  21.171  0.00  0.00    +0.000 C 
BRANCH  13  15
ATOM     15  C   UNL     1       0.642  12.900  18.882  0.00  0.00    +0.000 C 
BRANCH  15  16
ATOM     16  C   UNL     1      -0.364  11.871  19.493  0.00  0.00    +0.000 C 
ATOM     17  C   UNL     1      -1.830  12.022  19.076  0.00  0.00    +0.000 C 
ATOM     18  C   UNL     1      -2.085  11.618  17.630  0.00  0.00    +0.000 C 
ATOM     19  C   UNL     1      -1.750  10.162  17.386  0.00  0.00    +0.000 C 
ATOM     20  C   UNL     1      -0.382   9.756  17.926  0.00  0.00    +0.000 C 
ATOM     21  C   UNL     1       0.052  10.399  19.249  0.00  0.00    +0.000 C 
ENDBRANCH  15  16
ENDBRANCH  13  15
ENDBRANCH  10  13
ENDBRANCH   2   7
BRANCH   1  22
ATOM     22  N   UNL     1       7.806  15.098  17.467  0.00  0.00    +0.000 N 
ATOM     23  H   UNL     1       7.189  14.489  16.928  0.00  0.00    +0.000 HD
BRANCH  22  24
ATOM     24  S   UNL     1       8.824  14.096  18.428  0.00  0.00    +0.000 S 
ATOM     25  O   UNL     1       8.324  12.735  18.427  0.00  0.00    +0.000 OA
ATOM     26  O   UNL     1       9.085  14.819  19.658  0.00  0.00    +0.000 OA
BRANCH  24  33
ATOM     27  C   UNL     1      10.871  16.581  17.211  0.00  0.00    +0.000 C 
ATOM     28  C   UNL     1      11.146  15.125  17.207  0.00  0.00    +0.000 A 
ATOM     29  N   UNL     1      12.333  14.684  16.762  0.00  0.00    +0.000 NA
ATOM     30  O   UNL     1      12.332  13.317  16.946  0.00  0.00    +0.000 OA
ATOM     31  C   UNL     1      11.151  12.929  17.497  0.00  0.00    +0.000 A 
ATOM     32  C   UNL     1      11.022  11.487  17.786  0.00  0.00    +0.000 C 
ATOM     33  C   UNL     1      10.365  14.046  17.684  0.00  0.00    +0.000 A 
ENDBRANCH  24  33
ENDBRANCH  22  24
ENDBRANCH   1  22
TORSDOF 7
ENDMDL
