MODEL 1
REMARK VINA RESULT:      -8.6      0.000      0.000
REMARK  Name = 
REMARK  5 active torsions:
REMARK  status: ('A' for Active; 'I' for Inactive)
REMARK    1  A    between atoms: C_1  and  C_2
REMARK    2  A    between atoms: C_9  and  C_10
REMARK    3  A    between atoms: N_12  and  C_13
REMARK    4  A    between atoms: C_17  and  C_18
REMARK    5  A    between atoms: C_25  and  C_26
REMARK                            x       y       z     vdW  Elec       q    Type
REMARK                         _______ _______ _______ _____ _____    ______ ____
ROOT
ATOM      1  C   UNL     1       1.960   7.813  19.694  0.00  0.00    +0.000 C 
ATOM      2  O   UNL     1       2.253   8.156  18.554  0.00  0.00    +0.000 OA
ATOM      3  N   UNL     1       2.308   6.616  20.300  0.00  0.00    +0.000 N 
ATOM      4  H   UNL     1       1.877   6.413  21.194  0.00  0.00    +0.000 HD
ENDROOT
BRANCH   1  13
ATOM      5  C   UNL     1      -2.861  13.415  20.169  0.00  0.00    +0.000 C 
ATOM      6  C   UNL     1      -1.980  12.376  20.811  0.00  0.00    +0.000 A 
ATOM      7  C   UNL     1      -1.778  12.429  22.200  0.00  0.00    +0.000 A 
ATOM      8  C   UNL     1      -0.979  11.486  22.838  0.00  0.00    +0.000 A 
ATOM      9  C   UNL     1      -0.345  10.502  22.081  0.00  0.00    +0.000 A 
ATOM     10  C   UNL     1       0.520   9.516  22.743  0.00  0.00    +0.000 A 
ATOM     11  O   UNL     1       0.618   9.439  23.960  0.00  0.00    +0.000 OA
ATOM     12  C   UNL     1       1.291   8.636  21.865  0.00  0.00    +0.000 A 
ATOM     13  C   UNL     1       1.094   8.702  20.539  0.00  0.00    +0.000 A 
ATOM     14  O   UNL     1       0.173   9.529  19.920  0.00  0.00    +0.000 OA
ATOM     15  C   UNL     1      -0.507  10.446  20.694  0.00  0.00    +0.000 A 
ATOM     16  C   UNL     1      -1.361  11.357  20.046  0.00  0.00    +0.000 A 
ATOM     17  C   UNL     1      -1.629  11.253  18.567  0.00  0.00    +0.000 C 
ENDBRANCH   1  13
BRANCH   3  18
ATOM     18  C   UNL     1       3.121   5.612  19.722  0.00  0.00    +0.000 A 
ATOM     19  C   UNL     1       4.463   5.825  19.391  0.00  0.00    +0.000 A 
ATOM     20  C   UNL     1       5.232   4.820  18.805  0.00  0.00    +0.000 A 
ATOM     21  C   UNL     1       4.665   3.582  18.528  0.00  0.00    +0.000 A 
ATOM     22  C   UNL     1       3.323   3.334  18.846  0.00  0.00    +0.000 A 
ATOM     23  C   UNL     1       2.563   4.351  19.466  0.00  0.00    +0.000 A 
BRANCH  22  24
ATOM     24  C   UNL     1       2.696   2.007  18.498  0.00  0.00    +0.000 C 
ATOM     25  F   UNL     1       3.560   0.956  18.584  0.00  0.00    +0.000 F 
ATOM     26  F   UNL     1       1.647   1.693  19.307  0.00  0.00    +0.000 F 
ATOM     27  F   UNL     1       2.209   1.982  17.227  0.00  0.00    +0.000 F 
ENDBRANCH  22  24
ENDBRANCH   3  18
TORSDOF 3
ENDMDL
MODEL 2
REMARK VINA RESULT:      -8.5      4.960      7.363
REMARK  Name = 
REMARK  5 active torsions:
REMARK  status: ('A' for Active; 'I' for Inactive)
REMARK    1  A    between atoms: C_1  and  C_2
REMARK    2  A    between atoms: C_9  and  C_10
REMARK    3  A    between atoms: N_12  and  C_13
REMARK    4  A    between atoms: C_17  and  C_18
REMARK    5  A    between atoms: C_25  and  C_26
REMARK                            x       y       z     vdW  Elec       q    Type
REMARK                         _______ _______ _______ _____ _____    ______ ____
ROOT
ATOM      1  C   UNL     1       5.111   6.006  16.010  0.00  0.00    +0.000 C 
ATOM      2  O   UNL     1       5.519   7.066  15.547  0.00  0.00    +0.000 OA
ATOM      3  N   UNL     1       5.282   4.752  15.445  0.00  0.00    +0.000 N 
ATOM      4  H   UNL     1       4.770   3.986  15.867  0.00  0.00    +0.000 HD
ENDROOT
BRANCH   1  13
ATOM      5  C   UNL     1       2.162   2.278  21.689  0.00  0.00    +0.000 C 
ATOM      6  C   UNL     1       2.348   3.547  20.899  0.00  0.00    +0.000 A 
ATOM      7  C   UNL     1       1.539   4.654  21.204  0.00  0.00    +0.000 A 
ATOM      8  C   UNL     1       1.681   5.850  20.506  0.00  0.00    +0.000 A 
ATOM      9  C   UNL     1       2.611   5.932  19.471  0.00  0.00    +0.000 A 
ATOM     10  C   UNL     1       2.751   7.183  18.715  0.00  0.00    +0.000 A 
ATOM     11  O   UNL     1       2.168   8.212  19.028  0.00  0.00    +0.000 OA
ATOM     12  C   UNL     1       3.612   7.133  17.532  0.00  0.00    +0.000 A 
ATOM     13  C   UNL     1       4.294   6.008  17.269  0.00  0.00    +0.000 A 
ATOM     14  O   UNL     1       4.278   4.874  18.062  0.00  0.00    +0.000 OA
ATOM     15  C   UNL     1       3.408   4.836  19.132  0.00  0.00    +0.000 A 
ATOM     16  C   UNL     1       3.316   3.641  19.870  0.00  0.00    +0.000 A 
ATOM     17  C   UNL     1       4.234   2.481  19.585  0.00  0.00    +0.000 C 
ENDBRANCH   1  13
BRANCH   3  18
ATOM     18  C   UNL     1       6.016   4.478  14.267  0.00  0.00    +0.000 A 
ATOM     19  C   UNL     1       7.122   5.237  13.873  0.00  0.00    +0.000 A 
ATOM     20  C   UNL     1       7.814   4.952  12.695  0.00  0.00    +0.000 A 
ATOM     21  C   UNL     1       7.399   3.905  11.881  0.00  0.00    +0.000 A 
ATOM     22  C   UNL     1       6.294   3.123  12.245  0.00  0.00    +0.000 A 
ATOM     23  C   UNL     1       5.620   3.404  13.455  0.00  0.00    +0.000 A 
BRANCH  22  24
ATOM     24  C   UNL     1       5.816   2.019  11.335  0.00  0.00    +0.000 C 
ATOM     25  F   UNL     1       6.633   1.801  10.266  0.00  0.00    +0.000 F 
ATOM     26  F   UNL     1       5.710   0.821  11.973  0.00  0.00    +0.000 F 
ATOM     27  F   UNL     1       4.585   2.275  10.813  0.00  0.00    +0.000 F 
ENDBRANCH  22  24
ENDBRANCH   3  18
TORSDOF 3
ENDMDL
MODEL 3
REMARK VINA RESULT:      -8.4      4.280      8.691
REMARK  Name = 
REMARK  5 active torsions:
REMARK  status: ('A' for Active; 'I' for Inactive)
REMARK    1  A    between atoms: C_1  and  C_2
REMARK    2  A    between atoms: C_9  and  C_10
REMARK    3  A    between atoms: N_12  and  C_13
REMARK    4  A    between atoms: C_17  and  C_18
REMARK    5  A    between atoms: C_25  and  C_26
REMARK                            x       y       z     vdW  Elec       q    Type
REMARK                         _______ _______ _______ _____ _____    ______ ____
ROOT
ATOM      1  C   UNL     1       1.742   9.013  18.356  0.00  0.00    +0.000 C 
ATOM      2  O   UNL     1       2.075   9.796  17.473  0.00  0.00    +0.000 OA
ATOM      3  N   UNL     1       0.755   9.227  19.304  0.00  0.00    +0.000 N 
ATOM      4  H   UNL     1       0.687   8.551  20.056  0.00  0.00    +0.000 HD
ENDROOT
BRANCH   1  13
ATOM      5  C   UNL     1       6.133   3.794  15.469  0.00  0.00    +0.000 C 
ATOM      6  C   UNL     1       5.270   4.322  16.586  0.00  0.00    +0.000 A 
ATOM      7  C   UNL     1       4.951   3.466  17.653  0.00  0.00    +0.000 A 
ATOM      8  C   UNL     1       4.164   3.913  18.710  0.00  0.00    +0.000 A 
ATOM      9  C   UNL     1       3.660   5.212  18.686  0.00  0.00    +0.000 A 
ATOM     10  C   UNL     1       2.810   5.684  19.787  0.00  0.00    +0.000 A 
ATOM     11  O   UNL     1       2.616   5.025  20.799  0.00  0.00    +0.000 OA
ATOM     12  C   UNL     1       2.173   6.989  19.601  0.00  0.00    +0.000 A 
ATOM     13  C   UNL     1       2.475   7.713  18.512  0.00  0.00    +0.000 A 
ATOM     14  O   UNL     1       3.389   7.335  17.544  0.00  0.00    +0.000 OA
ATOM     15  C   UNL     1       3.941   6.073  17.622  0.00  0.00    +0.000 A 
ATOM     16  C   UNL     1       4.785   5.653  16.578  0.00  0.00    +0.000 A 
ATOM     17  C   UNL     1       5.181   6.596  15.472  0.00  0.00    +0.000 C 
ENDBRANCH   1  13
BRANCH   3  18
ATOM     18  C   UNL     1      -0.083  10.366  19.371  0.00  0.00    +0.000 A 
ATOM     19  C   UNL     1       0.264  11.517  20.086  0.00  0.00    +0.000 A 
ATOM     20  C   UNL     1      -0.594  12.616  20.148  0.00  0.00    +0.000 A 
ATOM     21  C   UNL     1      -1.823  12.577  19.503  0.00  0.00    +0.000 A 
ATOM     22  C   UNL     1      -2.203  11.439  18.777  0.00  0.00    +0.000 A 
ATOM     23  C   UNL     1      -1.314  10.344  18.698  0.00  0.00    +0.000 A 
BRANCH  22  24
ATOM     24  C   UNL     1      -3.559  11.380  18.119  0.00  0.00    +0.000 C 
ATOM     25  F   UNL     1      -3.565  11.839  16.836  0.00  0.00    +0.000 F 
ATOM     26  F   UNL     1      -4.061  10.115  18.064  0.00  0.00    +0.000 F 
ATOM     27  F   UNL     1      -4.489  12.122  18.782  0.00  0.00    +0.000 F 
ENDBRANCH  22  24
ENDBRANCH   3  18
TORSDOF 3
ENDMDL
MODEL 4
REMARK VINA RESULT:      -8.3      2.159      2.696
REMARK  Name = 
REMARK  5 active torsions:
REMARK  status: ('A' for Active; 'I' for Inactive)
REMARK    1  A    between atoms: C_1  and  C_2
REMARK    2  A    between atoms: C_9  and  C_10
REMARK    3  A    between atoms: N_12  and  C_13
REMARK    4  A    between atoms: C_17  and  C_18
REMARK    5  A    between atoms: C_25  and  C_26
REMARK                            x       y       z     vdW  Elec       q    Type
REMARK                         _______ _______ _______ _____ _____    ______ ____
ROOT
ATOM      1  C   UNL     1       1.912   8.229  19.211  0.00  0.00    +0.000 C 
ATOM      2  O   UNL     1       2.161   8.717  18.114  0.00  0.00    +0.000 OA
ATOM      3  N   UNL     1       2.302   6.974  19.652  0.00  0.00    +0.000 N 
ATOM      4  H   UNL     1       1.905   6.652  20.526  0.00  0.00    +0.000 HD
ENDROOT
BRANCH   1  13
ATOM      5  C   UNL     1      -3.129  13.499  20.503  0.00  0.00    +0.000 C 
ATOM      6  C   UNL     1      -2.162  12.451  20.990  0.00  0.00    +0.000 A 
ATOM      7  C   UNL     1      -1.879  12.382  22.364  0.00  0.00    +0.000 A 
ATOM      8  C   UNL     1      -0.998  11.426  22.860  0.00  0.00    +0.000 A 
ATOM      9  C   UNL     1      -0.366  10.554  21.976  0.00  0.00    +0.000 A 
ATOM     10  C   UNL     1       0.582   9.556  22.489  0.00  0.00    +0.000 A 
ATOM     11  O   UNL     1       0.759   9.368  23.684  0.00  0.00    +0.000 OA
ATOM     12  C   UNL     1       1.339   8.805  21.486  0.00  0.00    +0.000 A 
ATOM     13  C   UNL     1       1.059   8.986  20.186  0.00  0.00    +0.000 A 
ATOM     14  O   UNL     1       0.064   9.819  19.704  0.00  0.00    +0.000 OA
ATOM     15  C   UNL     1      -0.610  10.621  20.602  0.00  0.00    +0.000 A 
ATOM     16  C   UNL     1      -1.544  11.544  20.095  0.00  0.00    +0.000 A 
ATOM     17  C   UNL     1      -1.896  11.567  18.630  0.00  0.00    +0.000 C 
ENDBRANCH   1  13
BRANCH   3  18
ATOM     18  C   UNL     1       3.114   6.068  18.929  0.00  0.00    +0.000 A 
ATOM     19  C   UNL     1       2.582   5.051  18.129  0.00  0.00    +0.000 A 
ATOM     20  C   UNL     1       3.410   4.162  17.444  0.00  0.00    +0.000 A 
ATOM     21  C   UNL     1       4.790   4.268  17.557  0.00  0.00    +0.000 A 
ATOM     22  C   UNL     1       5.357   5.276  18.349  0.00  0.00    +0.000 A 
ATOM     23  C   UNL     1       4.509   6.188  19.015  0.00  0.00    +0.000 A 
BRANCH  22  24
ATOM     24  C   UNL     1       6.855   5.358  18.510  0.00  0.00    +0.000 C 
ATOM     25  F   UNL     1       7.520   4.288  17.991  0.00  0.00    +0.000 F 
ATOM     26  F   UNL     1       7.389   6.455  17.907  0.00  0.00    +0.000 F 
ATOM     27  F   UNL     1       7.232   5.430  19.817  0.00  0.00    +0.000 F 
ENDBRANCH  22  24
ENDBRANCH   3  18
TORSDOF 3
ENDMDL
MODEL 5
REMARK VINA RESULT:      -8.2      4.291      8.562
REMARK  Name = 
REMARK  5 active torsions:
REMARK  status: ('A' for Active; 'I' for Inactive)
REMARK    1  A    between atoms: C_1  and  C_2
REMARK    2  A    between atoms: C_9  and  C_10
REMARK    3  A    between atoms: N_12  and  C_13
REMARK    4  A    between atoms: C_17  and  C_18
REMARK    5  A    between atoms: C_25  and  C_26
REMARK                            x       y       z     vdW  Elec       q    Type
REMARK                         _______ _______ _______ _____ _____    ______ ____
ROOT
ATOM      1  C   UNL     1       1.598   8.318  19.696  0.00  0.00    +0.000 C 
ATOM      2  O   UNL     1       1.347   8.660  20.847  0.00  0.00    +0.000 OA
ATOM      3  N   UNL     1       1.214   8.988  18.545  0.00  0.00    +0.000 N 
ATOM      4  H   UNL     1       1.372   8.513  17.664  0.00  0.00    +0.000 HD
ENDROOT
BRANCH   1  13
ATOM      5  C   UNL     1       5.813   4.164  15.244  0.00  0.00    +0.000 C 
ATOM      6  C   UNL     1       5.011   4.348  16.505  0.00  0.00    +0.000 A 
ATOM      7  C   UNL     1       4.743   3.224  17.304  0.00  0.00    +0.000 A 
ATOM      8  C   UNL     1       4.013   3.348  18.482  0.00  0.00    +0.000 A 
ATOM      9  C   UNL     1       3.514   4.596  18.849  0.00  0.00    +0.000 A 
ATOM     10  C   UNL     1       2.723   4.732  20.080  0.00  0.00    +0.000 A 
ATOM     11  O   UNL     1       2.578   3.813  20.874  0.00  0.00    +0.000 OA
ATOM     12  C   UNL     1       2.083   6.029  20.300  0.00  0.00    +0.000 A 
ATOM     13  C   UNL     1       2.332   7.033  19.444  0.00  0.00    +0.000 A 
ATOM     14  O   UNL     1       3.193   6.952  18.364  0.00  0.00    +0.000 OA
ATOM     15  C   UNL     1       3.744   5.724  18.057  0.00  0.00    +0.000 A 
ATOM     16  C   UNL     1       4.531   5.623  16.896  0.00  0.00    +0.000 A 
ATOM     17  C   UNL     1       4.874   6.843  16.081  0.00  0.00    +0.000 C 
ENDBRANCH   1  13
BRANCH   3  18
ATOM     18  C   UNL     1       0.520  10.221  18.509  0.00  0.00    +0.000 A 
ATOM     19  C   UNL     1       1.149  11.448  18.743  0.00  0.00    +0.000 A 
ATOM     20  C   UNL     1       0.432  12.645  18.718  0.00  0.00    +0.000 A 
ATOM     21  C   UNL     1      -0.935  12.632  18.469  0.00  0.00    +0.000 A 
ATOM     22  C   UNL     1      -1.597  11.420  18.230  0.00  0.00    +0.000 A 
ATOM     23  C   UNL     1      -0.855  10.218  18.229  0.00  0.00    +0.000 A 
BRANCH  22  24
ATOM     24  C   UNL     1      -3.089  11.405  18.010  0.00  0.00    +0.000 C 
ATOM     25  F   UNL     1      -3.466  11.877  16.788  0.00  0.00    +0.000 F 
ATOM     26  F   UNL     1      -3.622  10.156  18.106  0.00  0.00    +0.000 F 
ATOM     27  F   UNL     1      -3.755  12.165  18.922  0.00  0.00    +0.000 F 
ENDBRANCH  22  24
ENDBRANCH   3  18
TORSDOF 3
ENDMDL
MODEL 6
REMARK VINA RESULT:      -8.2      4.644      6.665
REMARK  Name = 
REMARK  5 active torsions:
REMARK  status: ('A' for Active; 'I' for Inactive)
REMARK    1  A    between atoms: C_1  and  C_2
REMARK    2  A    between atoms: C_9  and  C_10
REMARK    3  A    between atoms: N_12  and  C_13
REMARK    4  A    between atoms: C_17  and  C_18
REMARK    5  A    between atoms: C_25  and  C_26
REMARK                            x       y       z     vdW  Elec       q    Type
REMARK                         _______ _______ _______ _____ _____    ______ ____
ROOT
ATOM      1  C   UNL     1       5.573   4.490  16.736  0.00  0.00    +0.000 C 
ATOM      2  O   UNL     1       6.732   4.285  17.078  0.00  0.00    +0.000 OA
ATOM      3  N   UNL     1       5.110   4.568  15.432  0.00  0.00    +0.000 N 
ATOM      4  H   UNL     1       4.155   4.881  15.302  0.00  0.00    +0.000 HD
ENDROOT
BRANCH   1  13
ATOM      5  C   UNL     1       1.001   9.227  20.127  0.00  0.00    +0.000 C 
ATOM      6  C   UNL     1       1.620   7.861  19.992  0.00  0.00    +0.000 A 
ATOM      7  C   UNL     1       1.403   6.919  21.010  0.00  0.00    +0.000 A 
ATOM      8  C   UNL     1       1.949   5.642  20.925  0.00  0.00    +0.000 A 
ATOM      9  C   UNL     1       2.748   5.312  19.832  0.00  0.00    +0.000 A 
ATOM     10  C   UNL     1       3.347   3.974  19.745  0.00  0.00    +0.000 A 
ATOM     11  O   UNL     1       3.079   3.079  20.535  0.00  0.00    +0.000 OA
ATOM     12  C   UNL     1       4.317   3.766  18.669  0.00  0.00    +0.000 A 
ATOM     13  C   UNL     1       4.524   4.748  17.778  0.00  0.00    +0.000 A 
ATOM     14  O   UNL     1       3.852   5.958  17.771  0.00  0.00    +0.000 OA
ATOM     15  C   UNL     1       3.002   6.241  18.820  0.00  0.00    +0.000 A 
ATOM     16  C   UNL     1       2.406   7.515  18.865  0.00  0.00    +0.000 A 
ATOM     17  C   UNL     1       2.585   8.497  17.736  0.00  0.00    +0.000 C 
ENDBRANCH   1  13
BRANCH   3  18
ATOM     18  C   UNL     1       5.893   4.358  14.272  0.00  0.00    +0.000 A 
ATOM     19  C   UNL     1       6.981   5.170  13.938  0.00  0.00    +0.000 A 
ATOM     20  C   UNL     1       7.721   4.947  12.777  0.00  0.00    +0.000 A 
ATOM     21  C   UNL     1       7.375   3.911  11.919  0.00  0.00    +0.000 A 
ATOM     22  C   UNL     1       6.290   3.077  12.222  0.00  0.00    +0.000 A 
ATOM     23  C   UNL     1       5.566   3.295  13.416  0.00  0.00    +0.000 A 
BRANCH  22  24
ATOM     24  C   UNL     1       5.885   1.984  11.264  0.00  0.00    +0.000 C 
ATOM     25  F   UNL     1       4.701   2.223  10.632  0.00  0.00    +0.000 F 
ATOM     26  F   UNL     1       6.800   1.786  10.276  0.00  0.00    +0.000 F 
ATOM     27  F   UNL     1       5.737   0.781  11.884  0.00  0.00    +0.000 F 
ENDBRANCH  22  24
ENDBRANCH   3  18
TORSDOF 3
ENDMDL
MODEL 7
REMARK VINA RESULT:      -8.2      0.809      1.059
REMARK  Name = 
REMARK  5 active torsions:
REMARK  status: ('A' for Active; 'I' for Inactive)
REMARK    1  A    between atoms: C_1  and  C_2
REMARK    2  A    between atoms: C_9  and  C_10
REMARK    3  A    between atoms: N_12  and  C_13
REMARK    4  A    between atoms: C_17  and  C_18
REMARK    5  A    between atoms: C_25  and  C_26
REMARK                            x       y       z     vdW  Elec       q    Type
REMARK                         _______ _______ _______ _____ _____    ______ ____
ROOT
ATOM      1  C   UNL     1       1.763   8.292  19.496  0.00  0.00    +0.000 C 
ATOM      2  O   UNL     1       1.990   8.723  18.370  0.00  0.00    +0.000 OA
ATOM      3  N   UNL     1       2.183   7.072  20.001  0.00  0.00    +0.000 N 
ATOM      4  H   UNL     1       1.802   6.791  20.897  0.00  0.00    +0.000 HD
ENDROOT
BRANCH   1  13
ATOM      5  C   UNL     1      -3.095  13.772  20.600  0.00  0.00    +0.000 C 
ATOM      6  C   UNL     1      -2.191  12.686  21.122  0.00  0.00    +0.000 A 
ATOM      7  C   UNL     1      -1.961  12.609  22.505  0.00  0.00    +0.000 A 
ATOM      8  C   UNL     1      -1.140  11.618  23.034  0.00  0.00    +0.000 A 
ATOM      9  C   UNL     1      -0.513  10.718  22.174  0.00  0.00    +0.000 A 
ATOM     10  C   UNL     1       0.373   9.683  22.722  0.00  0.00    +0.000 A 
ATOM     11  O   UNL     1       0.499   9.491  23.923  0.00  0.00    +0.000 OA
ATOM     12  C   UNL     1       1.134   8.898  21.748  0.00  0.00    +0.000 A 
ATOM     13  C   UNL     1       0.908   9.088  20.439  0.00  0.00    +0.000 A 
ATOM     14  O   UNL     1      -0.033   9.960  19.920  0.00  0.00    +0.000 OA
ATOM     15  C   UNL     1      -0.705  10.792  20.792  0.00  0.00    +0.000 A 
ATOM     16  C   UNL     1      -1.580  11.751  20.251  0.00  0.00    +0.000 A 
ATOM     17  C   UNL     1      -1.878  11.785  18.774  0.00  0.00    +0.000 C 
ENDBRANCH   1  13
BRANCH   3  18
ATOM     18  C   UNL     1       3.002   6.141  19.318  0.00  0.00    +0.000 A 
ATOM     19  C   UNL     1       3.873   6.515  18.290  0.00  0.00    +0.000 A 
ATOM     20  C   UNL     1       4.654   5.570  17.624  0.00  0.00    +0.000 A 
ATOM     21  C   UNL     1       4.567   4.227  17.970  0.00  0.00    +0.000 A 
ATOM     22  C   UNL     1       3.705   3.818  18.997  0.00  0.00    +0.000 A 
ATOM     23  C   UNL     1       2.941   4.788  19.683  0.00  0.00    +0.000 A 
BRANCH  22  24
ATOM     24  C   UNL     1       3.576   2.354  19.336  0.00  0.00    +0.000 C 
ATOM     25  F   UNL     1       3.535   1.541  18.243  0.00  0.00    +0.000 F 
ATOM     26  F   UNL     1       4.608   1.898  20.099  0.00  0.00    +0.000 F 
ATOM     27  F   UNL     1       2.443   2.083  20.041  0.00  0.00    +0.000 F 
ENDBRANCH  22  24
ENDBRANCH   3  18
TORSDOF 3
ENDMDL
MODEL 8
REMARK VINA RESULT:      -8.1      4.220      8.563
REMARK  Name = 
REMARK  5 active torsions:
REMARK  status: ('A' for Active; 'I' for Inactive)
REMARK    1  A    between atoms: C_1  and  C_2
REMARK    2  A    between atoms: C_9  and  C_10
REMARK    3  A    between atoms: N_12  and  C_13
REMARK    4  A    between atoms: C_17  and  C_18
REMARK    5  A    between atoms: C_25  and  C_26
REMARK                            x       y       z     vdW  Elec       q    Type
REMARK                         _______ _______ _______ _____ _____    ______ ____
ROOT
ATOM      1  C   UNL     1       1.898   8.929  18.148  0.00  0.00    +0.000 C 
ATOM      2  O   UNL     1       2.187   9.785  17.318  0.00  0.00    +0.000 OA
ATOM      3  N   UNL     1       0.943   9.052  19.145  0.00  0.00    +0.000 N 
ATOM      4  H   UNL     1       0.911   8.317  19.842  0.00  0.00    +0.000 HD
ENDROOT
BRANCH   1  13
ATOM      5  C   UNL     1       2.980   2.257  21.175  0.00  0.00    +0.000 C 
ATOM      6  C   UNL     1       3.364   3.343  20.204  0.00  0.00    +0.000 A 
ATOM      7  C   UNL     1       4.587   3.233  19.520  0.00  0.00    +0.000 A 
ATOM      8  C   UNL     1       4.980   4.207  18.608  0.00  0.00    +0.000 A 
ATOM      9  C   UNL     1       4.165   5.319  18.401  0.00  0.00    +0.000 A 
ATOM     10  C   UNL     1       4.583   6.363  17.456  0.00  0.00    +0.000 A 
ATOM     11  O   UNL     1       5.568   6.248  16.741  0.00  0.00    +0.000 OA
ATOM     12  C   UNL     1       3.769   7.579  17.432  0.00  0.00    +0.000 A 
ATOM     13  C   UNL     1       2.653   7.632  18.175  0.00  0.00    +0.000 A 
ATOM     14  O   UNL     1       2.176   6.593  18.955  0.00  0.00    +0.000 OA
ATOM     15  C   UNL     1       2.957   5.464  19.089  0.00  0.00    +0.000 A 
ATOM     16  C   UNL     1       2.521   4.456  19.969  0.00  0.00    +0.000 A 
ATOM     17  C   UNL     1       1.178   4.544  20.645  0.00  0.00    +0.000 C 
ENDBRANCH   1  13
BRANCH   3  18
ATOM     18  C   UNL     1       0.093  10.168  19.331  0.00  0.00    +0.000 A 
ATOM     19  C   UNL     1       0.412  11.225  20.190  0.00  0.00    +0.000 A 
ATOM     20  C   UNL     1      -0.457  12.302  20.366  0.00  0.00    +0.000 A 
ATOM     21  C   UNL     1      -1.671  12.334  19.692  0.00  0.00    +0.000 A 
ATOM     22  C   UNL     1      -2.023  11.291  18.824  0.00  0.00    +0.000 A 
ATOM     23  C   UNL     1      -1.122  10.220  18.631  0.00  0.00    +0.000 A 
BRANCH  22  24
ATOM     24  C   UNL     1      -3.364  11.304  18.132  0.00  0.00    +0.000 C 
ATOM     25  F   UNL     1      -4.311  12.030  18.790  0.00  0.00    +0.000 F 
ATOM     26  F   UNL     1      -3.303  11.826  16.876  0.00  0.00    +0.000 F 
ATOM     27  F   UNL     1      -3.886  10.054  17.992  0.00  0.00    +0.000 F 
ENDBRANCH  22  24
ENDBRANCH   3  18
TORSDOF 3
ENDMDL
MODEL 9
REMARK VINA RESULT:      -8.1      2.671      3.706
REMARK  Name = 
REMARK  5 active torsions:
REMARK  status: ('A' for Active; 'I' for Inactive)
REMARK    1  A    between atoms: C_1  and  C_2
REMARK    2  A    between atoms: C_9  and  C_10
REMARK    3  A    between atoms: N_12  and  C_13
REMARK    4  A    between atoms: C_17  and  C_18
REMARK    5  A    between atoms: C_25  and  C_26
REMARK                            x       y       z     vdW  Elec       q    Type
REMARK                         _______ _______ _______ _____ _____    ______ ____
ROOT
ATOM      1  C   UNL     1       2.220   7.405  19.415  0.00  0.00    +0.000 C 
ATOM      2  O   UNL     1       2.107   6.546  20.283  0.00  0.00    +0.000 OA
ATOM      3  N   UNL     1       2.899   7.265  18.214  0.00  0.00    +0.000 N 
ATOM      4  H   UNL     1       3.027   8.104  17.660  0.00  0.00    +0.000 HD
ENDROOT
BRANCH   1  13
ATOM      5  C   UNL     1      -2.167  11.895  23.345  0.00  0.00    +0.000 C 
ATOM      6  C   UNL     1      -1.255  11.635  22.175  0.00  0.00    +0.000 A 
ATOM      7  C   UNL     1      -1.165  12.605  21.163  0.00  0.00    +0.000 A 
ATOM      8  C   UNL     1      -0.330  12.413  20.066  0.00  0.00    +0.000 A 
ATOM      9  C   UNL     1       0.395  11.227  19.959  0.00  0.00    +0.000 A 
ATOM     10  C   UNL     1       1.262  11.006  18.794  0.00  0.00    +0.000 A 
ATOM     11  O   UNL     1       1.476  11.873  17.958  0.00  0.00    +0.000 OA
ATOM     12  C   UNL     1       1.843   9.670  18.662  0.00  0.00    +0.000 A 
ATOM     13  C   UNL     1       1.646   8.773  19.641  0.00  0.00    +0.000 A 
ATOM     14  O   UNL     1       0.951   9.025  20.812  0.00  0.00    +0.000 OA
ATOM     15  C   UNL     1       0.301  10.236  20.939  0.00  0.00    +0.000 A 
ATOM     16  C   UNL     1      -0.493  10.445  22.081  0.00  0.00    +0.000 A 
ATOM     17  C   UNL     1      -0.531   9.433  23.196  0.00  0.00    +0.000 C 
ENDBRANCH   1  13
BRANCH   3  18
ATOM     18  C   UNL     1       3.522   6.078  17.760  0.00  0.00    +0.000 A 
ATOM     19  C   UNL     1       2.841   4.862  17.652  0.00  0.00    +0.000 A 
ATOM     20  C   UNL     1       3.490   3.706  17.218  0.00  0.00    +0.000 A 
ATOM     21  C   UNL     1       4.840   3.745  16.895  0.00  0.00    +0.000 A 
ATOM     22  C   UNL     1       5.554   4.948  16.991  0.00  0.00    +0.000 A 
ATOM     23  C   UNL     1       4.879   6.118  17.404  0.00  0.00    +0.000 A 
BRANCH  22  24
ATOM     24  C   UNL     1       7.031   4.976  16.688  0.00  0.00    +0.000 C 
ATOM     25  F   UNL     1       7.784   4.260  17.570  0.00  0.00    +0.000 F 
ATOM     26  F   UNL     1       7.325   4.475  15.456  0.00  0.00    +0.000 F 
ATOM     27  F   UNL     1       7.540   6.239  16.708  0.00  0.00    +0.000 F 
ENDBRANCH  22  24
ENDBRANCH   3  18
TORSDOF 3
ENDMDL
