MODEL 1
REMARK VINA RESULT:      -8.0      0.000      0.000
REMARK  Name = 
REMARK  9 active torsions:
REMARK  status: ('A' for Active; 'I' for Inactive)
REMARK    1  A    between atoms: C_1  and  C_2
REMARK    2  A    between atoms: C_2  and  C_3
REMARK    3  A    between atoms: C_3  and  C_4
REMARK    4  A    between atoms: C_4  and  O_5
REMARK    5  A    between atoms: O_5  and  C_6
REMARK    6  A    between atoms: C_10  and  C_11
REMARK    7  A    between atoms: N_13  and  C_14
REMARK    8  A    between atoms: C_17  and  N_18
REMARK    9  A    between atoms: C_19  and  C_21
REMARK                            x       y       z     vdW  Elec       q    Type
REMARK                         _______ _______ _______ _____ _____    ______ ____
ROOT
ATOM      1  C   UNL     1       2.180   6.336  19.967  0.00  0.00    +0.000 C 
ATOM      2  O   UNL     1       1.545   5.712  20.810  0.00  0.00    +0.000 OA
ATOM      3  N   UNL     1       2.096   7.701  19.715  0.00  0.00    +0.000 N 
ATOM      4  H   UNL     1       2.513   8.053  18.862  0.00  0.00    +0.000 HD
ENDROOT
BRANCH   1   9
ATOM      5  C   UNL     1       5.181   4.487  18.563  0.00  0.00    +0.000 A 
ATOM      6  C   UNL     1       4.600   3.915  17.425  0.00  0.00    +0.000 A 
ATOM      7  C   UNL     1       3.259   4.138  17.122  0.00  0.00    +0.000 A 
ATOM      8  C   UNL     1       2.495   4.947  17.956  0.00  0.00    +0.000 A 
ATOM      9  C   UNL     1       3.070   5.539  19.090  0.00  0.00    +0.000 A 
ATOM     10  C   UNL     1       4.412   5.297  19.404  0.00  0.00    +0.000 A 
BRANCH   5  11
ATOM     11  O   UNL     1       6.500   4.170  18.742  0.00  0.00    +0.000 OA
BRANCH  11  12
ATOM     12  C   UNL     1       7.438   4.839  17.903  0.00  0.00    +0.000 C 
BRANCH  12  13
ATOM     13  C   UNL     1       7.719   6.214  18.496  0.00  0.00    +0.000 C 
BRANCH  13  15
ATOM     14  C   UNL     1       8.045   8.638  17.895  0.00  0.00    +0.000 C 
ATOM     15  C   UNL     1       7.435   7.312  17.475  0.00  0.00    +0.000 C 
ENDBRANCH  13  15
ENDBRANCH  12  13
ENDBRANCH  11  12
ENDBRANCH   5  11
ENDBRANCH   1   9
BRANCH   3  16
ATOM     16  C   UNL     1       1.317   8.609  20.473  0.00  0.00    +0.000 A 
ATOM     17  C   UNL     1       1.343   8.626  21.864  0.00  0.00    +0.000 A 
ATOM     18  C   UNL     1       0.573   9.530  22.590  0.00  0.00    +0.000 A 
ATOM     19  C   UNL     1      -0.236  10.462  21.948  0.00  0.00    +0.000 A 
ATOM     20  C   UNL     1      -0.295  10.438  20.550  0.00  0.00    +0.000 A 
ATOM     21  C   UNL     1       0.496   9.531  19.815  0.00  0.00    +0.000 A 
BRANCH  19  22
ATOM     22  N   UNL     1      -0.983  11.426  22.655  0.00  0.00    +0.000 N 
ATOM     23  C   UNL     1      -0.715  12.790  22.703  0.00  0.00    +0.000 C 
ATOM     24  O   UNL     1       0.209  13.350  22.120  0.00  0.00    +0.000 OA
ATOM     25  H   UNL     1      -1.851  11.137  23.092  0.00  0.00    +0.000 HD
BRANCH  23  26
ATOM     26  C   UNL     1      -1.665  13.554  23.483  0.00  0.00    +0.000 A 
ATOM     27  C   UNL     1      -3.046  13.477  23.524  0.00  0.00    +0.000 A 
ATOM     28  C   UNL     1      -3.479  14.436  24.465  0.00  0.00    +0.000 A 
ATOM     29  C   UNL     1      -2.341  15.046  24.938  0.00  0.00    +0.000 A 
ATOM     30  O   UNL     1      -1.233  14.520  24.354  0.00  0.00    +0.000 OA
ENDBRANCH  23  26
ENDBRANCH  19  22
ENDBRANCH   3  16
TORSDOF 8
ENDMDL
MODEL 2
REMARK VINA RESULT:      -7.7      2.685      3.690
REMARK  Name = 
REMARK  9 active torsions:
REMARK  status: ('A' for Active; 'I' for Inactive)
REMARK    1  A    between atoms: C_1  and  C_2
REMARK    2  A    between atoms: C_2  and  C_3
REMARK    3  A    between atoms: C_3  and  C_4
REMARK    4  A    between atoms: C_4  and  O_5
REMARK    5  A    between atoms: O_5  and  C_6
REMARK    6  A    between atoms: C_10  and  C_11
REMARK    7  A    between atoms: N_13  and  C_14
REMARK    8  A    between atoms: C_17  and  N_18
REMARK    9  A    between atoms: C_19  and  C_21
REMARK                            x       y       z     vdW  Elec       q    Type
REMARK                         _______ _______ _______ _____ _____    ______ ____
ROOT
ATOM      1  C   UNL     1       3.488   6.222  18.076  0.00  0.00    +0.000 C 
ATOM      2  O   UNL     1       2.624   5.415  18.402  0.00  0.00    +0.000 OA
ATOM      3  N   UNL     1       3.397   7.607  18.165  0.00  0.00    +0.000 N 
ATOM      4  H   UNL     1       4.088   8.160  17.674  0.00  0.00    +0.000 HD
ENDROOT
BRANCH   1   9
ATOM      5  C   UNL     1       6.258   5.370  15.628  0.00  0.00    +0.000 A 
ATOM      6  C   UNL     1       7.120   4.664  16.476  0.00  0.00    +0.000 A 
ATOM      7  C   UNL     1       6.795   4.466  17.816  0.00  0.00    +0.000 A 
ATOM      8  C   UNL     1       5.596   4.967  18.310  0.00  0.00    +0.000 A 
ATOM      9  C   UNL     1       4.717   5.661  17.466  0.00  0.00    +0.000 A 
ATOM     10  C   UNL     1       5.054   5.877  16.126  0.00  0.00    +0.000 A 
BRANCH   5  11
ATOM     11  O   UNL     1       6.713   5.500  14.344  0.00  0.00    +0.000 OA
BRANCH  11  12
ATOM     12  C   UNL     1       6.899   4.294  13.607  0.00  0.00    +0.000 C 
BRANCH  12  13
ATOM     13  C   UNL     1       5.529   3.697  13.308  0.00  0.00    +0.000 C 
BRANCH  13  15
ATOM     14  C   UNL     1       4.153   3.240  11.250  0.00  0.00    +0.000 C 
ATOM     15  C   UNL     1       5.505   3.067  11.919  0.00  0.00    +0.000 C 
ENDBRANCH  13  15
ENDBRANCH  12  13
ENDBRANCH  11  12
ENDBRANCH   5  11
ENDBRANCH   1   9
BRANCH   3  16
ATOM     16  C   UNL     1       2.308   8.303  18.742  0.00  0.00    +0.000 A 
ATOM     17  C   UNL     1       1.887   8.069  20.048  0.00  0.00    +0.000 A 
ATOM     18  C   UNL     1       0.817   8.768  20.600  0.00  0.00    +0.000 A 
ATOM     19  C   UNL     1       0.141   9.739  19.868  0.00  0.00    +0.000 A 
ATOM     20  C   UNL     1       0.534   9.965  18.544  0.00  0.00    +0.000 A 
ATOM     21  C   UNL     1       1.627   9.268  17.991  0.00  0.00    +0.000 A 
BRANCH  19  22
ATOM     22  N   UNL     1      -0.909  10.502  20.418  0.00  0.00    +0.000 N 
ATOM     23  C   UNL     1      -0.772  11.524  21.352  0.00  0.00    +0.000 C 
ATOM     24  O   UNL     1       0.293  11.916  21.820  0.00  0.00    +0.000 OA
ATOM     25  H   UNL     1      -1.842  10.378  20.041  0.00  0.00    +0.000 HD
BRANCH  23  26
ATOM     26  C   UNL     1      -2.018  12.160  21.721  0.00  0.00    +0.000 A 
ATOM     27  C   UNL     1      -2.588  12.338  22.970  0.00  0.00    +0.000 A 
ATOM     28  C   UNL     1      -3.799  13.035  22.768  0.00  0.00    +0.000 A 
ATOM     29  C   UNL     1      -3.901  13.236  21.412  0.00  0.00    +0.000 A 
ATOM     30  O   UNL     1      -2.827  12.713  20.764  0.00  0.00    +0.000 OA
ENDBRANCH  23  26
ENDBRANCH  19  22
ENDBRANCH   3  16
TORSDOF 8
ENDMDL
MODEL 3
REMARK VINA RESULT:      -7.6      1.898      3.296
REMARK  Name = 
REMARK  9 active torsions:
REMARK  status: ('A' for Active; 'I' for Inactive)
REMARK    1  A    between atoms: C_1  and  C_2
REMARK    2  A    between atoms: C_2  and  C_3
REMARK    3  A    between atoms: C_3  and  C_4
REMARK    4  A    between atoms: C_4  and  O_5
REMARK    5  A    between atoms: O_5  and  C_6
REMARK    6  A    between atoms: C_10  and  C_11
REMARK    7  A    between atoms: N_13  and  C_14
REMARK    8  A    between atoms: C_17  and  N_18
REMARK    9  A    between atoms: C_19  and  C_21
REMARK                            x       y       z     vdW  Elec       q    Type
REMARK                         _______ _______ _______ _____ _____    ______ ____
ROOT
ATOM      1  C   UNL     1       2.473   7.936  18.575  0.00  0.00    +0.000 C 
ATOM      2  O   UNL     1       2.414   8.985  17.941  0.00  0.00    +0.000 OA
ATOM      3  N   UNL     1       1.945   7.708  19.841  0.00  0.00    +0.000 N 
ATOM      4  H   UNL     1       2.241   6.876  20.336  0.00  0.00    +0.000 HD
ENDROOT
BRANCH   1   9
ATOM      5  C   UNL     1       3.636   4.498  17.471  0.00  0.00    +0.000 A 
ATOM      6  C   UNL     1       4.689   4.861  16.623  0.00  0.00    +0.000 A 
ATOM      7  C   UNL     1       5.014   6.201  16.426  0.00  0.00    +0.000 A 
ATOM      8  C   UNL     1       4.289   7.185  17.088  0.00  0.00    +0.000 A 
ATOM      9  C   UNL     1       3.243   6.833  17.953  0.00  0.00    +0.000 A 
ATOM     10  C   UNL     1       2.904   5.487  18.135  0.00  0.00    +0.000 A 
BRANCH   5  11
ATOM     11  O   UNL     1       3.421   3.149  17.557  0.00  0.00    +0.000 OA
BRANCH  11  12
ATOM     12  C   UNL     1       3.265   2.610  18.868  0.00  0.00    +0.000 C 
BRANCH  12  13
ATOM     13  C   UNL     1       1.910   1.915  18.943  0.00  0.00    +0.000 C 
BRANCH  13  15
ATOM     14  C   UNL     1       1.217   3.476  20.794  0.00  0.00    +0.000 C 
ATOM     15  C   UNL     1       0.839   2.875  19.451  0.00  0.00    +0.000 C 
ENDBRANCH  13  15
ENDBRANCH  12  13
ENDBRANCH  11  12
ENDBRANCH   5  11
ENDBRANCH   1   9
BRANCH   3  16
ATOM     16  C   UNL     1       1.164   8.642  20.564  0.00  0.00    +0.000 A 
ATOM     17  C   UNL     1       1.185   8.707  21.954  0.00  0.00    +0.000 A 
ATOM     18  C   UNL     1       0.413   9.637  22.646  0.00  0.00    +0.000 A 
ATOM     19  C   UNL     1      -0.393  10.546  21.968  0.00  0.00    +0.000 A 
ATOM     20  C   UNL     1      -0.446  10.474  20.572  0.00  0.00    +0.000 A 
ATOM     21  C   UNL     1       0.347   9.543  19.872  0.00  0.00    +0.000 A 
BRANCH  19  22
ATOM     22  N   UNL     1      -1.141  11.536  22.639  0.00  0.00    +0.000 N 
ATOM     23  C   UNL     1      -0.803  12.881  22.745  0.00  0.00    +0.000 C 
ATOM     24  O   UNL     1       0.194  13.401  22.254  0.00  0.00    +0.000 OA
ATOM     25  H   UNL     1      -2.056  11.286  22.998  0.00  0.00    +0.000 HD
BRANCH  23  26
ATOM     26  C   UNL     1      -1.771  13.679  23.467  0.00  0.00    +0.000 A 
ATOM     27  C   UNL     1      -1.585  14.796  24.261  0.00  0.00    +0.000 A 
ATOM     28  C   UNL     1      -2.863  15.195  24.709  0.00  0.00    +0.000 A 
ATOM     29  C   UNL     1      -3.752  14.297  24.169  0.00  0.00    +0.000 A 
ATOM     30  O   UNL     1      -3.106  13.373  23.411  0.00  0.00    +0.000 OA
ENDBRANCH  23  26
ENDBRANCH  19  22
ENDBRANCH   3  16
TORSDOF 8
ENDMDL
MODEL 4
REMARK VINA RESULT:      -7.5      1.903      3.308
REMARK  Name = 
REMARK  9 active torsions:
REMARK  status: ('A' for Active; 'I' for Inactive)
REMARK    1  A    between atoms: C_1  and  C_2
REMARK    2  A    between atoms: C_2  and  C_3
REMARK    3  A    between atoms: C_3  and  C_4
REMARK    4  A    between atoms: C_4  and  O_5
REMARK    5  A    between atoms: O_5  and  C_6
REMARK    6  A    between atoms: C_10  and  C_11
REMARK    7  A    between atoms: N_13  and  C_14
REMARK    8  A    between atoms: C_17  and  N_18
REMARK    9  A    between atoms: C_19  and  C_21
REMARK                            x       y       z     vdW  Elec       q    Type
REMARK                         _______ _______ _______ _____ _____    ______ ____
ROOT
ATOM      1  C   UNL     1       2.448   7.916  18.579  0.00  0.00    +0.000 C 
ATOM      2  O   UNL     1       2.574   8.974  17.972  0.00  0.00    +0.000 OA
ATOM      3  N   UNL     1       1.805   7.737  19.799  0.00  0.00    +0.000 N 
ATOM      4  H   UNL     1       1.951   6.864  20.289  0.00  0.00    +0.000 HD
ENDROOT
BRANCH   1   9
ATOM      5  C   UNL     1       3.176   4.393  17.374  0.00  0.00    +0.000 A 
ATOM      6  C   UNL     1       4.386   4.613  16.706  0.00  0.00    +0.000 A 
ATOM      7  C   UNL     1       4.952   5.884  16.659  0.00  0.00    +0.000 A 
ATOM      8  C   UNL     1       4.312   6.942  17.294  0.00  0.00    +0.000 A 
ATOM      9  C   UNL     1       3.107   6.731  17.981  0.00  0.00    +0.000 A 
ATOM     10  C   UNL     1       2.529   5.457  18.009  0.00  0.00    +0.000 A 
BRANCH   5  11
ATOM     11  O   UNL     1       2.732   3.100  17.325  0.00  0.00    +0.000 OA
BRANCH  11  12
ATOM     12  C   UNL     1       3.486   2.137  18.058  0.00  0.00    +0.000 C 
BRANCH  12  13
ATOM     13  C   UNL     1       3.031   2.176  19.512  0.00  0.00    +0.000 C 
BRANCH  13  15
ATOM     14  C   UNL     1       1.046   3.316  20.559  0.00  0.00    +0.000 C 
ATOM     15  C   UNL     1       1.509   2.233  19.602  0.00  0.00    +0.000 C 
ENDBRANCH  13  15
ENDBRANCH  12  13
ENDBRANCH  11  12
ENDBRANCH   5  11
ENDBRANCH   1   9
BRANCH   3  16
ATOM     16  C   UNL     1       1.105   8.754  20.492  0.00  0.00    +0.000 A 
ATOM     17  C   UNL     1       0.317   9.694  19.833  0.00  0.00    +0.000 A 
ATOM     18  C   UNL     1      -0.368  10.682  20.533  0.00  0.00    +0.000 A 
ATOM     19  C   UNL     1      -0.302  10.754  21.921  0.00  0.00    +0.000 A 
ATOM     20  C   UNL     1       0.508   9.835  22.596  0.00  0.00    +0.000 A 
ATOM     21  C   UNL     1       1.189   8.824  21.887  0.00  0.00    +0.000 A 
BRANCH  19  22
ATOM     22  N   UNL     1      -1.030  11.709  22.661  0.00  0.00    +0.000 N 
ATOM     23  C   UNL     1      -0.680  13.044  22.835  0.00  0.00    +0.000 C 
ATOM     24  O   UNL     1       0.310  13.585  22.352  0.00  0.00    +0.000 OA
ATOM     25  H   UNL     1      -1.938  11.445  23.025  0.00  0.00    +0.000 HD
BRANCH  23  26
ATOM     26  C   UNL     1      -1.627  13.807  23.620  0.00  0.00    +0.000 A 
ATOM     27  C   UNL     1      -3.010  13.801  23.595  0.00  0.00    +0.000 A 
ATOM     28  C   UNL     1      -3.439  14.721  24.576  0.00  0.00    +0.000 A 
ATOM     29  C   UNL     1      -2.296  15.239  25.137  0.00  0.00    +0.000 A 
ATOM     30  O   UNL     1      -1.188  14.693  24.569  0.00  0.00    +0.000 OA
ENDBRANCH  23  26
ENDBRANCH  19  22
ENDBRANCH   3  16
TORSDOF 8
ENDMDL
MODEL 5
REMARK VINA RESULT:      -7.4      0.969      1.265
REMARK  Name = 
REMARK  9 active torsions:
REMARK  status: ('A' for Active; 'I' for Inactive)
REMARK    1  A    between atoms: C_1  and  C_2
REMARK    2  A    between atoms: C_2  and  C_3
REMARK    3  A    between atoms: C_3  and  C_4
REMARK    4  A    between atoms: C_4  and  O_5
REMARK    5  A    between atoms: O_5  and  C_6
REMARK    6  A    between atoms: C_10  and  C_11
REMARK    7  A    between atoms: N_13  and  C_14
REMARK    8  A    between atoms: C_17  and  N_18
REMARK    9  A    between atoms: C_19  and  C_21
REMARK                            x       y       z     vdW  Elec       q    Type
REMARK                         _______ _______ _______ _____ _____    ______ ____
ROOT
ATOM      1  C   UNL     1       2.046   6.297  20.086  0.00  0.00    +0.000 C 
ATOM      2  O   UNL     1       1.204   5.662  20.712  0.00  0.00    +0.000 OA
ATOM      3  N   UNL     1       2.132   7.681  19.990  0.00  0.00    +0.000 N 
ATOM      4  H   UNL     1       2.739   8.071  19.280  0.00  0.00    +0.000 HD
ENDROOT
BRANCH   1   9
ATOM      5  C   UNL     1       4.552   5.201  17.457  0.00  0.00    +0.000 A 
ATOM      6  C   UNL     1       4.938   3.966  17.992  0.00  0.00    +0.000 A 
ATOM      7  C   UNL     1       4.382   3.502  19.181  0.00  0.00    +0.000 A 
ATOM      8  C   UNL     1       3.426   4.271  19.836  0.00  0.00    +0.000 A 
ATOM      9  C   UNL     1       3.021   5.502  19.301  0.00  0.00    +0.000 A 
ATOM     10  C   UNL     1       3.594   5.977  18.117  0.00  0.00    +0.000 A 
BRANCH   5  11
ATOM     11  O   UNL     1       5.191   5.536  16.294  0.00  0.00    +0.000 OA
BRANCH  11  12
ATOM     12  C   UNL     1       6.571   5.881  16.399  0.00  0.00    +0.000 C 
BRANCH  12  13
ATOM     13  C   UNL     1       6.699   7.066  17.348  0.00  0.00    +0.000 C 
BRANCH  13  15
ATOM     14  C   UNL     1       7.768   5.839  19.270  0.00  0.00    +0.000 C 
ATOM     15  C   UNL     1       7.941   6.926  18.223  0.00  0.00    +0.000 C 
ENDBRANCH  13  15
ENDBRANCH  12  13
ENDBRANCH  11  12
ENDBRANCH   5  11
ENDBRANCH   1   9
BRANCH   3  16
ATOM     16  C   UNL     1       1.299   8.586  20.692  0.00  0.00    +0.000 A 
ATOM     17  C   UNL     1       1.295   8.665  22.082  0.00  0.00    +0.000 A 
ATOM     18  C   UNL     1       0.472   9.565  22.753  0.00  0.00    +0.000 A 
ATOM     19  C   UNL     1      -0.364  10.430  22.055  0.00  0.00    +0.000 A 
ATOM     20  C   UNL     1      -0.393  10.343  20.658  0.00  0.00    +0.000 A 
ATOM     21  C   UNL     1       0.452   9.441  19.979  0.00  0.00    +0.000 A 
BRANCH  19  22
ATOM     22  N   UNL     1      -1.166  11.391  22.704  0.00  0.00    +0.000 N 
ATOM     23  C   UNL     1      -0.902  12.754  22.785  0.00  0.00    +0.000 C 
ATOM     24  O   UNL     1       0.067  13.317  22.284  0.00  0.00    +0.000 OA
ATOM     25  H   UNL     1      -2.067  11.099  23.066  0.00  0.00    +0.000 HD
BRANCH  23  26
ATOM     26  C   UNL     1      -1.913  13.513  23.489  0.00  0.00    +0.000 A 
ATOM     27  C   UNL     1      -3.292  13.401  23.454  0.00  0.00    +0.000 A 
ATOM     28  C   UNL     1      -3.801  14.373  24.343  0.00  0.00    +0.000 A 
ATOM     29  C   UNL     1      -2.707  15.024  24.862  0.00  0.00    +0.000 A 
ATOM     30  O   UNL     1      -1.555  14.512  24.355  0.00  0.00    +0.000 OA
ENDBRANCH  23  26
ENDBRANCH  19  22
ENDBRANCH   3  16
TORSDOF 8
ENDMDL
MODEL 6
REMARK VINA RESULT:      -7.4      2.132      3.600
REMARK  Name = 
REMARK  9 active torsions:
REMARK  status: ('A' for Active; 'I' for Inactive)
REMARK    1  A    between atoms: C_1  and  C_2
REMARK    2  A    between atoms: C_2  and  C_3
REMARK    3  A    between atoms: C_3  and  C_4
REMARK    4  A    between atoms: C_4  and  O_5
REMARK    5  A    between atoms: O_5  and  C_6
REMARK    6  A    between atoms: C_10  and  C_11
REMARK    7  A    between atoms: N_13  and  C_14
REMARK    8  A    between atoms: C_17  and  N_18
REMARK    9  A    between atoms: C_19  and  C_21
REMARK                            x       y       z     vdW  Elec       q    Type
REMARK                         _______ _______ _______ _____ _____    ______ ____
ROOT
ATOM      1  C   UNL     1       2.636   7.478  18.451  0.00  0.00    +0.000 C 
ATOM      2  O   UNL     1       3.110   8.449  17.870  0.00  0.00    +0.000 OA
ATOM      3  N   UNL     1       1.792   7.509  19.555  0.00  0.00    +0.000 N 
ATOM      4  H   UNL     1       1.643   6.647  20.063  0.00  0.00    +0.000 HD
ENDROOT
BRANCH   1   9
ATOM      5  C   UNL     1       2.697   3.796  17.540  0.00  0.00    +0.000 A 
ATOM      6  C   UNL     1       3.936   3.729  16.893  0.00  0.00    +0.000 A 
ATOM      7  C   UNL     1       4.735   4.862  16.766  0.00  0.00    +0.000 A 
ATOM      8  C   UNL     1       4.299   6.070  17.299  0.00  0.00    +0.000 A 
ATOM      9  C   UNL     1       3.066   6.146  17.964  0.00  0.00    +0.000 A 
ATOM     10  C   UNL     1       2.256   5.010  18.073  0.00  0.00    +0.000 A 
BRANCH   5  11
ATOM     11  O   UNL     1       2.015   2.610  17.577  0.00  0.00    +0.000 OA
BRANCH  11  12
ATOM     12  C   UNL     1       0.981   2.497  18.551  0.00  0.00    +0.000 C 
BRANCH  12  13
ATOM     13  C   UNL     1       1.604   2.038  19.864  0.00  0.00    +0.000 C 
BRANCH  13  15
ATOM     14  C   UNL     1       2.278   3.598  21.722  0.00  0.00    +0.000 C 
ATOM     15  C   UNL     1       1.122   2.904  21.024  0.00  0.00    +0.000 C 
ENDBRANCH  13  15
ENDBRANCH  12  13
ENDBRANCH  11  12
ENDBRANCH   5  11
ENDBRANCH   1   9
BRANCH   3  16
ATOM     16  C   UNL     1       1.267   8.693  20.129  0.00  0.00    +0.000 A 
ATOM     17  C   UNL     1       0.727   9.716  19.355  0.00  0.00    +0.000 A 
ATOM     18  C   UNL     1       0.211  10.869  19.940  0.00  0.00    +0.000 A 
ATOM     19  C   UNL     1       0.202  11.031  21.321  0.00  0.00    +0.000 A 
ATOM     20  C   UNL     1       0.768  10.024  22.111  0.00  0.00    +0.000 A 
ATOM     21  C   UNL     1       1.277   8.850  21.520  0.00  0.00    +0.000 A 
BRANCH  19  22
ATOM     22  N   UNL     1      -0.364  12.162  21.944  0.00  0.00    +0.000 N 
ATOM     23  C   UNL     1      -1.374  12.146  22.900  0.00  0.00    +0.000 C 
ATOM     24  O   UNL     1      -1.907  11.136  23.349  0.00  0.00    +0.000 OA
ATOM     25  H   UNL     1       0.053  13.069  21.765  0.00  0.00    +0.000 HD
BRANCH  23  26
ATOM     26  C   UNL     1      -1.745  13.456  23.392  0.00  0.00    +0.000 A 
ATOM     27  C   UNL     1      -2.860  14.226  23.115  0.00  0.00    +0.000 A 
ATOM     28  C   UNL     1      -2.736  15.410  23.873  0.00  0.00    +0.000 A 
ATOM     29  C   UNL     1      -1.553  15.297  24.564  0.00  0.00    +0.000 A 
ATOM     30  O   UNL     1      -0.941  14.116  24.284  0.00  0.00    +0.000 OA
ENDBRANCH  23  26
ENDBRANCH  19  22
ENDBRANCH   3  16
TORSDOF 8
ENDMDL
MODEL 7
REMARK VINA RESULT:      -7.4      1.823      3.269
REMARK  Name = 
REMARK  9 active torsions:
REMARK  status: ('A' for Active; 'I' for Inactive)
REMARK    1  A    between atoms: C_1  and  C_2
REMARK    2  A    between atoms: C_2  and  C_3
REMARK    3  A    between atoms: C_3  and  C_4
REMARK    4  A    between atoms: C_4  and  O_5
REMARK    5  A    between atoms: O_5  and  C_6
REMARK    6  A    between atoms: C_10  and  C_11
REMARK    7  A    between atoms: N_13  and  C_14
REMARK    8  A    between atoms: C_17  and  N_18
REMARK    9  A    between atoms: C_19  and  C_21
REMARK                            x       y       z     vdW  Elec       q    Type
REMARK                         _______ _______ _______ _____ _____    ______ ____
ROOT
ATOM      1  C   UNL     1       2.286   7.763  19.086  0.00  0.00    +0.000 C 
ATOM      2  O   UNL     1       1.969   8.532  18.186  0.00  0.00    +0.000 OA
ATOM      3  N   UNL     1       1.935   7.874  20.427  0.00  0.00    +0.000 N 
ATOM      4  H   UNL     1       2.430   7.298  21.097  0.00  0.00    +0.000 HD
ENDROOT
BRANCH   1   9
ATOM      5  C   UNL     1       4.219   4.498  19.106  0.00  0.00    +0.000 A 
ATOM      6  C   UNL     1       4.806   4.559  17.837  0.00  0.00    +0.000 A 
ATOM      7  C   UNL     1       4.581   5.648  17.000  0.00  0.00    +0.000 A 
ATOM      8  C   UNL     1       3.771   6.691  17.437  0.00  0.00    +0.000 A 
ATOM      9  C   UNL     1       3.189   6.648  18.712  0.00  0.00    +0.000 A 
ATOM     10  C   UNL     1       3.401   5.544  19.545  0.00  0.00    +0.000 A 
BRANCH   5  11
ATOM     11  O   UNL     1       4.516   3.364  19.812  0.00  0.00    +0.000 OA
BRANCH  11  12
ATOM     12  C   UNL     1       3.468   2.407  19.955  0.00  0.00    +0.000 C 
BRANCH  12  13
ATOM     13  C   UNL     1       2.799   2.626  21.307  0.00  0.00    +0.000 C 
BRANCH  13  15
ATOM     14  C   UNL     1       0.892   2.837  19.676  0.00  0.00    +0.000 C 
ATOM     15  C   UNL     1       1.295   2.820  21.140  0.00  0.00    +0.000 C 
ENDBRANCH  13  15
ENDBRANCH  12  13
ENDBRANCH  11  12
ENDBRANCH   5  11
ENDBRANCH   1   9
BRANCH   3  16
ATOM     16  C   UNL     1       1.063   8.861  20.948  0.00  0.00    +0.000 A 
ATOM     17  C   UNL     1       0.500   9.850  20.147  0.00  0.00    +0.000 A 
ATOM     18  C   UNL     1      -0.359  10.807  20.677  0.00  0.00    +0.000 A 
ATOM     19  C   UNL     1      -0.699  10.798  22.026  0.00  0.00    +0.000 A 
ATOM     20  C   UNL     1      -0.118   9.828  22.850  0.00  0.00    +0.000 A 
ATOM     21  C   UNL     1       0.740   8.849  22.309  0.00  0.00    +0.000 A 
BRANCH  19  22
ATOM     22  N   UNL     1      -1.610  11.721  22.580  0.00  0.00    +0.000 N 
ATOM     23  C   UNL     1      -1.291  12.972  23.097  0.00  0.00    +0.000 C 
ATOM     24  O   UNL     1      -0.164  13.457  23.130  0.00  0.00    +0.000 OA
ATOM     25  H   UNL     1      -2.601  11.515  22.517  0.00  0.00    +0.000 HD
BRANCH  23  26
ATOM     26  C   UNL     1      -2.431  13.724  23.575  0.00  0.00    +0.000 A 
ATOM     27  C   UNL     1      -3.778  13.559  23.310  0.00  0.00    +0.000 A 
ATOM     28  C   UNL     1      -4.463  14.551  24.045  0.00  0.00    +0.000 A 
ATOM     29  C   UNL     1      -3.495  15.267  24.710  0.00  0.00    +0.000 A 
ATOM     30  O   UNL     1      -2.258  14.775  24.437  0.00  0.00    +0.000 OA
ENDBRANCH  23  26
ENDBRANCH  19  22
ENDBRANCH   3  16
TORSDOF 8
ENDMDL
MODEL 8
REMARK VINA RESULT:      -7.3      1.894      3.249
REMARK  Name = 
REMARK  9 active torsions:
REMARK  status: ('A' for Active; 'I' for Inactive)
REMARK    1  A    between atoms: C_1  and  C_2
REMARK    2  A    between atoms: C_2  and  C_3
REMARK    3  A    between atoms: C_3  and  C_4
REMARK    4  A    between atoms: C_4  and  O_5
REMARK    5  A    between atoms: O_5  and  C_6
REMARK    6  A    between atoms: C_10  and  C_11
REMARK    7  A    between atoms: N_13  and  C_14
REMARK    8  A    between atoms: C_17  and  N_18
REMARK    9  A    between atoms: C_19  and  C_21
REMARK                            x       y       z     vdW  Elec       q    Type
REMARK                         _______ _______ _______ _____ _____    ______ ____
ROOT
ATOM      1  C   UNL     1       2.145   7.955  19.260  0.00  0.00    +0.000 C 
ATOM      2  O   UNL     1       1.853   8.795  18.416  0.00  0.00    +0.000 OA
ATOM      3  N   UNL     1       1.757   7.960  20.596  0.00  0.00    +0.000 N 
ATOM      4  H   UNL     1       2.232   7.330  21.230  0.00  0.00    +0.000 HD
ENDROOT
BRANCH   1   9
ATOM      5  C   UNL     1       4.092   4.704  19.087  0.00  0.00    +0.000 A 
ATOM      6  C   UNL     1       4.690   4.848  17.830  0.00  0.00    +0.000 A 
ATOM      7  C   UNL     1       4.466   5.988  17.062  0.00  0.00    +0.000 A 
ATOM      8  C   UNL     1       3.647   6.997  17.558  0.00  0.00    +0.000 A 
ATOM      9  C   UNL     1       3.056   6.870  18.824  0.00  0.00    +0.000 A 
ATOM     10  C   UNL     1       3.266   5.715  19.585  0.00  0.00    +0.000 A 
BRANCH   5  11
ATOM     11  O   UNL     1       4.389   3.528  19.721  0.00  0.00    +0.000 OA
BRANCH  11  12
ATOM     12  C   UNL     1       3.350   2.554  19.782  0.00  0.00    +0.000 C 
BRANCH  12  13
ATOM     13  C   UNL     1       2.830   2.494  21.213  0.00  0.00    +0.000 C 
BRANCH  13  15
ATOM     14  C   UNL     1       0.754   3.117  19.930  0.00  0.00    +0.000 C 
ATOM     15  C   UNL     1       1.413   3.056  21.297  0.00  0.00    +0.000 C 
ENDBRANCH  13  15
ENDBRANCH  12  13
ENDBRANCH  11  12
ENDBRANCH   5  11
ENDBRANCH   1   9
BRANCH   3  16
ATOM     16  C   UNL     1       0.872   8.905  21.170  0.00  0.00    +0.000 A 
ATOM     17  C   UNL     1       0.673   8.995  22.544  0.00  0.00    +0.000 A 
ATOM     18  C   UNL     1      -0.197   9.935  23.089  0.00  0.00    +0.000 A 
ATOM     19  C   UNL     1      -0.885  10.830  22.277  0.00  0.00    +0.000 A 
ATOM     20  C   UNL     1      -0.718  10.733  20.891  0.00  0.00    +0.000 A 
ATOM     21  C   UNL     1       0.175   9.791  20.341  0.00  0.00    +0.000 A 
BRANCH  19  22
ATOM     22  N   UNL     1      -1.730  11.830  22.803  0.00  0.00    +0.000 N 
ATOM     23  C   UNL     1      -1.334  13.099  23.211  0.00  0.00    +0.000 C 
ATOM     24  O   UNL     1      -0.188  13.535  23.155  0.00  0.00    +0.000 OA
ATOM     25  H   UNL     1      -2.730  11.664  22.802  0.00  0.00    +0.000 HD
BRANCH  23  26
ATOM     26  C   UNL     1      -2.417  13.934  23.685  0.00  0.00    +0.000 A 
ATOM     27  C   UNL     1      -2.408  14.956  24.617  0.00  0.00    +0.000 A 
ATOM     28  C   UNL     1      -3.728  15.449  24.693  0.00  0.00    +0.000 A 
ATOM     29  C   UNL     1      -4.467  14.698  23.810  0.00  0.00    +0.000 A 
ATOM     30  O   UNL     1      -3.685  13.776  23.188  0.00  0.00    +0.000 OA
ENDBRANCH  23  26
ENDBRANCH  19  22
ENDBRANCH   3  16
TORSDOF 8
ENDMDL
MODEL 9
REMARK VINA RESULT:      -7.3      2.917      3.935
REMARK  Name = 
REMARK  9 active torsions:
REMARK  status: ('A' for Active; 'I' for Inactive)
REMARK    1  A    between atoms: C_1  and  C_2
REMARK    2  A    between atoms: C_2  and  C_3
REMARK    3  A    between atoms: C_3  and  C_4
REMARK    4  A    between atoms: C_4  and  O_5
REMARK    5  A    between atoms: O_5  and  C_6
REMARK    6  A    between atoms: C_10  and  C_11
REMARK    7  A    between atoms: N_13  and  C_14
REMARK    8  A    between atoms: C_17  and  N_18
REMARK    9  A    between atoms: C_19  and  C_21
REMARK                            x       y       z     vdW  Elec       q    Type
REMARK                         _______ _______ _______ _____ _____    ______ ____
ROOT
ATOM      1  C   UNL     1       4.168   6.304  18.492  0.00  0.00    +0.000 C 
ATOM      2  O   UNL     1       4.009   5.843  19.617  0.00  0.00    +0.000 OA
ATOM      3  N   UNL     1       3.431   7.328  17.908  0.00  0.00    +0.000 N 
ATOM      4  H   UNL     1       3.524   7.470  16.911  0.00  0.00    +0.000 HD
ENDROOT
BRANCH   1   9
ATOM      5  C   UNL     1       6.155   5.021  15.525  0.00  0.00    +0.000 A 
ATOM      6  C   UNL     1       7.280   4.517  16.188  0.00  0.00    +0.000 A 
ATOM      7  C   UNL     1       7.379   4.589  17.576  0.00  0.00    +0.000 A 
ATOM      8  C   UNL     1       6.343   5.159  18.307  0.00  0.00    +0.000 A 
ATOM      9  C   UNL     1       5.204   5.652  17.655  0.00  0.00    +0.000 A 
ATOM     10  C   UNL     1       5.114   5.597  16.259  0.00  0.00    +0.000 A 
BRANCH   5  11
ATOM     11  O   UNL     1       6.200   4.895  14.163  0.00  0.00    +0.000 OA
BRANCH  11  12
ATOM     12  C   UNL     1       5.753   3.656  13.620  0.00  0.00    +0.000 C 
BRANCH  12  13
ATOM     13  C   UNL     1       6.430   3.450  12.270  0.00  0.00    +0.000 C 
BRANCH  13  15
ATOM     14  C   UNL     1       6.634   1.252  11.059  0.00  0.00    +0.000 C 
ATOM     15  C   UNL     1       5.702   2.383  11.457  0.00  0.00    +0.000 C 
ENDBRANCH  13  15
ENDBRANCH  12  13
ENDBRANCH  11  12
ENDBRANCH   5  11
ENDBRANCH   1   9
BRANCH   3  16
ATOM     16  C   UNL     1       2.426   8.071  18.574  0.00  0.00    +0.000 A 
ATOM     17  C   UNL     1       1.999   7.755  19.860  0.00  0.00    +0.000 A 
ATOM     18  C   UNL     1       1.013   8.501  20.499  0.00  0.00    +0.000 A 
ATOM     19  C   UNL     1       0.433   9.603  19.879  0.00  0.00    +0.000 A 
ATOM     20  C   UNL     1       0.832   9.917  18.574  0.00  0.00    +0.000 A 
ATOM     21  C   UNL     1       1.840   9.169  17.934  0.00  0.00    +0.000 A 
BRANCH  19  22
ATOM     22  N   UNL     1      -0.527  10.412  20.522  0.00  0.00    +0.000 N 
ATOM     23  C   UNL     1      -0.454  10.877  21.831  0.00  0.00    +0.000 C 
ATOM     24  O   UNL     1       0.470  10.659  22.609  0.00  0.00    +0.000 OA
ATOM     25  H   UNL     1      -1.295  10.777  19.971  0.00  0.00    +0.000 HD
BRANCH  23  26
ATOM     26  C   UNL     1      -1.567  11.715  22.224  0.00  0.00    +0.000 A 
ATOM     27  C   UNL     1      -2.160  12.773  21.559  0.00  0.00    +0.000 A 
ATOM     28  C   UNL     1      -3.216  13.228  22.378  0.00  0.00    +0.000 A 
ATOM     29  C   UNL     1      -3.202  12.428  23.496  0.00  0.00    +0.000 A 
ATOM     30  O   UNL     1      -2.208  11.504  23.416  0.00  0.00    +0.000 OA
ENDBRANCH  23  26
ENDBRANCH  19  22
ENDBRANCH   3  16
TORSDOF 8
ENDMDL
