MODEL 1
REMARK VINA RESULT:      -7.4      0.000      0.000
REMARK  Name = 
REMARK  7 active torsions:
REMARK  status: ('A' for Active; 'I' for Inactive)
REMARK    1  A    between atoms: C_1  and  C_2
REMARK    2  A    between atoms: C_5  and  O_6
REMARK    3  A    between atoms: O_6  and  C_7
REMARK    4  A    between atoms: C_7  and  C_8
REMARK    5  A    between atoms: C_8  and  O_9
REMARK    6  A    between atoms: C_10  and  C_11
REMARK    7  A    between atoms: C_10  and  C_13
REMARK                            x       y       z     vdW  Elec       q    Type
REMARK                         _______ _______ _______ _____ _____    ______ ____
ROOT
ATOM      1  C   UNL     1       6.438   6.658  17.597  0.00  0.00    +0.000 C 
ATOM      2  C   UNL     1       6.225   5.752  18.577  0.00  0.00    +0.000 C 
ENDROOT
BRANCH   2   3
ATOM      3  C   UNL     1       5.003   5.037  18.684  0.00  0.00    +0.000 A 
ATOM      4  N   UNL     1       4.071   5.231  19.598  0.00  0.00    +0.000 NA
ATOM      5  C   UNL     1       2.999   4.380  19.393  0.00  0.00    +0.000 A 
ATOM      6  C   UNL     1       1.818   4.340  20.162  0.00  0.00    +0.000 A 
ATOM      7  C   UNL     1       0.808   3.426  19.839  0.00  0.00    +0.000 A 
ATOM      8  C   UNL     1       0.965   2.552  18.769  0.00  0.00    +0.000 A 
ATOM      9  C   UNL     1       2.130   2.570  17.994  0.00  0.00    +0.000 A 
ATOM     10  C   UNL     1       3.134   3.496  18.324  0.00  0.00    +0.000 A 
ATOM     11  S   UNL     1       4.656   3.762  17.567  0.00  0.00    +0.000 S 
ENDBRANCH   2   3
BRANCH   1  12
ATOM     12  O   UNL     1       5.469   6.898  16.625  0.00  0.00    +0.000 OA
ATOM     13  H   UNL     1       5.342   6.090  16.094  0.00  0.00    +0.000 HD
ENDBRANCH   1  12
BRANCH   2  14
ATOM     14  C   UNL     1       7.316   5.504  19.604  0.00  0.00    +0.000 C 
ATOM     15  N   UNL     1       8.222   5.297  20.457  0.00  0.00    +0.000 NA
ENDBRANCH   2  14
BRANCH   1  16
ATOM     16  C   UNL     1       7.698   7.503  17.489  0.00  0.00    +0.000 C 
BRANCH  16  17
ATOM     17  O   UNL     1       7.303   8.864  17.312  0.00  0.00    +0.000 OA
BRANCH  17  22
ATOM     18  C   UNL     1      10.852  12.439  19.944  0.00  0.00    +0.000 C 
ATOM     19  C   UNL     1       9.893  11.509  19.259  0.00  0.00    +0.000 A 
ATOM     20  C   UNL     1       9.741  10.186  19.678  0.00  0.00    +0.000 A 
ATOM     21  C   UNL     1       8.857   9.330  19.009  0.00  0.00    +0.000 A 
ATOM     22  C   UNL     1       8.106   9.791  17.926  0.00  0.00    +0.000 A 
ATOM     23  C   UNL     1       8.258  11.112  17.504  0.00  0.00    +0.000 A 
ATOM     24  C   UNL     1       9.145  11.965  18.168  0.00  0.00    +0.000 A 
ENDBRANCH  17  22
ENDBRANCH  16  17
ENDBRANCH   1  16
TORSDOF 6
ENDMDL
MODEL 2
REMARK VINA RESULT:      -7.3      0.188      1.018
REMARK  Name = 
REMARK  7 active torsions:
REMARK  status: ('A' for Active; 'I' for Inactive)
REMARK    1  A    between atoms: C_1  and  C_2
REMARK    2  A    between atoms: C_5  and  O_6
REMARK    3  A    between atoms: O_6  and  C_7
REMARK    4  A    between atoms: C_7  and  C_8
REMARK    5  A    between atoms: C_8  and  O_9
REMARK    6  A    between atoms: C_10  and  C_11
REMARK    7  A    between atoms: C_10  and  C_13
REMARK                            x       y       z     vdW  Elec       q    Type
REMARK                         _______ _______ _______ _____ _____    ______ ____
ROOT
ATOM      1  C   UNL     1       6.439   6.773  17.572  0.00  0.00    +0.000 C 
ATOM      2  C   UNL     1       6.233   5.856  18.543  0.00  0.00    +0.000 C 
ENDROOT
BRANCH   2   3
ATOM      3  C   UNL     1       5.006   5.152  18.661  0.00  0.00    +0.000 A 
ATOM      4  N   UNL     1       4.101   5.328  19.606  0.00  0.00    +0.000 NA
ATOM      5  C   UNL     1       3.014   4.496  19.405  0.00  0.00    +0.000 A 
ATOM      6  C   UNL     1       1.853   4.445  20.203  0.00  0.00    +0.000 A 
ATOM      7  C   UNL     1       0.824   3.553  19.880  0.00  0.00    +0.000 A 
ATOM      8  C   UNL     1       0.942   2.710  18.780  0.00  0.00    +0.000 A 
ATOM      9  C   UNL     1       2.087   2.739  17.975  0.00  0.00    +0.000 A 
ATOM     10  C   UNL     1       3.110   3.644  18.305  0.00  0.00    +0.000 A 
ATOM     11  S   UNL     1       4.614   3.916  17.517  0.00  0.00    +0.000 S 
ENDBRANCH   2   3
BRANCH   1  12
ATOM     12  O   UNL     1       5.456   7.036  16.620  0.00  0.00    +0.000 OA
ATOM     13  H   UNL     1       4.817   6.299  16.609  0.00  0.00    +0.000 HD
ENDBRANCH   1  12
BRANCH   2  14
ATOM     14  C   UNL     1       7.339   5.583  19.549  0.00  0.00    +0.000 C 
ATOM     15  N   UNL     1       8.257   5.358  20.385  0.00  0.00    +0.000 NA
ENDBRANCH   2  14
BRANCH   1  16
ATOM     16  C   UNL     1       7.705   7.607  17.454  0.00  0.00    +0.000 C 
BRANCH  16  17
ATOM     17  O   UNL     1       7.335   8.984  17.523  0.00  0.00    +0.000 OA
BRANCH  17  22
ATOM     18  C   UNL     1      10.988  12.695  19.799  0.00  0.00    +0.000 C 
ATOM     19  C   UNL     1      10.045  11.699  19.190  0.00  0.00    +0.000 A 
ATOM     20  C   UNL     1       9.305  12.006  18.046  0.00  0.00    +0.000 A 
ATOM     21  C   UNL     1       8.414  11.070  17.508  0.00  0.00    +0.000 A 
ATOM     22  C   UNL     1       8.265   9.813  18.099  0.00  0.00    +0.000 A 
ATOM     23  C   UNL     1       9.000   9.505  19.243  0.00  0.00    +0.000 A 
ATOM     24  C   UNL     1       9.886  10.442  19.784  0.00  0.00    +0.000 A 
ENDBRANCH  17  22
ENDBRANCH  16  17
ENDBRANCH   1  16
TORSDOF 6
ENDMDL
MODEL 3
REMARK VINA RESULT:      -7.2      4.684      7.298
REMARK  Name = 
REMARK  7 active torsions:
REMARK  status: ('A' for Active; 'I' for Inactive)
REMARK    1  A    between atoms: C_1  and  C_2
REMARK    2  A    between atoms: C_5  and  O_6
REMARK    3  A    between atoms: O_6  and  C_7
REMARK    4  A    between atoms: C_7  and  C_8
REMARK    5  A    between atoms: C_8  and  O_9
REMARK    6  A    between atoms: C_10  and  C_11
REMARK    7  A    between atoms: C_10  and  C_13
REMARK                            x       y       z     vdW  Elec       q    Type
REMARK                         _______ _______ _______ _____ _____    ______ ____
ROOT
ATOM      1  C   UNL     1       2.216   7.020  19.779  0.00  0.00    +0.000 C 
ATOM      2  C   UNL     1       2.853   5.829  19.733  0.00  0.00    +0.000 C 
ENDROOT
BRANCH   2   3
ATOM      3  C   UNL     1       3.841   5.547  18.752  0.00  0.00    +0.000 A 
ATOM      4  N   UNL     1       3.685   5.650  17.445  0.00  0.00    +0.000 NA
ATOM      5  C   UNL     1       4.856   5.323  16.785  0.00  0.00    +0.000 A 
ATOM      6  C   UNL     1       5.056   5.357  15.390  0.00  0.00    +0.000 A 
ATOM      7  C   UNL     1       6.299   5.003  14.855  0.00  0.00    +0.000 A 
ATOM      8  C   UNL     1       7.339   4.609  15.691  0.00  0.00    +0.000 A 
ATOM      9  C   UNL     1       7.164   4.563  17.078  0.00  0.00    +0.000 A 
ATOM     10  C   UNL     1       5.913   4.929  17.604  0.00  0.00    +0.000 A 
ATOM     11  S   UNL     1       5.399   4.980  19.244  0.00  0.00    +0.000 S 
ENDBRANCH   2   3
BRANCH   1  12
ATOM     12  O   UNL     1       2.533   8.035  18.880  0.00  0.00    +0.000 OA
ATOM     13  H   UNL     1       2.463   7.689  17.970  0.00  0.00    +0.000 HD
ENDBRANCH   1  12
BRANCH   2  14
ATOM     14  C   UNL     1       2.492   4.756  20.745  0.00  0.00    +0.000 C 
ATOM     15  N   UNL     1       2.191   3.866  21.586  0.00  0.00    +0.000 NA
ENDBRANCH   2  14
BRANCH   1  16
ATOM     16  C   UNL     1       1.097   7.339  20.759  0.00  0.00    +0.000 C 
BRANCH  16  17
ATOM     17  O   UNL     1       1.563   8.358  21.644  0.00  0.00    +0.000 OA
BRANCH  17  22
ATOM     18  C   UNL     1      -2.211  12.550  22.337  0.00  0.00    +0.000 C 
ATOM     19  C   UNL     1      -1.198  11.456  22.173  0.00  0.00    +0.000 A 
ATOM     20  C   UNL     1      -0.454  11.325  20.999  0.00  0.00    +0.000 A 
ATOM     21  C   UNL     1       0.469  10.282  20.859  0.00  0.00    +0.000 A 
ATOM     22  C   UNL     1       0.669   9.369  21.896  0.00  0.00    +0.000 A 
ATOM     23  C   UNL     1      -0.075   9.495  23.069  0.00  0.00    +0.000 A 
ATOM     24  C   UNL     1      -1.001  10.533  23.207  0.00  0.00    +0.000 A 
ENDBRANCH  17  22
ENDBRANCH  16  17
ENDBRANCH   1  16
TORSDOF 6
ENDMDL
MODEL 4
REMARK VINA RESULT:      -7.2      4.726      7.177
REMARK  Name = 
REMARK  7 active torsions:
REMARK  status: ('A' for Active; 'I' for Inactive)
REMARK    1  A    between atoms: C_1  and  C_2
REMARK    2  A    between atoms: C_5  and  O_6
REMARK    3  A    between atoms: O_6  and  C_7
REMARK    4  A    between atoms: C_7  and  C_8
REMARK    5  A    between atoms: C_8  and  O_9
REMARK    6  A    between atoms: C_10  and  C_11
REMARK    7  A    between atoms: C_10  and  C_13
REMARK                            x       y       z     vdW  Elec       q    Type
REMARK                         _______ _______ _______ _____ _____    ______ ____
ROOT
ATOM      1  C   UNL     1       2.225   7.070  19.724  0.00  0.00    +0.000 C 
ATOM      2  C   UNL     1       2.861   5.878  19.692  0.00  0.00    +0.000 C 
ENDROOT
BRANCH   2   3
ATOM      3  C   UNL     1       3.856   5.586  18.722  0.00  0.00    +0.000 A 
ATOM      4  N   UNL     1       3.719   5.704  17.415  0.00  0.00    +0.000 NA
ATOM      5  C   UNL     1       4.893   5.361  16.766  0.00  0.00    +0.000 A 
ATOM      6  C   UNL     1       5.111   5.403  15.374  0.00  0.00    +0.000 A 
ATOM      7  C   UNL     1       6.355   5.031  14.852  0.00  0.00    +0.000 A 
ATOM      8  C   UNL     1       7.376   4.611  15.698  0.00  0.00    +0.000 A 
ATOM      9  C   UNL     1       7.182   4.556  17.083  0.00  0.00    +0.000 A 
ATOM     10  C   UNL     1       5.932   4.940  17.595  0.00  0.00    +0.000 A 
ATOM     11  S   UNL     1       5.397   4.986  19.229  0.00  0.00    +0.000 S 
ENDBRANCH   2   3
BRANCH   1  12
ATOM     12  O   UNL     1       2.552   8.077  18.820  0.00  0.00    +0.000 OA
ATOM     13  H   UNL     1       3.300   7.781  18.268  0.00  0.00    +0.000 HD
ENDBRANCH   1  12
BRANCH   2  14
ATOM     14  C   UNL     1       2.489   4.813  20.710  0.00  0.00    +0.000 C 
ATOM     15  N   UNL     1       2.181   3.929  21.555  0.00  0.00    +0.000 NA
ENDBRANCH   2  14
BRANCH   1  16
ATOM     16  C   UNL     1       1.099   7.399  20.693  0.00  0.00    +0.000 C 
BRANCH  16  17
ATOM     17  O   UNL     1       1.584   8.371  21.620  0.00  0.00    +0.000 OA
BRANCH  17  22
ATOM     18  C   UNL     1      -1.832  12.753  22.815  0.00  0.00    +0.000 C 
ATOM     19  C   UNL     1      -0.945  11.591  22.476  0.00  0.00    +0.000 A 
ATOM     20  C   UNL     1      -0.970  10.415  23.228  0.00  0.00    +0.000 A 
ATOM     21  C   UNL     1      -0.117   9.352  22.907  0.00  0.00    +0.000 A 
ATOM     22  C   UNL     1       0.759   9.448  21.824  0.00  0.00    +0.000 A 
ATOM     23  C   UNL     1       0.788  10.623  21.073  0.00  0.00    +0.000 A 
ATOM     24  C   UNL     1      -0.060  11.687  21.396  0.00  0.00    +0.000 A 
ENDBRANCH  17  22
ENDBRANCH  16  17
ENDBRANCH   1  16
TORSDOF 6
ENDMDL
MODEL 5
REMARK VINA RESULT:      -7.2      0.860      1.637
REMARK  Name = 
REMARK  7 active torsions:
REMARK  status: ('A' for Active; 'I' for Inactive)
REMARK    1  A    between atoms: C_1  and  C_2
REMARK    2  A    between atoms: C_5  and  O_6
REMARK    3  A    between atoms: O_6  and  C_7
REMARK    4  A    between atoms: C_7  and  C_8
REMARK    5  A    between atoms: C_8  and  O_9
REMARK    6  A    between atoms: C_10  and  C_11
REMARK    7  A    between atoms: C_10  and  C_13
REMARK                            x       y       z     vdW  Elec       q    Type
REMARK                         _______ _______ _______ _____ _____    ______ ____
ROOT
ATOM      1  C   UNL     1       6.561   6.667  17.524  0.00  0.00    +0.000 C 
ATOM      2  C   UNL     1       6.303   5.770  18.501  0.00  0.00    +0.000 C 
ENDROOT
BRANCH   2   3
ATOM      3  C   UNL     1       5.082   5.045  18.549  0.00  0.00    +0.000 A 
ATOM      4  N   UNL     1       4.881   3.838  18.055  0.00  0.00    +0.000 NA
ATOM      5  C   UNL     1       3.584   3.420  18.300  0.00  0.00    +0.000 A 
ATOM      6  C   UNL     1       3.037   2.171  17.941  0.00  0.00    +0.000 A 
ATOM      7  C   UNL     1       1.706   1.877  18.255  0.00  0.00    +0.000 A 
ATOM      8  C   UNL     1       0.915   2.813  18.913  0.00  0.00    +0.000 A 
ATOM      9  C   UNL     1       1.433   4.061  19.275  0.00  0.00    +0.000 A 
ATOM     10  C   UNL     1       2.774   4.342  18.961  0.00  0.00    +0.000 A 
ATOM     11  S   UNL     1       3.688   5.764  19.277  0.00  0.00    +0.000 S 
ENDBRANCH   2   3
BRANCH   1  12
ATOM     12  O   UNL     1       5.645   6.889  16.499  0.00  0.00    +0.000 OA
ATOM     13  H   UNL     1       5.375   7.827  16.508  0.00  0.00    +0.000 HD
ENDBRANCH   1  12
BRANCH   2  14
ATOM     14  C   UNL     1       7.339   5.543  19.589  0.00  0.00    +0.000 C 
ATOM     15  N   UNL     1       8.198   5.355  20.492  0.00  0.00    +0.000 NA
ENDBRANCH   2  14
BRANCH   1  16
ATOM     16  C   UNL     1       7.818   7.523  17.475  0.00  0.00    +0.000 C 
BRANCH  16  17
ATOM     17  O   UNL     1       7.419   8.890  17.372  0.00  0.00    +0.000 OA
BRANCH  17  22
ATOM     18  C   UNL     1      10.584  12.873  19.904  0.00  0.00    +0.000 C 
ATOM     19  C   UNL     1       9.771  11.809  19.225  0.00  0.00    +0.000 A 
ATOM     20  C   UNL     1       8.960  12.105  18.127  0.00  0.00    +0.000 A 
ATOM     21  C   UNL     1       8.193  11.101  17.525  0.00  0.00    +0.000 A 
ATOM     22  C   UNL     1       8.240   9.790  18.002  0.00  0.00    +0.000 A 
ATOM     23  C   UNL     1       9.047   9.493  19.100  0.00  0.00    +0.000 A 
ATOM     24  C   UNL     1       9.809  10.496  19.707  0.00  0.00    +0.000 A 
ENDBRANCH  17  22
ENDBRANCH  16  17
ENDBRANCH   1  16
TORSDOF 6
ENDMDL
MODEL 6
REMARK VINA RESULT:      -7.2      1.052      1.095
REMARK  Name = 
REMARK  7 active torsions:
REMARK  status: ('A' for Active; 'I' for Inactive)
REMARK    1  A    between atoms: C_1  and  C_2
REMARK    2  A    between atoms: C_5  and  O_6
REMARK    3  A    between atoms: O_6  and  C_7
REMARK    4  A    between atoms: C_7  and  C_8
REMARK    5  A    between atoms: C_8  and  O_9
REMARK    6  A    between atoms: C_10  and  C_11
REMARK    7  A    between atoms: C_10  and  C_13
REMARK                            x       y       z     vdW  Elec       q    Type
REMARK                         _______ _______ _______ _____ _____    ______ ____
ROOT
ATOM      1  C   UNL     1       6.226   7.010  17.535  0.00  0.00    +0.000 C 
ATOM      2  C   UNL     1       6.148   5.709  17.889  0.00  0.00    +0.000 C 
ENDROOT
BRANCH   2   3
ATOM      3  C   UNL     1       4.928   5.119  18.313  0.00  0.00    +0.000 A 
ATOM      4  N   UNL     1       4.287   5.390  19.435  0.00  0.00    +0.000 NA
ATOM      5  C   UNL     1       3.117   4.655  19.520  0.00  0.00    +0.000 A 
ATOM      6  C   UNL     1       2.175   4.720  20.567  0.00  0.00    +0.000 A 
ATOM      7  C   UNL     1       1.028   3.920  20.522  0.00  0.00    +0.000 A 
ATOM      8  C   UNL     1       0.815   3.054  19.455  0.00  0.00    +0.000 A 
ATOM      9  C   UNL     1       1.737   2.968  18.407  0.00  0.00    +0.000 A 
ATOM     10  C   UNL     1       2.882   3.783  18.459  0.00  0.00    +0.000 A 
ATOM     11  S   UNL     1       4.177   3.907  17.334  0.00  0.00    +0.000 S 
ENDBRANCH   2   3
BRANCH   1  12
ATOM     12  O   UNL     1       5.092   7.819  17.538  0.00  0.00    +0.000 OA
ATOM     13  H   UNL     1       5.367   8.754  17.598  0.00  0.00    +0.000 HD
ENDBRANCH   1  12
BRANCH   2  14
ATOM     14  C   UNL     1       7.405   4.855  17.851  0.00  0.00    +0.000 C 
ATOM     15  N   UNL     1       8.447   4.146  17.820  0.00  0.00    +0.000 NA
ENDBRANCH   2  14
BRANCH   1  16
ATOM     16  C   UNL     1       7.524   7.704  17.151  0.00  0.00    +0.000 C 
BRANCH  16  17
ATOM     17  O   UNL     1       8.194   8.084  18.353  0.00  0.00    +0.000 OA
BRANCH  17  22
ATOM     18  C   UNL     1       9.829  13.499  18.911  0.00  0.00    +0.000 C 
ATOM     19  C   UNL     1       9.371  12.077  18.769  0.00  0.00    +0.000 A 
ATOM     20  C   UNL     1       9.739  11.100  19.698  0.00  0.00    +0.000 A 
ATOM     21  C   UNL     1       9.319   9.775  19.533  0.00  0.00    +0.000 A 
ATOM     22  C   UNL     1       8.515   9.415  18.449  0.00  0.00    +0.000 A 
ATOM     23  C   UNL     1       8.149  10.388  17.519  0.00  0.00    +0.000 A 
ATOM     24  C   UNL     1       8.573  11.711  17.680  0.00  0.00    +0.000 A 
ENDBRANCH  17  22
ENDBRANCH  16  17
ENDBRANCH   1  16
TORSDOF 6
ENDMDL
MODEL 7
REMARK VINA RESULT:      -7.1      1.466      2.095
REMARK  Name = 
REMARK  7 active torsions:
REMARK  status: ('A' for Active; 'I' for Inactive)
REMARK    1  A    between atoms: C_1  and  C_2
REMARK    2  A    between atoms: C_5  and  O_6
REMARK    3  A    between atoms: O_6  and  C_7
REMARK    4  A    between atoms: C_7  and  C_8
REMARK    5  A    between atoms: C_8  and  O_9
REMARK    6  A    between atoms: C_10  and  C_11
REMARK    7  A    between atoms: C_10  and  C_13
REMARK                            x       y       z     vdW  Elec       q    Type
REMARK                         _______ _______ _______ _____ _____    ______ ____
ROOT
ATOM      1  C   UNL     1       6.776   6.267  18.431  0.00  0.00    +0.000 C 
ATOM      2  C   UNL     1       5.633   5.936  17.791  0.00  0.00    +0.000 C 
ENDROOT
BRANCH   2   3
ATOM      3  C   UNL     1       4.639   5.127  18.402  0.00  0.00    +0.000 A 
ATOM      4  N   UNL     1       4.053   5.366  19.561  0.00  0.00    +0.000 NA
ATOM      5  C   UNL     1       3.114   4.390  19.844  0.00  0.00    +0.000 A 
ATOM      6  C   UNL     1       2.281   4.350  20.981  0.00  0.00    +0.000 A 
ATOM      7  C   UNL     1       1.369   3.300  21.140  0.00  0.00    +0.000 A 
ATOM      8  C   UNL     1       1.283   2.292  20.186  0.00  0.00    +0.000 A 
ATOM      9  C   UNL     1       2.102   2.307  19.052  0.00  0.00    +0.000 A 
ATOM     10  C   UNL     1       3.009   3.370  18.900  0.00  0.00    +0.000 A 
ATOM     11  S   UNL     1       4.128   3.667  17.628  0.00  0.00    +0.000 S 
ENDBRANCH   2   3
BRANCH   1  12
ATOM     12  O   UNL     1       7.006   5.851  19.741  0.00  0.00    +0.000 OA
ATOM     13  H   UNL     1       6.886   6.610  20.342  0.00  0.00    +0.000 HD
ENDBRANCH   1  12
BRANCH   2  14
ATOM     14  C   UNL     1       5.412   6.428  16.371  0.00  0.00    +0.000 C 
ATOM     15  N   UNL     1       5.228   6.837  15.192  0.00  0.00    +0.000 NA
ENDBRANCH   2  14
BRANCH   1  16
ATOM     16  C   UNL     1       7.902   7.064  17.790  0.00  0.00    +0.000 C 
BRANCH  16  17
ATOM     17  O   UNL     1       7.430   8.392  17.562  0.00  0.00    +0.000 OA
BRANCH  17  22
ATOM     18  C   UNL     1      10.427  12.760  19.620  0.00  0.00    +0.000 C 
ATOM     19  C   UNL     1       9.660  11.594  19.069  0.00  0.00    +0.000 A 
ATOM     20  C   UNL     1       8.861  11.724  17.930  0.00  0.00    +0.000 A 
ATOM     21  C   UNL     1       8.136  10.628  17.447  0.00  0.00    +0.000 A 
ATOM     22  C   UNL     1       8.213   9.389  18.087  0.00  0.00    +0.000 A 
ATOM     23  C   UNL     1       9.007   9.258  19.226  0.00  0.00    +0.000 A 
ATOM     24  C   UNL     1       9.727  10.353  19.712  0.00  0.00    +0.000 A 
ENDBRANCH  17  22
ENDBRANCH  16  17
ENDBRANCH   1  16
TORSDOF 6
ENDMDL
MODEL 8
REMARK VINA RESULT:      -7.1      1.550      2.065
REMARK  Name = 
REMARK  7 active torsions:
REMARK  status: ('A' for Active; 'I' for Inactive)
REMARK    1  A    between atoms: C_1  and  C_2
REMARK    2  A    between atoms: C_5  and  O_6
REMARK    3  A    between atoms: O_6  and  C_7
REMARK    4  A    between atoms: C_7  and  C_8
REMARK    5  A    between atoms: C_8  and  O_9
REMARK    6  A    between atoms: C_10  and  C_11
REMARK    7  A    between atoms: C_10  and  C_13
REMARK                            x       y       z     vdW  Elec       q    Type
REMARK                         _______ _______ _______ _____ _____    ______ ____
ROOT
ATOM      1  C   UNL     1       6.667   6.242  18.373  0.00  0.00    +0.000 C 
ATOM      2  C   UNL     1       5.514   5.964  17.727  0.00  0.00    +0.000 C 
ENDROOT
BRANCH   2   3
ATOM      3  C   UNL     1       4.497   5.167  18.317  0.00  0.00    +0.000 A 
ATOM      4  N   UNL     1       4.043   5.284  19.551  0.00  0.00    +0.000 NA
ATOM      5  C   UNL     1       3.034   4.367  19.790  0.00  0.00    +0.000 A 
ATOM      6  C   UNL     1       2.304   4.235  20.989  0.00  0.00    +0.000 A 
ATOM      7  C   UNL     1       1.304   3.262  21.091  0.00  0.00    +0.000 A 
ATOM      8  C   UNL     1       1.029   2.419  20.020  0.00  0.00    +0.000 A 
ATOM      9  C   UNL     1       1.742   2.528  18.821  0.00  0.00    +0.000 A 
ATOM     10  C   UNL     1       2.740   3.513  18.728  0.00  0.00    +0.000 A 
ATOM     11  S   UNL     1       3.769   3.892  17.403  0.00  0.00    +0.000 S 
ENDBRANCH   2   3
BRANCH   1  12
ATOM     12  O   UNL     1       6.887   5.782  19.670  0.00  0.00    +0.000 OA
ATOM     13  H   UNL     1       7.209   6.520  20.221  0.00  0.00    +0.000 HD
ENDBRANCH   1  12
BRANCH   2  14
ATOM     14  C   UNL     1       5.306   6.502  16.321  0.00  0.00    +0.000 C 
ATOM     15  N   UNL     1       5.132   6.949  15.155  0.00  0.00    +0.000 NA
ENDBRANCH   2  14
BRANCH   1  16
ATOM     16  C   UNL     1       7.816   7.022  17.752  0.00  0.00    +0.000 C 
BRANCH  16  17
ATOM     17  O   UNL     1       8.484   7.731  18.796  0.00  0.00    +0.000 OA
BRANCH  17  22
ATOM     18  C   UNL     1       9.263  13.323  18.150  0.00  0.00    +0.000 C 
ATOM     19  C   UNL     1       9.031  11.851  18.329  0.00  0.00    +0.000 A 
ATOM     20  C   UNL     1       9.663  11.135  19.348  0.00  0.00    +0.000 A 
ATOM     21  C   UNL     1       9.450   9.758  19.482  0.00  0.00    +0.000 A 
ATOM     22  C   UNL     1       8.592   9.086  18.609  0.00  0.00    +0.000 A 
ATOM     23  C   UNL     1       7.962   9.798  17.589  0.00  0.00    +0.000 A 
ATOM     24  C   UNL     1       8.180  11.172  17.451  0.00  0.00    +0.000 A 
ENDBRANCH  17  22
ENDBRANCH  16  17
ENDBRANCH   1  16
TORSDOF 6
ENDMDL
MODEL 9
REMARK VINA RESULT:      -7.1      4.250      6.666
REMARK  Name = 
REMARK  7 active torsions:
REMARK  status: ('A' for Active; 'I' for Inactive)
REMARK    1  A    between atoms: C_1  and  C_2
REMARK    2  A    between atoms: C_5  and  O_6
REMARK    3  A    between atoms: O_6  and  C_7
REMARK    4  A    between atoms: C_7  and  C_8
REMARK    5  A    between atoms: C_8  and  O_9
REMARK    6  A    between atoms: C_10  and  C_11
REMARK    7  A    between atoms: C_10  and  C_13
REMARK                            x       y       z     vdW  Elec       q    Type
REMARK                         _______ _______ _______ _____ _____    ______ ____
ROOT
ATOM      1  C   UNL     1       5.930   6.123  17.174  0.00  0.00    +0.000 C 
ATOM      2  C   UNL     1       4.732   5.725  17.656  0.00  0.00    +0.000 C 
ENDROOT
BRANCH   2   3
ATOM      3  C   UNL     1       3.772   6.654  18.140  0.00  0.00    +0.000 A 
ATOM      4  N   UNL     1       3.402   7.767  17.535  0.00  0.00    +0.000 NA
ATOM      5  C   UNL     1       2.429   8.422  18.270  0.00  0.00    +0.000 A 
ATOM      6  C   UNL     1       1.785   9.622  17.905  0.00  0.00    +0.000 A 
ATOM      7  C   UNL     1       0.812  10.175  18.745  0.00  0.00    +0.000 A 
ATOM      8  C   UNL     1       0.481   9.551  19.944  0.00  0.00    +0.000 A 
ATOM      9  C   UNL     1       1.109   8.362  20.331  0.00  0.00    +0.000 A 
ATOM     10  C   UNL     1       2.079   7.813  19.475  0.00  0.00    +0.000 A 
ATOM     11  S   UNL     1       3.009   6.379  19.667  0.00  0.00    +0.000 S 
ENDBRANCH   2   3
BRANCH   1  12
ATOM     12  O   UNL     1       6.256   7.475  17.101  0.00  0.00    +0.000 OA
ATOM     13  H   UNL     1       6.111   7.790  16.189  0.00  0.00    +0.000 HD
ENDBRANCH   1  12
BRANCH   2  14
ATOM     14  C   UNL     1       4.408   4.241  17.699  0.00  0.00    +0.000 C 
ATOM     15  N   UNL     1       4.139   3.010  17.734  0.00  0.00    +0.000 NA
ENDBRANCH   2  14
BRANCH   1  16
ATOM     16  C   UNL     1       7.018   5.162  16.720  0.00  0.00    +0.000 C 
BRANCH  16  17
ATOM     17  O   UNL     1       7.418   5.538  15.402  0.00  0.00    +0.000 OA
BRANCH  17  22
ATOM     18  C   UNL     1       5.247   2.569  11.070  0.00  0.00    +0.000 C 
ATOM     19  C   UNL     1       5.800   3.372  12.211  0.00  0.00    +0.000 A 
ATOM     20  C   UNL     1       7.027   4.032  12.106  0.00  0.00    +0.000 A 
ATOM     21  C   UNL     1       7.534   4.756  13.191  0.00  0.00    +0.000 A 
ATOM     22  C   UNL     1       6.815   4.842  14.385  0.00  0.00    +0.000 A 
ATOM     23  C   UNL     1       5.591   4.182  14.493  0.00  0.00    +0.000 A 
ATOM     24  C   UNL     1       5.087   3.453  13.412  0.00  0.00    +0.000 A 
ENDBRANCH  17  22
ENDBRANCH  16  17
ENDBRANCH   1  16
TORSDOF 6
ENDMDL
