MODEL 1
REMARK VINA RESULT:      -7.9      0.000      0.000
REMARK  Name = 
REMARK  7 active torsions:
REMARK  status: ('A' for Active; 'I' for Inactive)
REMARK    1  A    between atoms: C_1  and  C_2
REMARK    2  A    between atoms: N_4  and  C_5
REMARK    3  A    between atoms: C_5  and  C_6
REMARK    4  A    between atoms: C_8  and  C_9
REMARK    5  A    between atoms: C_12  and  N_13
REMARK    6  A    between atoms: C_17  and  C_19
REMARK    7  A    between atoms: C_19  and  O_20
REMARK                            x       y       z     vdW  Elec       q    Type
REMARK                         _______ _______ _______ _____ _____    ______ ____
ROOT
ATOM      1  C   UNL     1       3.226   6.813  18.445  0.00  0.00    +0.000 A 
ATOM      2  C   UNL     1       3.016   7.910  17.604  0.00  0.00    +0.000 A 
ATOM      3  C   UNL     1       2.156   8.948  17.995  0.00  0.00    +0.000 A 
ATOM      4  C   UNL     1       1.501   8.922  19.232  0.00  0.00    +0.000 A 
ATOM      5  C   UNL     1       1.697   7.774  20.029  0.00  0.00    +0.000 A 
ATOM      6  F   UNL     1       1.039   7.647  21.193  0.00  0.00    +0.000 F 
ATOM      7  C   UNL     1       2.540   6.737  19.654  0.00  0.00    +0.000 A 
ENDROOT
BRANCH   4   8
ATOM      8  N   UNL     1       0.684   9.951  19.667  0.00  0.00    +0.000 N 
ATOM      9  C   UNL     1      -0.141  10.774  18.769  0.00  0.00    +0.000 C 
ATOM     10  C   UNL     1      -1.439  11.180  19.509  0.00  0.00    +0.000 C 
ATOM     11  N   UNL     1      -1.160  11.763  20.832  0.00  0.00    +0.000 N 
ATOM     12  C   UNL     1      -1.683  12.995  21.176  0.00  0.00    +0.000 C 
ATOM     13  O   UNL     1      -2.375  13.666  20.405  0.00  0.00    +0.000 OA
ATOM     14  C   UNL     1      -0.286  10.943  21.687  0.00  0.00    +0.000 C 
ATOM     15  C   UNL     1       1.017  10.598  20.951  0.00  0.00    +0.000 C 
BRANCH  12  16
ATOM     16  C   UNL     1      -1.339  13.551  22.566  0.00  0.00    +0.000 C 
BRANCH  16  17
ATOM     17  O   UNL     1      -2.315  13.234  23.548  0.00  0.00    +0.000 OA
ATOM     18  H   UNL     1      -2.085  12.342  23.873  0.00  0.00    +0.000 HD
ENDBRANCH  16  17
ENDBRANCH  12  16
ENDBRANCH   4   8
BRANCH   1  21
ATOM     19  C   UNL     1       5.673   4.417  16.974  0.00  0.00    +0.000 C 
ATOM     20  C   UNL     1       4.642   5.497  16.724  0.00  0.00    +0.000 C 
ATOM     21  C   UNL     1       4.185   5.738  18.114  0.00  0.00    +0.000 C 
ATOM     22  N   UNL     1       4.698   4.957  19.010  0.00  0.00    +0.000 NA
ATOM     23  O   UNL     1       5.577   4.066  18.363  0.00  0.00    +0.000 OA
BRANCH  19  24
ATOM     24  C   UNL     1       7.108   4.872  16.678  0.00  0.00    +0.000 C 
BRANCH  24  28
ATOM     25  C   UNL     1       7.790   8.465  17.669  0.00  0.00    +0.000 C 
ATOM     26  C   UNL     1       7.701   6.975  17.835  0.00  0.00    +0.000 C 
ATOM     27  O   UNL     1       7.999   6.410  18.881  0.00  0.00    +0.000 OA
ATOM     28  N   UNL     1       7.289   6.316  16.698  0.00  0.00    +0.000 N 
ATOM     29  H   UNL     1       6.882   6.860  15.947  0.00  0.00    +0.000 HD
ENDBRANCH  24  28
ENDBRANCH  19  24
ENDBRANCH   1  21
TORSDOF 6
ENDMDL
MODEL 2
REMARK VINA RESULT:      -7.9      0.829      1.342
REMARK  Name = 
REMARK  7 active torsions:
REMARK  status: ('A' for Active; 'I' for Inactive)
REMARK    1  A    between atoms: C_1  and  C_2
REMARK    2  A    between atoms: N_4  and  C_5
REMARK    3  A    between atoms: C_5  and  C_6
REMARK    4  A    between atoms: C_8  and  C_9
REMARK    5  A    between atoms: C_12  and  N_13
REMARK    6  A    between atoms: C_17  and  C_19
REMARK    7  A    between atoms: C_19  and  O_20
REMARK                            x       y       z     vdW  Elec       q    Type
REMARK                         _______ _______ _______ _____ _____    ______ ____
ROOT
ATOM      1  C   UNL     1       3.238   6.825  18.566  0.00  0.00    +0.000 A 
ATOM      2  C   UNL     1       3.025   7.885  17.679  0.00  0.00    +0.000 A 
ATOM      3  C   UNL     1       2.149   8.928  18.019  0.00  0.00    +0.000 A 
ATOM      4  C   UNL     1       1.479   8.942  19.249  0.00  0.00    +0.000 A 
ATOM      5  C   UNL     1       1.679   7.829  20.093  0.00  0.00    +0.000 A 
ATOM      6  F   UNL     1       1.009   7.740  21.254  0.00  0.00    +0.000 F 
ATOM      7  C   UNL     1       2.539   6.788  19.768  0.00  0.00    +0.000 A 
ENDROOT
BRANCH   4   8
ATOM      8  N   UNL     1       0.645   9.977  19.633  0.00  0.00    +0.000 N 
ATOM      9  C   UNL     1       0.968  10.932  20.705  0.00  0.00    +0.000 C 
ATOM     10  C   UNL     1       0.359  12.311  20.351  0.00  0.00    +0.000 C 
ATOM     11  N   UNL     1      -1.066  12.210  19.996  0.00  0.00    +0.000 N 
ATOM     12  C   UNL     1      -2.002  13.000  20.635  0.00  0.00    +0.000 C 
ATOM     13  O   UNL     1      -1.705  13.795  21.530  0.00  0.00    +0.000 OA
ATOM     14  C   UNL     1      -1.366  11.207  18.961  0.00  0.00    +0.000 C 
ATOM     15  C   UNL     1      -0.799   9.836  19.359  0.00  0.00    +0.000 C 
BRANCH  12  16
ATOM     16  C   UNL     1      -3.473  12.832  20.226  0.00  0.00    +0.000 C 
BRANCH  16  17
ATOM     17  O   UNL     1      -4.378  13.093  21.288  0.00  0.00    +0.000 OA
ATOM     18  H   UNL     1      -4.459  12.253  21.781  0.00  0.00    +0.000 HD
ENDBRANCH  16  17
ENDBRANCH  12  16
ENDBRANCH   4   8
BRANCH   1  21
ATOM     19  C   UNL     1       5.691   4.372  17.205  0.00  0.00    +0.000 C 
ATOM     20  C   UNL     1       4.621   5.399  16.906  0.00  0.00    +0.000 C 
ATOM     21  C   UNL     1       4.214   5.749  18.288  0.00  0.00    +0.000 C 
ATOM     22  N   UNL     1       4.785   5.064  19.226  0.00  0.00    +0.000 NA
ATOM     23  O   UNL     1       5.662   4.142  18.622  0.00  0.00    +0.000 OA
BRANCH  19  24
ATOM     24  C   UNL     1       7.100   4.835  16.809  0.00  0.00    +0.000 C 
BRANCH  24  28
ATOM     25  C   UNL     1       7.774   8.470  17.640  0.00  0.00    +0.000 C 
ATOM     26  C   UNL     1       7.717   6.985  17.862  0.00  0.00    +0.000 C 
ATOM     27  O   UNL     1       8.073   6.462  18.911  0.00  0.00    +0.000 OA
ATOM     28  N   UNL     1       7.260   6.281  16.770  0.00  0.00    +0.000 N 
ATOM     29  H   UNL     1       6.809   6.792  16.021  0.00  0.00    +0.000 HD
ENDBRANCH  24  28
ENDBRANCH  19  24
ENDBRANCH   1  21
TORSDOF 6
ENDMDL
MODEL 3
REMARK VINA RESULT:      -7.8      0.964      1.343
REMARK  Name = 
REMARK  7 active torsions:
REMARK  status: ('A' for Active; 'I' for Inactive)
REMARK    1  A    between atoms: C_1  and  C_2
REMARK    2  A    between atoms: N_4  and  C_5
REMARK    3  A    between atoms: C_5  and  C_6
REMARK    4  A    between atoms: C_8  and  C_9
REMARK    5  A    between atoms: C_12  and  N_13
REMARK    6  A    between atoms: C_17  and  C_19
REMARK    7  A    between atoms: C_19  and  O_20
REMARK                            x       y       z     vdW  Elec       q    Type
REMARK                         _______ _______ _______ _____ _____    ______ ____
ROOT
ATOM      1  C   UNL     1       3.194   6.879  18.420  0.00  0.00    +0.000 A 
ATOM      2  C   UNL     1       2.965   7.883  17.473  0.00  0.00    +0.000 A 
ATOM      3  C   UNL     1       2.147   8.980  17.787  0.00  0.00    +0.000 A 
ATOM      4  C   UNL     1       1.554   9.105  19.050  0.00  0.00    +0.000 A 
ATOM      5  C   UNL     1       1.766   8.047  19.958  0.00  0.00    +0.000 A 
ATOM      6  F   UNL     1       1.164   8.064  21.159  0.00  0.00    +0.000 F 
ATOM      7  C   UNL     1       2.569   6.953  19.660  0.00  0.00    +0.000 A 
ENDROOT
BRANCH   4   8
ATOM      8  N   UNL     1       0.781  10.196  19.406  0.00  0.00    +0.000 N 
ATOM      9  C   UNL     1      -0.666  10.123  19.667  0.00  0.00    +0.000 C 
ATOM     10  C   UNL     1      -1.032  11.155  20.762  0.00  0.00    +0.000 C 
ATOM     11  N   UNL     1      -0.507  12.496  20.455  0.00  0.00    +0.000 N 
ATOM     12  C   UNL     1      -1.349  13.591  20.449  0.00  0.00    +0.000 C 
ATOM     13  O   UNL     1      -2.560  13.503  20.674  0.00  0.00    +0.000 OA
ATOM     14  C   UNL     1       0.931  12.529  20.142  0.00  0.00    +0.000 C 
ATOM     15  C   UNL     1       1.262  11.537  19.018  0.00  0.00    +0.000 C 
BRANCH  12  16
ATOM     16  C   UNL     1      -0.738  14.957  20.105  0.00  0.00    +0.000 C 
BRANCH  16  17
ATOM     17  O   UNL     1      -1.694  15.886  19.617  0.00  0.00    +0.000 OA
ATOM     18  H   UNL     1      -1.470  16.029  18.677  0.00  0.00    +0.000 HD
ENDBRANCH  16  17
ENDBRANCH  12  16
ENDBRANCH   4   8
BRANCH   1  21
ATOM     19  C   UNL     1       5.566   4.313  17.125  0.00  0.00    +0.000 C 
ATOM     20  C   UNL     1       4.587   5.419  16.798  0.00  0.00    +0.000 C 
ATOM     21  C   UNL     1       4.114   5.750  18.164  0.00  0.00    +0.000 C 
ATOM     22  N   UNL     1       4.576   4.997  19.109  0.00  0.00    +0.000 NA
ATOM     23  O   UNL     1       5.429   4.038  18.527  0.00  0.00    +0.000 OA
BRANCH  19  24
ATOM     24  C   UNL     1       7.025   4.693  16.837  0.00  0.00    +0.000 C 
BRANCH  24  28
ATOM     25  C   UNL     1       7.821   8.312  17.628  0.00  0.00    +0.000 C 
ATOM     26  C   UNL     1       7.668   6.839  17.882  0.00  0.00    +0.000 C 
ATOM     27  O   UNL     1       7.911   6.329  18.970  0.00  0.00    +0.000 OA
ATOM     28  N   UNL     1       7.263   6.127  16.775  0.00  0.00    +0.000 N 
ATOM     29  H   UNL     1       6.902   6.638  15.979  0.00  0.00    +0.000 HD
ENDBRANCH  24  28
ENDBRANCH  19  24
ENDBRANCH   1  21
TORSDOF 6
ENDMDL
MODEL 4
REMARK VINA RESULT:      -7.7      1.119      1.951
REMARK  Name = 
REMARK  7 active torsions:
REMARK  status: ('A' for Active; 'I' for Inactive)
REMARK    1  A    between atoms: C_1  and  C_2
REMARK    2  A    between atoms: N_4  and  C_5
REMARK    3  A    between atoms: C_5  and  C_6
REMARK    4  A    between atoms: C_8  and  C_9
REMARK    5  A    between atoms: C_12  and  N_13
REMARK    6  A    between atoms: C_17  and  C_19
REMARK    7  A    between atoms: C_19  and  O_20
REMARK                            x       y       z     vdW  Elec       q    Type
REMARK                         _______ _______ _______ _____ _____    ______ ____
ROOT
ATOM      1  C   UNL     1       3.146   6.811  18.389  0.00  0.00    +0.000 A 
ATOM      2  C   UNL     1       2.618   6.585  19.664  0.00  0.00    +0.000 A 
ATOM      3  C   UNL     1       1.746   7.519  20.246  0.00  0.00    +0.000 A 
ATOM      4  C   UNL     1       1.374   8.686  19.567  0.00  0.00    +0.000 A 
ATOM      5  C   UNL     1       1.968   8.904  18.306  0.00  0.00    +0.000 A 
ATOM      6  F   UNL     1       1.716  10.039  17.634  0.00  0.00    +0.000 F 
ATOM      7  C   UNL     1       2.836   7.991  17.720  0.00  0.00    +0.000 A 
ENDROOT
BRANCH   4   8
ATOM      8  N   UNL     1       0.481   9.603  20.094  0.00  0.00    +0.000 N 
ATOM      9  C   UNL     1       0.191   9.730  21.531  0.00  0.00    +0.000 C 
ATOM     10  C   UNL     1      -0.109  11.214  21.855  0.00  0.00    +0.000 C 
ATOM     11  N   UNL     1      -1.120  11.783  20.948  0.00  0.00    +0.000 N 
ATOM     12  C   UNL     1      -2.240  12.411  21.458  0.00  0.00    +0.000 C 
ATOM     13  O   UNL     1      -2.459  12.506  22.669  0.00  0.00    +0.000 OA
ATOM     14  C   UNL     1      -0.831  11.591  19.518  0.00  0.00    +0.000 C 
ATOM     15  C   UNL     1      -0.590  10.106  19.211  0.00  0.00    +0.000 C 
BRANCH  12  16
ATOM     16  C   UNL     1      -3.261  12.968  20.456  0.00  0.00    +0.000 C 
BRANCH  16  17
ATOM     17  O   UNL     1      -3.129  14.366  20.247  0.00  0.00    +0.000 OA
ATOM     18  H   UNL     1      -4.030  14.692  20.053  0.00  0.00    +0.000 HD
ENDBRANCH  16  17
ENDBRANCH  12  16
ENDBRANCH   4   8
BRANCH   1  21
ATOM     19  C   UNL     1       5.499   4.861  16.256  0.00  0.00    +0.000 C 
ATOM     20  C   UNL     1       4.697   6.132  16.430  0.00  0.00    +0.000 C 
ATOM     21  C   UNL     1       3.999   5.819  17.701  0.00  0.00    +0.000 C 
ATOM     22  N   UNL     1       4.207   4.630  18.170  0.00  0.00    +0.000 NA
ATOM     23  O   UNL     1       5.072   3.957  17.286  0.00  0.00    +0.000 OA
BRANCH  19  24
ATOM     24  C   UNL     1       7.012   5.079  16.387  0.00  0.00    +0.000 C 
BRANCH  24  28
ATOM     25  C   UNL     1       8.012   8.436  17.831  0.00  0.00    +0.000 C 
ATOM     26  C   UNL     1       7.674   6.972  17.832  0.00  0.00    +0.000 C 
ATOM     27  O   UNL     1       7.678   6.296  18.854  0.00  0.00    +0.000 OA
ATOM     28  N   UNL     1       7.397   6.469  16.581  0.00  0.00    +0.000 N 
ATOM     29  H   UNL     1       7.227   7.122  15.825  0.00  0.00    +0.000 HD
ENDBRANCH  24  28
ENDBRANCH  19  24
ENDBRANCH   1  21
TORSDOF 6
ENDMDL
MODEL 5
REMARK VINA RESULT:      -7.7      1.269      1.591
REMARK  Name = 
REMARK  7 active torsions:
REMARK  status: ('A' for Active; 'I' for Inactive)
REMARK    1  A    between atoms: C_1  and  C_2
REMARK    2  A    between atoms: N_4  and  C_5
REMARK    3  A    between atoms: C_5  and  C_6
REMARK    4  A    between atoms: C_8  and  C_9
REMARK    5  A    between atoms: C_12  and  N_13
REMARK    6  A    between atoms: C_17  and  C_19
REMARK    7  A    between atoms: C_19  and  O_20
REMARK                            x       y       z     vdW  Elec       q    Type
REMARK                         _______ _______ _______ _____ _____    ______ ____
ROOT
ATOM      1  C   UNL     1       3.241   6.371  18.110  0.00  0.00    +0.000 A 
ATOM      2  C   UNL     1       2.969   7.656  17.628  0.00  0.00    +0.000 A 
ATOM      3  C   UNL     1       2.185   8.544  18.381  0.00  0.00    +0.000 A 
ATOM      4  C   UNL     1       1.667   8.177  19.629  0.00  0.00    +0.000 A 
ATOM      5  C   UNL     1       1.920   6.856  20.057  0.00  0.00    +0.000 A 
ATOM      6  F   UNL     1       1.389   6.412  21.208  0.00  0.00    +0.000 F 
ATOM      7  C   UNL     1       2.689   5.965  19.321  0.00  0.00    +0.000 A 
ENDROOT
BRANCH   4   8
ATOM      8  N   UNL     1       0.930   9.044  20.416  0.00  0.00    +0.000 N 
ATOM      9  C   UNL     1      -0.128   8.609  21.341  0.00  0.00    +0.000 C 
ATOM     10  C   UNL     1      -0.147   9.556  22.566  0.00  0.00    +0.000 C 
ATOM     11  N   UNL     1      -0.193  10.973  22.166  0.00  0.00    +0.000 N 
ATOM     12  C   UNL     1      -1.168  11.810  22.673  0.00  0.00    +0.000 C 
ATOM     13  O   UNL     1      -2.044  11.421  23.450  0.00  0.00    +0.000 OA
ATOM     14  C   UNL     1       0.843  11.365  21.196  0.00  0.00    +0.000 C 
ATOM     15  C   UNL     1       0.808  10.445  19.968  0.00  0.00    +0.000 C 
BRANCH  12  16
ATOM     16  C   UNL     1      -1.166  13.272  22.203  0.00  0.00    +0.000 C 
BRANCH  16  17
ATOM     17  O   UNL     1      -0.443  14.134  23.069  0.00  0.00    +0.000 OA
ATOM     18  H   UNL     1      -0.999  14.931  23.174  0.00  0.00    +0.000 HD
ENDBRANCH  16  17
ENDBRANCH  12  16
ENDBRANCH   4   8
BRANCH   1  21
ATOM     19  C   UNL     1       5.641   4.568  15.902  0.00  0.00    +0.000 C 
ATOM     20  C   UNL     1       4.775   5.791  16.106  0.00  0.00    +0.000 C 
ATOM     21  C   UNL     1       4.130   5.432  17.393  0.00  0.00    +0.000 C 
ATOM     22  N   UNL     1       4.416   4.255  17.848  0.00  0.00    +0.000 NA
ATOM     23  O   UNL     1       5.294   3.635  16.936  0.00  0.00    +0.000 OA
BRANCH  19  24
ATOM     24  C   UNL     1       7.143   4.870  15.994  0.00  0.00    +0.000 C 
BRANCH  24  28
ATOM     25  C   UNL     1       7.850   8.113  17.821  0.00  0.00    +0.000 C 
ATOM     26  C   UNL     1       7.570   6.646  17.660  0.00  0.00    +0.000 C 
ATOM     27  O   UNL     1       7.487   5.883  18.615  0.00  0.00    +0.000 OA
ATOM     28  N   UNL     1       7.451   6.247  16.347  0.00  0.00    +0.000 N 
ATOM     29  H   UNL     1       7.341   6.959  15.635  0.00  0.00    +0.000 HD
ENDBRANCH  24  28
ENDBRANCH  19  24
ENDBRANCH   1  21
TORSDOF 6
ENDMDL
MODEL 6
REMARK VINA RESULT:      -7.7      2.202      3.557
REMARK  Name = 
REMARK  7 active torsions:
REMARK  status: ('A' for Active; 'I' for Inactive)
REMARK    1  A    between atoms: C_1  and  C_2
REMARK    2  A    between atoms: N_4  and  C_5
REMARK    3  A    between atoms: C_5  and  C_6
REMARK    4  A    between atoms: C_8  and  C_9
REMARK    5  A    between atoms: C_12  and  N_13
REMARK    6  A    between atoms: C_17  and  C_19
REMARK    7  A    between atoms: C_19  and  O_20
REMARK                            x       y       z     vdW  Elec       q    Type
REMARK                         _______ _______ _______ _____ _____    ______ ____
ROOT
ATOM      1  C   UNL     1       2.775   6.967  18.639  0.00  0.00    +0.000 A 
ATOM      2  C   UNL     1       2.610   7.935  17.643  0.00  0.00    +0.000 A 
ATOM      3  C   UNL     1       1.882   9.106  17.907  0.00  0.00    +0.000 A 
ATOM      4  C   UNL     1       1.317   9.342  19.166  0.00  0.00    +0.000 A 
ATOM      5  C   UNL     1       1.460   8.319  20.128  0.00  0.00    +0.000 A 
ATOM      6  F   UNL     1       0.877   8.444  21.331  0.00  0.00    +0.000 F 
ATOM      7  C   UNL     1       2.173   7.153  19.880  0.00  0.00    +0.000 A 
ENDROOT
BRANCH   4   8
ATOM      8  N   UNL     1       0.634  10.506  19.472  0.00  0.00    +0.000 N 
ATOM      9  C   UNL     1      -0.814  10.559  19.734  0.00  0.00    +0.000 C 
ATOM     10  C   UNL     1      -1.095  11.666  20.781  0.00  0.00    +0.000 C 
ATOM     11  N   UNL     1      -0.465  12.945  20.413  0.00  0.00    +0.000 N 
ATOM     12  C   UNL     1      -1.218  14.102  20.357  0.00  0.00    +0.000 C 
ATOM     13  O   UNL     1      -2.431  14.122  20.584  0.00  0.00    +0.000 OA
ATOM     14  C   UNL     1       0.970  12.850  20.101  0.00  0.00    +0.000 C 
ATOM     15  C   UNL     1       1.218  11.785  19.024  0.00  0.00    +0.000 C 
BRANCH  12  16
ATOM     16  C   UNL     1      -0.501  15.398  19.953  0.00  0.00    +0.000 C 
BRANCH  16  17
ATOM     17  O   UNL     1      -0.606  15.682  18.565  0.00  0.00    +0.000 OA
ATOM     18  H   UNL     1      -0.708  16.652  18.499  0.00  0.00    +0.000 HD
ENDBRANCH  16  17
ENDBRANCH  12  16
ENDBRANCH   4   8
BRANCH   1  21
ATOM     19  C   UNL     1       5.021   3.998  18.813  0.00  0.00    +0.000 C 
ATOM     20  C   UNL     1       4.571   5.292  19.457  0.00  0.00    +0.000 C 
ATOM     21  C   UNL     1       3.603   5.759  18.435  0.00  0.00    +0.000 C 
ATOM     22  N   UNL     1       3.522   5.027  17.371  0.00  0.00    +0.000 NA
ATOM     23  O   UNL     1       4.426   3.956  17.507  0.00  0.00    +0.000 OA
BRANCH  19  24
ATOM     24  C   UNL     1       4.585   2.752  19.594  0.00  0.00    +0.000 C 
BRANCH  24  28
ATOM     25  C   UNL     1       1.049   2.956  20.942  0.00  0.00    +0.000 C 
ATOM     26  C   UNL     1       2.143   2.640  19.961  0.00  0.00    +0.000 C 
ATOM     27  O   UNL     1       1.921   2.126  18.870  0.00  0.00    +0.000 OA
ATOM     28  N   UNL     1       3.403   2.952  20.419  0.00  0.00    +0.000 N 
ATOM     29  H   UNL     1       3.486   3.542  21.238  0.00  0.00    +0.000 HD
ENDBRANCH  24  28
ENDBRANCH  19  24
ENDBRANCH   1  21
TORSDOF 6
ENDMDL
MODEL 7
REMARK VINA RESULT:      -7.6      1.557      1.929
REMARK  Name = 
REMARK  7 active torsions:
REMARK  status: ('A' for Active; 'I' for Inactive)
REMARK    1  A    between atoms: C_1  and  C_2
REMARK    2  A    between atoms: N_4  and  C_5
REMARK    3  A    between atoms: C_5  and  C_6
REMARK    4  A    between atoms: C_8  and  C_9
REMARK    5  A    between atoms: C_12  and  N_13
REMARK    6  A    between atoms: C_17  and  C_19
REMARK    7  A    between atoms: C_19  and  O_20
REMARK                            x       y       z     vdW  Elec       q    Type
REMARK                         _______ _______ _______ _____ _____    ______ ____
ROOT
ATOM      1  C   UNL     1       2.539   7.135  18.947  0.00  0.00    +0.000 A 
ATOM      2  C   UNL     1       2.328   8.026  17.890  0.00  0.00    +0.000 A 
ATOM      3  C   UNL     1       1.621   9.220  18.101  0.00  0.00    +0.000 A 
ATOM      4  C   UNL     1       1.122   9.556  19.366  0.00  0.00    +0.000 A 
ATOM      5  C   UNL     1       1.310   8.608  20.394  0.00  0.00    +0.000 A 
ATOM      6  F   UNL     1       0.790   8.830  21.612  0.00  0.00    +0.000 F 
ATOM      7  C   UNL     1       2.003   7.420  20.199  0.00  0.00    +0.000 A 
ENDROOT
BRANCH   4   8
ATOM      8  N   UNL     1       0.462  10.746  19.616  0.00  0.00    +0.000 N 
ATOM      9  C   UNL     1      -0.987  10.843  19.854  0.00  0.00    +0.000 C 
ATOM     10  C   UNL     1      -1.257  11.994  20.853  0.00  0.00    +0.000 C 
ATOM     11  N   UNL     1      -0.593  13.245  20.447  0.00  0.00    +0.000 N 
ATOM     12  C   UNL     1      -1.318  14.415  20.335  0.00  0.00    +0.000 C 
ATOM     13  O   UNL     1      -2.533  14.471  20.542  0.00  0.00    +0.000 OA
ATOM     14  C   UNL     1       0.844  13.105  20.161  0.00  0.00    +0.000 C 
ATOM     15  C   UNL     1       1.083  11.994  19.128  0.00  0.00    +0.000 C 
BRANCH  12  16
ATOM     16  C   UNL     1      -0.565  15.678  19.892  0.00  0.00    +0.000 C 
BRANCH  16  17
ATOM     17  O   UNL     1      -0.731  15.969  18.512  0.00  0.00    +0.000 OA
ATOM     18  H   UNL     1      -1.316  16.751  18.474  0.00  0.00    +0.000 HD
ENDBRANCH  16  17
ENDBRANCH  12  16
ENDBRANCH   4   8
BRANCH   1  21
ATOM     19  C   UNL     1       4.716   4.293  17.911  0.00  0.00    +0.000 C 
ATOM     20  C   UNL     1       3.892   5.487  17.479  0.00  0.00    +0.000 C 
ATOM     21  C   UNL     1       3.349   5.907  18.794  0.00  0.00    +0.000 C 
ATOM     22  N   UNL     1       3.649   5.138  19.791  0.00  0.00    +0.000 NA
ATOM     23  O   UNL     1       4.437   4.078  19.303  0.00  0.00    +0.000 OA
BRANCH  19  24
ATOM     24  C   UNL     1       6.226   4.508  17.738  0.00  0.00    +0.000 C 
BRANCH  24  28
ATOM     25  C   UNL     1       7.757   7.973  17.717  0.00  0.00    +0.000 C 
ATOM     26  C   UNL     1       7.335   6.641  17.165  0.00  0.00    +0.000 C 
ATOM     27  O   UNL     1       7.538   6.316  16.001  0.00  0.00    +0.000 OA
ATOM     28  N   UNL     1       6.678   5.848  18.078  0.00  0.00    +0.000 N 
ATOM     29  H   UNL     1       6.720   6.104  19.058  0.00  0.00    +0.000 HD
ENDBRANCH  24  28
ENDBRANCH  19  24
ENDBRANCH   1  21
TORSDOF 6
ENDMDL
MODEL 8
REMARK VINA RESULT:      -7.6      1.736      2.424
REMARK  Name = 
REMARK  7 active torsions:
REMARK  status: ('A' for Active; 'I' for Inactive)
REMARK    1  A    between atoms: C_1  and  C_2
REMARK    2  A    between atoms: N_4  and  C_5
REMARK    3  A    between atoms: C_5  and  C_6
REMARK    4  A    between atoms: C_8  and  C_9
REMARK    5  A    between atoms: C_12  and  N_13
REMARK    6  A    between atoms: C_17  and  C_19
REMARK    7  A    between atoms: C_19  and  O_20
REMARK                            x       y       z     vdW  Elec       q    Type
REMARK                         _______ _______ _______ _____ _____    ______ ____
ROOT
ATOM      1  C   UNL     1       2.855   6.944  18.824  0.00  0.00    +0.000 A 
ATOM      2  C   UNL     1       2.646   7.931  17.855  0.00  0.00    +0.000 A 
ATOM      3  C   UNL     1       1.853   9.052  18.145  0.00  0.00    +0.000 A 
ATOM      4  C   UNL     1       1.266   9.220  19.405  0.00  0.00    +0.000 A 
ATOM      5  C   UNL     1       1.457   8.179  20.338  0.00  0.00    +0.000 A 
ATOM      6  F   UNL     1       0.858   8.237  21.539  0.00  0.00    +0.000 F 
ATOM      7  C   UNL     1       2.233   7.061  20.063  0.00  0.00    +0.000 A 
ENDROOT
BRANCH   4   8
ATOM      8  N   UNL     1       0.518  10.336  19.738  0.00  0.00    +0.000 N 
ATOM      9  C   UNL     1       1.025  11.442  20.566  0.00  0.00    +0.000 C 
ATOM     10  C   UNL     1       0.381  12.766  20.086  0.00  0.00    +0.000 C 
ATOM     11  N   UNL     1      -1.085  12.663  19.988  0.00  0.00    +0.000 N 
ATOM     12  C   UNL     1      -1.893  13.583  20.627  0.00  0.00    +0.000 C 
ATOM     13  O   UNL     1      -1.443  14.504  21.315  0.00  0.00    +0.000 OA
ATOM     14  C   UNL     1      -1.562  11.514  19.201  0.00  0.00    +0.000 C 
ATOM     15  C   UNL     1      -0.952  10.208  19.729  0.00  0.00    +0.000 C 
BRANCH  12  16
ATOM     16  C   UNL     1      -3.413  13.407  20.496  0.00  0.00    +0.000 C 
BRANCH  16  17
ATOM     17  O   UNL     1      -4.098  14.633  20.286  0.00  0.00    +0.000 OA
ATOM     18  H   UNL     1      -4.927  14.399  19.823  0.00  0.00    +0.000 HD
ENDBRANCH  16  17
ENDBRANCH  12  16
ENDBRANCH   4   8
BRANCH   1  21
ATOM     19  C   UNL     1       4.903   4.097  17.565  0.00  0.00    +0.000 C 
ATOM     20  C   UNL     1       3.757   5.050  17.307  0.00  0.00    +0.000 C 
ATOM     21  C   UNL     1       3.748   5.789  18.593  0.00  0.00    +0.000 C 
ATOM     22  N   UNL     1       4.586   5.363  19.483  0.00  0.00    +0.000 NA
ATOM     23  O   UNL     1       5.286   4.270  18.937  0.00  0.00    +0.000 OA
BRANCH  19  24
ATOM     24  C   UNL     1       6.124   4.366  16.674  0.00  0.00    +0.000 C 
BRANCH  24  28
ATOM     25  C   UNL     1       6.387   3.782  12.939  0.00  0.00    +0.000 C 
ATOM     26  C   UNL     1       6.691   4.414  14.268  0.00  0.00    +0.000 C 
ATOM     27  O   UNL     1       7.509   5.317  14.396  0.00  0.00    +0.000 OA
ATOM     28  N   UNL     1       5.990   3.860  15.316  0.00  0.00    +0.000 N 
ATOM     29  H   UNL     1       5.202   3.259  15.105  0.00  0.00    +0.000 HD
ENDBRANCH  24  28
ENDBRANCH  19  24
ENDBRANCH   1  21
TORSDOF 6
ENDMDL
MODEL 9
REMARK VINA RESULT:      -7.6      1.391      2.153
REMARK  Name = 
REMARK  7 active torsions:
REMARK  status: ('A' for Active; 'I' for Inactive)
REMARK    1  A    between atoms: C_1  and  C_2
REMARK    2  A    between atoms: N_4  and  C_5
REMARK    3  A    between atoms: C_5  and  C_6
REMARK    4  A    between atoms: C_8  and  C_9
REMARK    5  A    between atoms: C_12  and  N_13
REMARK    6  A    between atoms: C_17  and  C_19
REMARK    7  A    between atoms: C_19  and  O_20
REMARK                            x       y       z     vdW  Elec       q    Type
REMARK                         _______ _______ _______ _____ _____    ______ ____
ROOT
ATOM      1  C   UNL     1       3.160   6.687  18.306  0.00  0.00    +0.000 A 
ATOM      2  C   UNL     1       2.650   6.556  19.602  0.00  0.00    +0.000 A 
ATOM      3  C   UNL     1       1.853   7.570  20.156  0.00  0.00    +0.000 A 
ATOM      4  C   UNL     1       1.539   8.726  19.430  0.00  0.00    +0.000 A 
ATOM      5  C   UNL     1       2.116   8.845  18.147  0.00  0.00    +0.000 A 
ATOM      6  F   UNL     1       1.920   9.962  17.426  0.00  0.00    +0.000 F 
ATOM      7  C   UNL     1       2.909   7.852  17.588  0.00  0.00    +0.000 A 
ENDROOT
BRANCH   4   8
ATOM      8  N   UNL     1       0.719   9.722  19.929  0.00  0.00    +0.000 N 
ATOM      9  C   UNL     1       0.844  10.279  21.286  0.00  0.00    +0.000 C 
ATOM     10  C   UNL     1       0.448  11.776  21.254  0.00  0.00    +0.000 C 
ATOM     11  N   UNL     1      -0.851  11.989  20.594  0.00  0.00    +0.000 N 
ATOM     12  C   UNL     1      -1.852  12.695  21.233  0.00  0.00    +0.000 C 
ATOM     13  O   UNL     1      -1.722  13.155  22.371  0.00  0.00    +0.000 OA
ATOM     14  C   UNL     1      -0.966  11.371  19.262  0.00  0.00    +0.000 C 
ATOM     15  C   UNL     1      -0.620   9.877  19.329  0.00  0.00    +0.000 C 
BRANCH  12  16
ATOM     16  C   UNL     1      -3.186  12.867  20.494  0.00  0.00    +0.000 C 
BRANCH  16  17
ATOM     17  O   UNL     1      -3.477  14.220  20.178  0.00  0.00    +0.000 OA
ATOM     18  H   UNL     1      -4.418  14.236  19.916  0.00  0.00    +0.000 HD
ENDBRANCH  16  17
ENDBRANCH  12  16
ENDBRANCH   4   8
BRANCH   1  21
ATOM     19  C   UNL     1       5.410   4.505  16.291  0.00  0.00    +0.000 C 
ATOM     20  C   UNL     1       4.768   5.866  16.451  0.00  0.00    +0.000 C 
ATOM     21  C   UNL     1       3.932   5.611  17.650  0.00  0.00    +0.000 C 
ATOM     22  N   UNL     1       3.944   4.392  18.086  0.00  0.00    +0.000 NA
ATOM     23  O   UNL     1       4.785   3.636  17.247  0.00  0.00    +0.000 OA
BRANCH  19  24
ATOM     24  C   UNL     1       6.923   4.517  16.550  0.00  0.00    +0.000 C 
BRANCH  24  28
ATOM     25  C   UNL     1       8.045   5.447  20.047  0.00  0.00    +0.000 C 
ATOM     26  C   UNL     1       7.674   5.663  18.607  0.00  0.00    +0.000 C 
ATOM     27  O   UNL     1       7.694   6.769  18.081  0.00  0.00    +0.000 OA
ATOM     28  N   UNL     1       7.284   4.512  17.959  0.00  0.00    +0.000 N 
ATOM     29  H   UNL     1       7.477   3.621  18.400  0.00  0.00    +0.000 HD
ENDBRANCH  24  28
ENDBRANCH  19  24
ENDBRANCH   1  21
TORSDOF 6
ENDMDL
