MODEL 1
REMARK VINA RESULT:      -6.9      0.000      0.000
REMARK  Name = 
REMARK  12 active torsions:
REMARK  status: ('A' for Active; 'I' for Inactive)
REMARK    1  A    between atoms: C_1  and  C_2
REMARK    2  A    between atoms: C_2  and  N_3
REMARK    3  A    between atoms: C_5  and  C_6
REMARK    4  A    between atoms: C_6  and  N_7
REMARK    5  A    between atoms: N_7  and  C_8
REMARK    6  A    between atoms: C_11  and  N_12
REMARK    7  A    between atoms: C_13  and  O_15
REMARK    8  A    between atoms: O_15  and  C_16
REMARK    9  A    between atoms: C_16  and  C_17
REMARK   10  A    between atoms: C_16  and  C_18
REMARK   11  A    between atoms: C_16  and  C_19
REMARK   12  A    between atoms: C_21  and  C_22
REMARK                            x       y       z     vdW  Elec       q    Type
REMARK                         _______ _______ _______ _____ _____    ______ ____
ROOT
ATOM      1  C   UNL     1       2.902   5.706  18.714  0.00  0.00    +0.000 A 
ATOM      2  C   UNL     1       3.015   6.869  17.947  0.00  0.00    +0.000 A 
ATOM      3  C   UNL     1       2.491   8.087  18.370  0.00  0.00    +0.000 A 
ATOM      4  C   UNL     1       1.802   8.196  19.581  0.00  0.00    +0.000 A 
ATOM      5  C   UNL     1       1.700   7.062  20.373  0.00  0.00    +0.000 A 
ATOM      6  C   UNL     1       2.246   5.823  19.963  0.00  0.00    +0.000 A 
ATOM      7  C   UNL     1       2.058   4.656  20.901  0.00  0.00    +0.000 C 
ENDROOT
BRANCH   4   8
ATOM      8  N   UNL     1       1.219   9.409  20.016  0.00  0.00    +0.000 N 
ATOM      9  C   UNL     1       0.345  10.138  19.242  0.00  0.00    +0.000 C 
ATOM     10  O   UNL     1      -0.040   9.783  18.148  0.00  0.00    +0.000 OA
ATOM     11  H   UNL     1       1.341   9.712  20.970  0.00  0.00    +0.000 HD
BRANCH   9  12
ATOM     12  O   UNL     1      -0.057  11.304  19.832  0.00  0.00    +0.000 OA
BRANCH  12  13
ATOM     13  C   UNL     1       0.535  12.529  19.279  0.00  0.00    +0.000 C 
ATOM     14  C   UNL     1      -0.419  13.202  18.273  0.00  0.00    +0.000 C 
ATOM     15  C   UNL     1       0.810  13.517  20.432  0.00  0.00    +0.000 C 
ATOM     16  C   UNL     1       1.898  12.218  18.635  0.00  0.00    +0.000 C 
ENDBRANCH  12  13
ENDBRANCH   9  12
ENDBRANCH   4   8
BRANCH   1  17
ATOM     17  N   UNL     1       3.391   4.502  18.233  0.00  0.00    +0.000 N 
ATOM     18  H   UNL     1       2.877   4.006  17.517  0.00  0.00    +0.000 HD
BRANCH  17  19
ATOM     19  C   UNL     1       4.764   4.068  18.476  0.00  0.00    +0.000 C 
BRANCH  19  22
ATOM     20  N   UNL     1       6.647   4.527  15.376  0.00  0.00    +0.000 N 
ATOM     21  C   UNL     1       5.516   4.094  16.008  0.00  0.00    +0.000 A 
ATOM     22  C   UNL     1       5.722   4.299  17.357  0.00  0.00    +0.000 A 
ATOM     23  C   UNL     1       7.029   4.845  17.426  0.00  0.00    +0.000 A 
ATOM     24  N   UNL     1       7.594   4.974  16.218  0.00  0.00    +0.000 NA
BRANCH  20  26
ATOM     25  C   UNL     1       5.938   3.662  13.189  0.00  0.00    +0.000 C 
ATOM     26  C   UNL     1       6.862   4.601  13.945  0.00  0.00    +0.000 C 
ENDBRANCH  20  26
ENDBRANCH  19  22
ENDBRANCH  17  19
ENDBRANCH   1  17
TORSDOF 7
ENDMDL
MODEL 2
REMARK VINA RESULT:      -6.9      1.868      2.715
REMARK  Name = 
REMARK  12 active torsions:
REMARK  status: ('A' for Active; 'I' for Inactive)
REMARK    1  A    between atoms: C_1  and  C_2
REMARK    2  A    between atoms: C_2  and  N_3
REMARK    3  A    between atoms: C_5  and  C_6
REMARK    4  A    between atoms: C_6  and  N_7
REMARK    5  A    between atoms: N_7  and  C_8
REMARK    6  A    between atoms: C_11  and  N_12
REMARK    7  A    between atoms: C_13  and  O_15
REMARK    8  A    between atoms: O_15  and  C_16
REMARK    9  A    between atoms: C_16  and  C_17
REMARK   10  A    between atoms: C_16  and  C_18
REMARK   11  A    between atoms: C_16  and  C_19
REMARK   12  A    between atoms: C_21  and  C_22
REMARK                            x       y       z     vdW  Elec       q    Type
REMARK                         _______ _______ _______ _____ _____    ______ ____
ROOT
ATOM      1  C   UNL     1       2.068   4.800  18.761  0.00  0.00    +0.000 A 
ATOM      2  C   UNL     1       2.312   6.038  18.161  0.00  0.00    +0.000 A 
ATOM      3  C   UNL     1       2.249   7.230  18.877  0.00  0.00    +0.000 A 
ATOM      4  C   UNL     1       1.913   7.243  20.232  0.00  0.00    +0.000 A 
ATOM      5  C   UNL     1       1.693   6.026  20.857  0.00  0.00    +0.000 A 
ATOM      6  C   UNL     1       1.774   4.805  20.146  0.00  0.00    +0.000 A 
ATOM      7  C   UNL     1       1.497   3.545  20.930  0.00  0.00    +0.000 C 
ENDROOT
BRANCH   4   8
ATOM      8  N   UNL     1       1.796   8.442  20.975  0.00  0.00    +0.000 N 
ATOM      9  C   UNL     1       0.617   8.850  21.555  0.00  0.00    +0.000 C 
ATOM     10  O   UNL     1      -0.407   8.198  21.527  0.00  0.00    +0.000 OA
ATOM     11  H   UNL     1       2.621   8.977  21.199  0.00  0.00    +0.000 HD
BRANCH   9  12
ATOM     12  O   UNL     1       0.711  10.063  22.178  0.00  0.00    +0.000 OA
BRANCH  12  13
ATOM     13  C   UNL     1       0.174  11.204  21.426  0.00  0.00    +0.000 C 
ATOM     14  C   UNL     1       1.307  12.049  20.814  0.00  0.00    +0.000 C 
ATOM     15  C   UNL     1      -0.716  10.675  20.282  0.00  0.00    +0.000 C 
ATOM     16  C   UNL     1      -0.736  12.056  22.329  0.00  0.00    +0.000 C 
ENDBRANCH  12  13
ENDBRANCH   9  12
ENDBRANCH   4   8
BRANCH   1  17
ATOM     17  N   UNL     1       2.088   3.640  18.004  0.00  0.00    +0.000 N 
ATOM     18  H   UNL     1       1.303   3.422  17.405  0.00  0.00    +0.000 HD
BRANCH  17  19
ATOM     19  C   UNL     1       3.314   2.878  17.781  0.00  0.00    +0.000 C 
BRANCH  19  22
ATOM     20  N   UNL     1       6.443   4.766  17.890  0.00  0.00    +0.000 N 
ATOM     21  C   UNL     1       5.420   4.153  18.555  0.00  0.00    +0.000 A 
ATOM     22  C   UNL     1       4.552   3.687  17.589  0.00  0.00    +0.000 A 
ATOM     23  C   UNL     1       5.146   4.096  16.368  0.00  0.00    +0.000 A 
ATOM     24  N   UNL     1       6.293   4.761  16.555  0.00  0.00    +0.000 NA
BRANCH  20  26
ATOM     25  C   UNL     1       7.763   6.814  18.199  0.00  0.00    +0.000 C 
ATOM     26  C   UNL     1       7.643   5.326  18.479  0.00  0.00    +0.000 C 
ENDBRANCH  20  26
ENDBRANCH  19  22
ENDBRANCH  17  19
ENDBRANCH   1  17
TORSDOF 7
ENDMDL
MODEL 3
REMARK VINA RESULT:      -6.7      2.296      3.675
REMARK  Name = 
REMARK  12 active torsions:
REMARK  status: ('A' for Active; 'I' for Inactive)
REMARK    1  A    between atoms: C_1  and  C_2
REMARK    2  A    between atoms: C_2  and  N_3
REMARK    3  A    between atoms: C_5  and  C_6
REMARK    4  A    between atoms: C_6  and  N_7
REMARK    5  A    between atoms: N_7  and  C_8
REMARK    6  A    between atoms: C_11  and  N_12
REMARK    7  A    between atoms: C_13  and  O_15
REMARK    8  A    between atoms: O_15  and  C_16
REMARK    9  A    between atoms: C_16  and  C_17
REMARK   10  A    between atoms: C_16  and  C_18
REMARK   11  A    between atoms: C_16  and  C_19
REMARK   12  A    between atoms: C_21  and  C_22
REMARK                            x       y       z     vdW  Elec       q    Type
REMARK                         _______ _______ _______ _____ _____    ______ ____
ROOT
ATOM      1  C   UNL     1       1.880   7.636  20.077  0.00  0.00    +0.000 A 
ATOM      2  C   UNL     1       1.116   7.811  21.234  0.00  0.00    +0.000 A 
ATOM      3  C   UNL     1       0.245   8.885  21.389  0.00  0.00    +0.000 A 
ATOM      4  C   UNL     1       0.113   9.858  20.395  0.00  0.00    +0.000 A 
ATOM      5  C   UNL     1       0.840   9.693  19.226  0.00  0.00    +0.000 A 
ATOM      6  C   UNL     1       1.714   8.595  19.049  0.00  0.00    +0.000 A 
ATOM      7  C   UNL     1       2.465   8.531  17.741  0.00  0.00    +0.000 C 
ENDROOT
BRANCH   4   8
ATOM      8  N   UNL     1      -0.729  10.985  20.543  0.00  0.00    +0.000 N 
ATOM      9  C   UNL     1      -0.333  12.136  21.186  0.00  0.00    +0.000 C 
ATOM     10  O   UNL     1       0.782  12.304  21.636  0.00  0.00    +0.000 OA
ATOM     11  H   UNL     1      -1.617  11.016  20.066  0.00  0.00    +0.000 HD
BRANCH   9  12
ATOM     12  O   UNL     1      -1.318  13.080  21.264  0.00  0.00    +0.000 OA
BRANCH  12  13
ATOM     13  C   UNL     1      -2.033  13.143  22.545  0.00  0.00    +0.000 C 
ATOM     14  C   UNL     1      -2.116  11.753  23.204  0.00  0.00    +0.000 C 
ATOM     15  C   UNL     1      -1.275  14.093  23.496  0.00  0.00    +0.000 C 
ATOM     16  C   UNL     1      -3.433  13.751  22.344  0.00  0.00    +0.000 C 
ENDBRANCH  12  13
ENDBRANCH   9  12
ENDBRANCH   4   8
BRANCH   1  17
ATOM     17  N   UNL     1       2.775   6.583  19.983  0.00  0.00    +0.000 N 
ATOM     18  H   UNL     1       3.589   6.566  20.583  0.00  0.00    +0.000 HD
BRANCH  17  19
ATOM     19  C   UNL     1       2.443   5.340  19.291  0.00  0.00    +0.000 C 
BRANCH  19  22
ATOM     20  N   UNL     1       5.263   4.567  17.096  0.00  0.00    +0.000 N 
ATOM     21  C   UNL     1       4.714   5.357  18.065  0.00  0.00    +0.000 A 
ATOM     22  C   UNL     1       3.437   4.878  18.280  0.00  0.00    +0.000 A 
ATOM     23  C   UNL     1       3.315   3.803  17.365  0.00  0.00    +0.000 A 
ATOM     24  N   UNL     1       4.426   3.621  16.638  0.00  0.00    +0.000 NA
BRANCH  20  26
ATOM     25  C   UNL     1       7.631   4.658  17.742  0.00  0.00    +0.000 C 
ATOM     26  C   UNL     1       6.625   4.624  16.604  0.00  0.00    +0.000 C 
ENDBRANCH  20  26
ENDBRANCH  19  22
ENDBRANCH  17  19
ENDBRANCH   1  17
TORSDOF 7
ENDMDL
MODEL 4
REMARK VINA RESULT:      -6.7      3.760      8.665
REMARK  Name = 
REMARK  12 active torsions:
REMARK  status: ('A' for Active; 'I' for Inactive)
REMARK    1  A    between atoms: C_1  and  C_2
REMARK    2  A    between atoms: C_2  and  N_3
REMARK    3  A    between atoms: C_5  and  C_6
REMARK    4  A    between atoms: C_6  and  N_7
REMARK    5  A    between atoms: N_7  and  C_8
REMARK    6  A    between atoms: C_11  and  N_12
REMARK    7  A    between atoms: C_13  and  O_15
REMARK    8  A    between atoms: O_15  and  C_16
REMARK    9  A    between atoms: C_16  and  C_17
REMARK   10  A    between atoms: C_16  and  C_18
REMARK   11  A    between atoms: C_16  and  C_19
REMARK   12  A    between atoms: C_21  and  C_22
REMARK                            x       y       z     vdW  Elec       q    Type
REMARK                         _______ _______ _______ _____ _____    ______ ____
ROOT
ATOM      1  C   UNL     1       0.536   9.971  20.284  0.00  0.00    +0.000 A 
ATOM      2  C   UNL     1       1.274   9.585  19.162  0.00  0.00    +0.000 A 
ATOM      3  C   UNL     1       1.930   8.359  19.095  0.00  0.00    +0.000 A 
ATOM      4  C   UNL     1       1.900   7.464  20.167  0.00  0.00    +0.000 A 
ATOM      5  C   UNL     1       1.152   7.811  21.281  0.00  0.00    +0.000 A 
ATOM      6  C   UNL     1       0.463   9.045  21.353  0.00  0.00    +0.000 A 
ATOM      7  C   UNL     1      -0.303   9.320  22.624  0.00  0.00    +0.000 C 
ENDROOT
BRANCH   4   8
ATOM      8  N   UNL     1       2.594   6.231  20.146  0.00  0.00    +0.000 N 
ATOM      9  C   UNL     1       2.526   5.352  19.089  0.00  0.00    +0.000 C 
ATOM     10  O   UNL     1       1.910   5.576  18.068  0.00  0.00    +0.000 OA
ATOM     11  H   UNL     1       3.264   6.019  20.870  0.00  0.00    +0.000 HD
BRANCH   9  12
ATOM     12  O   UNL     1       3.229   4.198  19.298  0.00  0.00    +0.000 OA
BRANCH  12  13
ATOM     13  C   UNL     1       2.432   3.040  19.721  0.00  0.00    +0.000 C 
ATOM     14  C   UNL     1       2.691   1.825  18.810  0.00  0.00    +0.000 C 
ATOM     15  C   UNL     1       2.823   2.663  21.165  0.00  0.00    +0.000 C 
ATOM     16  C   UNL     1       0.937   3.405  19.754  0.00  0.00    +0.000 C 
ENDBRANCH  12  13
ENDBRANCH   9  12
ENDBRANCH   4   8
BRANCH   1  17
ATOM     17  N   UNL     1      -0.059  11.220  20.333  0.00  0.00    +0.000 N 
ATOM     18  H   UNL     1      -0.120  11.709  21.217  0.00  0.00    +0.000 HD
BRANCH  17  19
ATOM     19  C   UNL     1      -0.318  12.007  19.130  0.00  0.00    +0.000 C 
BRANCH  19  22
ATOM     20  N   UNL     1      -3.334  11.282  17.196  0.00  0.00    +0.000 N 
ATOM     21  C   UNL     1      -1.971  11.332  17.267  0.00  0.00    +0.000 A 
ATOM     22  C   UNL     1      -1.666  11.828  18.519  0.00  0.00    +0.000 A 
ATOM     23  C   UNL     1      -2.932  12.063  19.113  0.00  0.00    +0.000 A 
ATOM     24  N   UNL     1      -3.946  11.738  18.301  0.00  0.00    +0.000 NA
BRANCH  20  26
ATOM     25  C   UNL     1      -3.268  10.451  14.885  0.00  0.00    +0.000 C 
ATOM     26  C   UNL     1      -4.123  10.739  16.108  0.00  0.00    +0.000 C 
ENDBRANCH  20  26
ENDBRANCH  19  22
ENDBRANCH  17  19
ENDBRANCH   1  17
TORSDOF 7
ENDMDL
MODEL 5
REMARK VINA RESULT:      -6.7      0.918      1.192
REMARK  Name = 
REMARK  12 active torsions:
REMARK  status: ('A' for Active; 'I' for Inactive)
REMARK    1  A    between atoms: C_1  and  C_2
REMARK    2  A    between atoms: C_2  and  N_3
REMARK    3  A    between atoms: C_5  and  C_6
REMARK    4  A    between atoms: C_6  and  N_7
REMARK    5  A    between atoms: N_7  and  C_8
REMARK    6  A    between atoms: C_11  and  N_12
REMARK    7  A    between atoms: C_13  and  O_15
REMARK    8  A    between atoms: O_15  and  C_16
REMARK    9  A    between atoms: C_16  and  C_17
REMARK   10  A    between atoms: C_16  and  C_18
REMARK   11  A    between atoms: C_16  and  C_19
REMARK   12  A    between atoms: C_21  and  C_22
REMARK                            x       y       z     vdW  Elec       q    Type
REMARK                         _______ _______ _______ _____ _____    ______ ____
ROOT
ATOM      1  C   UNL     1       2.951   5.749  18.622  0.00  0.00    +0.000 A 
ATOM      2  C   UNL     1       3.208   6.719  17.650  0.00  0.00    +0.000 A 
ATOM      3  C   UNL     1       2.803   8.042  17.801  0.00  0.00    +0.000 A 
ATOM      4  C   UNL     1       2.093   8.456  18.930  0.00  0.00    +0.000 A 
ATOM      5  C   UNL     1       1.849   7.519  19.922  0.00  0.00    +0.000 A 
ATOM      6  C   UNL     1       2.274   6.176  19.790  0.00  0.00    +0.000 A 
ATOM      7  C   UNL     1       1.935   5.243  20.927  0.00  0.00    +0.000 C 
ENDROOT
BRANCH   4   8
ATOM      8  N   UNL     1       1.627   9.783  19.091  0.00  0.00    +0.000 N 
ATOM      9  C   UNL     1       0.487  10.254  18.480  0.00  0.00    +0.000 C 
ATOM     10  O   UNL     1      -0.242   9.565  17.797  0.00  0.00    +0.000 OA
ATOM     11  H   UNL     1       2.065  10.392  19.765  0.00  0.00    +0.000 HD
BRANCH   9  12
ATOM     12  O   UNL     1       0.249  11.577  18.725  0.00  0.00    +0.000 OA
BRANCH  12  13
ATOM     13  C   UNL     1      -0.791  11.859  19.723  0.00  0.00    +0.000 C 
ATOM     14  C   UNL     1      -2.196  11.801  19.092  0.00  0.00    +0.000 C 
ATOM     15  C   UNL     1      -0.712  10.799  20.842  0.00  0.00    +0.000 C 
ATOM     16  C   UNL     1      -0.533  13.221  20.391  0.00  0.00    +0.000 C 
ENDBRANCH  12  13
ENDBRANCH   9  12
ENDBRANCH   4   8
BRANCH   1  17
ATOM     17  N   UNL     1       3.325   4.432  18.412  0.00  0.00    +0.000 N 
ATOM     18  H   UNL     1       2.724   3.824  17.871  0.00  0.00    +0.000 HD
BRANCH  17  19
ATOM     19  C   UNL     1       4.686   3.961  18.657  0.00  0.00    +0.000 C 
BRANCH  19  22
ATOM     20  N   UNL     1       6.648   4.498  15.620  0.00  0.00    +0.000 N 
ATOM     21  C   UNL     1       5.516   4.018  16.215  0.00  0.00    +0.000 A 
ATOM     22  C   UNL     1       5.669   4.232  17.570  0.00  0.00    +0.000 A 
ATOM     23  C   UNL     1       6.949   4.832  17.681  0.00  0.00    +0.000 A 
ATOM     24  N   UNL     1       7.547   4.984  16.492  0.00  0.00    +0.000 NA
BRANCH  20  26
ATOM     25  C   UNL     1       5.889   3.789  13.394  0.00  0.00    +0.000 C 
ATOM     26  C   UNL     1       6.907   4.581  14.196  0.00  0.00    +0.000 C 
ENDBRANCH  20  26
ENDBRANCH  19  22
ENDBRANCH  17  19
ENDBRANCH   1  17
TORSDOF 7
ENDMDL
MODEL 6
REMARK VINA RESULT:      -6.7      2.223      2.773
REMARK  Name = 
REMARK  12 active torsions:
REMARK  status: ('A' for Active; 'I' for Inactive)
REMARK    1  A    between atoms: C_1  and  C_2
REMARK    2  A    between atoms: C_2  and  N_3
REMARK    3  A    between atoms: C_5  and  C_6
REMARK    4  A    between atoms: C_6  and  N_7
REMARK    5  A    between atoms: N_7  and  C_8
REMARK    6  A    between atoms: C_11  and  N_12
REMARK    7  A    between atoms: C_13  and  O_15
REMARK    8  A    between atoms: O_15  and  C_16
REMARK    9  A    between atoms: C_16  and  C_17
REMARK   10  A    between atoms: C_16  and  C_18
REMARK   11  A    between atoms: C_16  and  C_19
REMARK   12  A    between atoms: C_21  and  C_22
REMARK                            x       y       z     vdW  Elec       q    Type
REMARK                         _______ _______ _______ _____ _____    ______ ____
ROOT
ATOM      1  C   UNL     1       2.416   5.709  18.769  0.00  0.00    +0.000 A 
ATOM      2  C   UNL     1       2.369   6.983  18.196  0.00  0.00    +0.000 A 
ATOM      3  C   UNL     1       2.004   8.109  18.928  0.00  0.00    +0.000 A 
ATOM      4  C   UNL     1       1.640   8.010  20.274  0.00  0.00    +0.000 A 
ATOM      5  C   UNL     1       1.705   6.761  20.872  0.00  0.00    +0.000 A 
ATOM      6  C   UNL     1       2.095   5.612  20.144  0.00  0.00    +0.000 A 
ATOM      7  C   UNL     1       2.110   4.305  20.899  0.00  0.00    +0.000 C 
ENDROOT
BRANCH   4   8
ATOM      8  N   UNL     1       1.220   9.129  21.031  0.00  0.00    +0.000 N 
ATOM      9  C   UNL     1       0.024   9.163  21.712  0.00  0.00    +0.000 C 
ATOM     10  O   UNL     1      -0.746   8.227  21.765  0.00  0.00    +0.000 OA
ATOM     11  H   UNL     1       1.854   9.896  21.189  0.00  0.00    +0.000 HD
BRANCH   9  12
ATOM     12  O   UNL     1      -0.211  10.358  22.333  0.00  0.00    +0.000 OA
BRANCH  12  13
ATOM     13  C   UNL     1      -0.658  11.449  21.458  0.00  0.00    +0.000 C 
ATOM     14  C   UNL     1      -1.098  10.912  20.082  0.00  0.00    +0.000 C 
ATOM     15  C   UNL     1      -1.861  12.158  22.115  0.00  0.00    +0.000 C 
ATOM     16  C   UNL     1       0.450  12.507  21.317  0.00  0.00    +0.000 C 
ENDBRANCH  12  13
ENDBRANCH   9  12
ENDBRANCH   4   8
BRANCH   1  17
ATOM     17  N   UNL     1       2.734   4.606  17.994  0.00  0.00    +0.000 N 
ATOM     18  H   UNL     1       2.014   3.935  17.764  0.00  0.00    +0.000 HD
BRANCH  17  19
ATOM     19  C   UNL     1       3.976   4.525  17.229  0.00  0.00    +0.000 C 
BRANCH  19  22
ATOM     20  N   UNL     1       7.021   6.074  18.530  0.00  0.00    +0.000 N 
ATOM     21  C   UNL     1       6.129   5.920  17.508  0.00  0.00    +0.000 A 
ATOM     22  C   UNL     1       5.203   4.991  17.937  0.00  0.00    +0.000 A 
ATOM     23  C   UNL     1       5.651   4.633  19.233  0.00  0.00    +0.000 A 
ATOM     24  N   UNL     1       6.764   5.288  19.589  0.00  0.00    +0.000 NA
BRANCH  20  26
ATOM     25  C   UNL     1       7.885   8.205  17.665  0.00  0.00    +0.000 C 
ATOM     26  C   UNL     1       8.120   7.017  18.582  0.00  0.00    +0.000 C 
ENDBRANCH  20  26
ENDBRANCH  19  22
ENDBRANCH  17  19
ENDBRANCH   1  17
TORSDOF 7
ENDMDL
MODEL 7
REMARK VINA RESULT:      -6.6      3.696      8.684
REMARK  Name = 
REMARK  12 active torsions:
REMARK  status: ('A' for Active; 'I' for Inactive)
REMARK    1  A    between atoms: C_1  and  C_2
REMARK    2  A    between atoms: C_2  and  N_3
REMARK    3  A    between atoms: C_5  and  C_6
REMARK    4  A    between atoms: C_6  and  N_7
REMARK    5  A    between atoms: N_7  and  C_8
REMARK    6  A    between atoms: C_11  and  N_12
REMARK    7  A    between atoms: C_13  and  O_15
REMARK    8  A    between atoms: O_15  and  C_16
REMARK    9  A    between atoms: C_16  and  C_17
REMARK   10  A    between atoms: C_16  and  C_18
REMARK   11  A    between atoms: C_16  and  C_19
REMARK   12  A    between atoms: C_21  and  C_22
REMARK                            x       y       z     vdW  Elec       q    Type
REMARK                         _______ _______ _______ _____ _____    ______ ____
ROOT
ATOM      1  C   UNL     1       0.691  10.006  19.242  0.00  0.00    +0.000 A 
ATOM      2  C   UNL     1       1.344   9.468  18.129  0.00  0.00    +0.000 A 
ATOM      3  C   UNL     1       2.074   8.286  18.201  0.00  0.00    +0.000 A 
ATOM      4  C   UNL     1       2.208   7.591  19.406  0.00  0.00    +0.000 A 
ATOM      5  C   UNL     1       1.547   8.089  20.518  0.00  0.00    +0.000 A 
ATOM      6  C   UNL     1       0.785   9.279  20.453  0.00  0.00    +0.000 A 
ATOM      7  C   UNL     1       0.125   9.732  21.733  0.00  0.00    +0.000 C 
ENDROOT
BRANCH   4   8
ATOM      8  N   UNL     1       2.981   6.412  19.521  0.00  0.00    +0.000 N 
ATOM      9  C   UNL     1       2.679   5.251  18.845  0.00  0.00    +0.000 C 
ATOM     10  O   UNL     1       1.761   5.151  18.058  0.00  0.00    +0.000 OA
ATOM     11  H   UNL     1       3.858   6.431  20.019  0.00  0.00    +0.000 HD
BRANCH   9  12
ATOM     12  O   UNL     1       3.523   4.217  19.141  0.00  0.00    +0.000 OA
BRANCH  12  13
ATOM     13  C   UNL     1       2.938   3.133  19.941  0.00  0.00    +0.000 C 
ATOM     14  C   UNL     1       2.030   3.692  21.054  0.00  0.00    +0.000 C 
ATOM     15  C   UNL     1       2.089   2.233  19.020  0.00  0.00    +0.000 C 
ATOM     16  C   UNL     1       4.050   2.241  20.522  0.00  0.00    +0.000 C 
ENDBRANCH  12  13
ENDBRANCH   9  12
ENDBRANCH   4   8
BRANCH   1  17
ATOM     17  N   UNL     1       0.018  11.212  19.141  0.00  0.00    +0.000 N 
ATOM     18  H   UNL     1       0.379  11.935  18.534  0.00  0.00    +0.000 HD
BRANCH  17  19
ATOM     19  C   UNL     1      -1.353  11.381  19.619  0.00  0.00    +0.000 C 
BRANCH  19  22
ATOM     20  N   UNL     1      -3.524  11.210  16.683  0.00  0.00    +0.000 N 
ATOM     21  C   UNL     1      -2.275  11.107  17.224  0.00  0.00    +0.000 A 
ATOM     22  C   UNL     1      -2.405  11.418  18.563  0.00  0.00    +0.000 A 
ATOM     23  C   UNL     1      -3.783  11.715  18.714  0.00  0.00    +0.000 A 
ATOM     24  N   UNL     1      -4.461  11.596  17.565  0.00  0.00    +0.000 NA
BRANCH  20  26
ATOM     25  C   UNL     1      -2.852  10.035  14.633  0.00  0.00    +0.000 C 
ATOM     26  C   UNL     1      -3.905  10.885  15.323  0.00  0.00    +0.000 C 
ENDBRANCH  20  26
ENDBRANCH  19  22
ENDBRANCH  17  19
ENDBRANCH   1  17
TORSDOF 7
ENDMDL
MODEL 8
REMARK VINA RESULT:      -6.6      2.346      3.721
REMARK  Name = 
REMARK  12 active torsions:
REMARK  status: ('A' for Active; 'I' for Inactive)
REMARK    1  A    between atoms: C_1  and  C_2
REMARK    2  A    between atoms: C_2  and  N_3
REMARK    3  A    between atoms: C_5  and  C_6
REMARK    4  A    between atoms: C_6  and  N_7
REMARK    5  A    between atoms: N_7  and  C_8
REMARK    6  A    between atoms: C_11  and  N_12
REMARK    7  A    between atoms: C_13  and  O_15
REMARK    8  A    between atoms: O_15  and  C_16
REMARK    9  A    between atoms: C_16  and  C_17
REMARK   10  A    between atoms: C_16  and  C_18
REMARK   11  A    between atoms: C_16  and  C_19
REMARK   12  A    between atoms: C_21  and  C_22
REMARK                            x       y       z     vdW  Elec       q    Type
REMARK                         _______ _______ _______ _____ _____    ______ ____
ROOT
ATOM      1  C   UNL     1       1.873   7.771  20.048  0.00  0.00    +0.000 A 
ATOM      2  C   UNL     1       1.155   7.937  21.235  0.00  0.00    +0.000 A 
ATOM      3  C   UNL     1       0.272   8.997  21.422  0.00  0.00    +0.000 A 
ATOM      4  C   UNL     1       0.082   9.963  20.431  0.00  0.00    +0.000 A 
ATOM      5  C   UNL     1       0.763   9.806  19.234  0.00  0.00    +0.000 A 
ATOM      6  C   UNL     1       1.648   8.722  19.024  0.00  0.00    +0.000 A 
ATOM      7  C   UNL     1       2.345   8.666  17.686  0.00  0.00    +0.000 C 
ENDROOT
BRANCH   4   8
ATOM      8  N   UNL     1      -0.773  11.076  20.610  0.00  0.00    +0.000 N 
ATOM      9  C   UNL     1      -0.382  12.222  21.265  0.00  0.00    +0.000 C 
ATOM     10  O   UNL     1       0.738  12.398  21.700  0.00  0.00    +0.000 OA
ATOM     11  H   UNL     1      -1.668  11.102  20.147  0.00  0.00    +0.000 HD
BRANCH   9  12
ATOM     12  O   UNL     1      -1.378  13.151  21.373  0.00  0.00    +0.000 OA
BRANCH  12  13
ATOM     13  C   UNL     1      -2.172  13.086  22.607  0.00  0.00    +0.000 C 
ATOM     14  C   UNL     1      -1.753  14.191  23.596  0.00  0.00    +0.000 C 
ATOM     15  C   UNL     1      -3.662  13.282  22.255  0.00  0.00    +0.000 C 
ATOM     16  C   UNL     1      -2.053  11.691  23.245  0.00  0.00    +0.000 C 
ENDBRANCH  12  13
ENDBRANCH   9  12
ENDBRANCH   4   8
BRANCH   1  17
ATOM     17  N   UNL     1       2.781   6.733  19.920  0.00  0.00    +0.000 N 
ATOM     18  H   UNL     1       3.730   6.858  20.246  0.00  0.00    +0.000 HD
BRANCH  17  19
ATOM     19  C   UNL     1       2.362   5.363  19.633  0.00  0.00    +0.000 C 
BRANCH  19  22
ATOM     20  N   UNL     1       4.403   4.203  16.830  0.00  0.00    +0.000 N 
ATOM     21  C   UNL     1       3.786   5.230  17.485  0.00  0.00    +0.000 A 
ATOM     22  C   UNL     1       3.125   4.667  18.558  0.00  0.00    +0.000 A 
ATOM     23  C   UNL     1       3.396   3.280  18.438  0.00  0.00    +0.000 A 
ATOM     24  N   UNL     1       4.168   2.999  17.380  0.00  0.00    +0.000 NA
BRANCH  20  26
ATOM     25  C   UNL     1       6.750   4.381  16.129  0.00  0.00    +0.000 C 
ATOM     26  C   UNL     1       5.296   4.314  15.695  0.00  0.00    +0.000 C 
ENDBRANCH  20  26
ENDBRANCH  19  22
ENDBRANCH  17  19
ENDBRANCH   1  17
TORSDOF 7
ENDMDL
MODEL 9
REMARK VINA RESULT:      -6.6      1.851      2.648
REMARK  Name = 
REMARK  12 active torsions:
REMARK  status: ('A' for Active; 'I' for Inactive)
REMARK    1  A    between atoms: C_1  and  C_2
REMARK    2  A    between atoms: C_2  and  N_3
REMARK    3  A    between atoms: C_5  and  C_6
REMARK    4  A    between atoms: C_6  and  N_7
REMARK    5  A    between atoms: N_7  and  C_8
REMARK    6  A    between atoms: C_11  and  N_12
REMARK    7  A    between atoms: C_13  and  O_15
REMARK    8  A    between atoms: O_15  and  C_16
REMARK    9  A    between atoms: C_16  and  C_17
REMARK   10  A    between atoms: C_16  and  C_18
REMARK   11  A    between atoms: C_16  and  C_19
REMARK   12  A    between atoms: C_21  and  C_22
REMARK                            x       y       z     vdW  Elec       q    Type
REMARK                         _______ _______ _______ _____ _____    ______ ____
ROOT
ATOM      1  C   UNL     1       2.177   5.056  18.682  0.00  0.00    +0.000 A 
ATOM      2  C   UNL     1       2.374   6.315  18.107  0.00  0.00    +0.000 A 
ATOM      3  C   UNL     1       2.263   7.489  18.846  0.00  0.00    +0.000 A 
ATOM      4  C   UNL     1       1.923   7.462  20.200  0.00  0.00    +0.000 A 
ATOM      5  C   UNL     1       1.749   6.225  20.800  0.00  0.00    +0.000 A 
ATOM      6  C   UNL     1       1.879   5.023  20.065  0.00  0.00    +0.000 A 
ATOM      7  C   UNL     1       1.650   3.737  20.823  0.00  0.00    +0.000 C 
ENDROOT
BRANCH   4   8
ATOM      8  N   UNL     1       1.757   8.641  20.966  0.00  0.00    +0.000 N 
ATOM      9  C   UNL     1       0.568   8.978  21.572  0.00  0.00    +0.000 C 
ATOM     10  O   UNL     1      -0.421   8.275  21.547  0.00  0.00    +0.000 OA
ATOM     11  H   UNL     1       2.557   9.213  21.188  0.00  0.00    +0.000 HD
BRANCH   9  12
ATOM     12  O   UNL     1       0.611  10.182  22.215  0.00  0.00    +0.000 OA
BRANCH  12  13
ATOM     13  C   UNL     1      -0.254  11.229  21.655  0.00  0.00    +0.000 C 
ATOM     14  C   UNL     1      -1.437  11.534  22.594  0.00  0.00    +0.000 C 
ATOM     15  C   UNL     1       0.574  12.519  21.475  0.00  0.00    +0.000 C 
ATOM     16  C   UNL     1      -0.742  10.824  20.253  0.00  0.00    +0.000 C 
ENDBRANCH  12  13
ENDBRANCH   9  12
ENDBRANCH   4   8
BRANCH   1  17
ATOM     17  N   UNL     1       2.245   3.914  17.901  0.00  0.00    +0.000 N 
ATOM     18  H   UNL     1       1.508   3.721  17.236  0.00  0.00    +0.000 HD
BRANCH  17  19
ATOM     19  C   UNL     1       3.476   3.140  17.761  0.00  0.00    +0.000 C 
BRANCH  19  22
ATOM     20  N   UNL     1       6.508   5.165  17.500  0.00  0.00    +0.000 N 
ATOM     21  C   UNL     1       5.448   4.733  18.244  0.00  0.00    +0.000 A 
ATOM     22  C   UNL     1       4.696   3.924  17.415  0.00  0.00    +0.000 A 
ATOM     23  C   UNL     1       5.391   3.957  16.180  0.00  0.00    +0.000 A 
ATOM     24  N   UNL     1       6.490   4.721  16.232  0.00  0.00    +0.000 NA
BRANCH  20  26
ATOM     25  C   UNL     1       7.938   5.685  19.428  0.00  0.00    +0.000 C 
ATOM     26  C   UNL     1       7.624   5.963  17.968  0.00  0.00    +0.000 C 
ENDBRANCH  20  26
ENDBRANCH  19  22
ENDBRANCH  17  19
ENDBRANCH   1  17
TORSDOF 7
ENDMDL
