MODEL 1
REMARK VINA RESULT:      -8.3      0.000      0.000
REMARK  Name = 
REMARK  5 active torsions:
REMARK  status: ('A' for Active; 'I' for Inactive)
REMARK    1  A    between atoms: C_6  and  C_7
REMARK    2  A    between atoms: C_6  and  S_17
REMARK    3  A    between atoms: C_7  and  C_8
REMARK    4  A    between atoms: C_9  and  C_10
REMARK    5  A    between atoms: S_17  and  C_20
REMARK                            x       y       z     vdW  Elec       q    Type
REMARK                         _______ _______ _______ _____ _____    ______ ____
ROOT
ATOM      1  O   UNL     1       1.301   2.578  22.136  0.00  0.00    +0.000 OA
ATOM      2  C   UNL     1       1.897   2.947  21.140  0.00  0.00    +0.000 C 
ATOM      3  N   UNL     1       2.277   2.152  20.117  0.00  0.00    +0.000 N 
ATOM      4  C   UNL     1       2.801   2.724  18.997  0.00  0.00    +0.000 C 
ATOM      5  O   UNL     1       2.999   2.076  17.977  0.00  0.00    +0.000 OA
ATOM      6  C   UNL     1       3.022   4.216  19.156  0.00  0.00    +0.000 C 
ATOM      7  S   UNL     1       2.315   4.607  20.826  0.00  0.00    +0.000 S 
ATOM      8  H   UNL     1       2.043   1.171  20.131  0.00  0.00    +0.000 HD
ENDROOT
BRANCH   6   9
ATOM      9  S   UNL     1       4.813   4.437  19.057  0.00  0.00    +0.000 S 
ATOM     10  O   UNL     1       5.167   5.671  19.740  0.00  0.00    +0.000 OA
ATOM     11  O   UNL     1       5.479   3.197  19.407  0.00  0.00    +0.000 OA
BRANCH   9  12
ATOM     12  C   UNL     1       5.165   4.701  17.323  0.00  0.00    +0.000 A 
ATOM     13  C   UNL     1       5.170   5.997  16.801  0.00  0.00    +0.000 A 
ATOM     14  C   UNL     1       5.395   6.188  15.438  0.00  0.00    +0.000 A 
ATOM     15  C   UNL     1       5.657   5.094  14.611  0.00  0.00    +0.000 A 
ATOM     16  C   UNL     1       5.728   3.810  15.150  0.00  0.00    +0.000 A 
ATOM     17  C   UNL     1       5.488   3.609  16.510  0.00  0.00    +0.000 A 
ENDBRANCH   9  12
ENDBRANCH   6   9
BRANCH   6  18
ATOM     18  C   UNL     1       2.304   4.970  18.032  0.00  0.00    +0.000 C 
BRANCH  18  19
ATOM     19  C   UNL     1       2.109   6.410  18.319  0.00  0.00    +0.000 C 
ATOM     20  C   UNL     1       1.916   7.571  18.560  0.00  0.00    +0.000 C 
BRANCH  20  21
ATOM     21  C   UNL     1       1.623   8.948  18.820  0.00  0.00    +0.000 A 
ATOM     22  C   UNL     1       2.073   9.936  17.939  0.00  0.00    +0.000 A 
ATOM     23  C   UNL     1       1.887  11.287  18.248  0.00  0.00    +0.000 A 
ATOM     24  C   UNL     1       1.248  11.644  19.435  0.00  0.00    +0.000 A 
ATOM     25 CL   UNL     1       1.080  13.305  19.849  0.00  0.00    +0.000 Cl
ATOM     26  C   UNL     1       0.762  10.664  20.300  0.00  0.00    +0.000 A 
ATOM     27  C   UNL     1       0.949   9.312  19.989  0.00  0.00    +0.000 A 
ENDBRANCH  20  21
ENDBRANCH  18  19
ENDBRANCH   6  18
TORSDOF 5
ENDMDL
MODEL 2
REMARK VINA RESULT:      -8.2      2.095      2.902
REMARK  Name = 
REMARK  5 active torsions:
REMARK  status: ('A' for Active; 'I' for Inactive)
REMARK    1  A    between atoms: C_6  and  C_7
REMARK    2  A    between atoms: C_6  and  S_17
REMARK    3  A    between atoms: C_7  and  C_8
REMARK    4  A    between atoms: C_9  and  C_10
REMARK    5  A    between atoms: S_17  and  C_20
REMARK                            x       y       z     vdW  Elec       q    Type
REMARK                         _______ _______ _______ _____ _____    ______ ____
ROOT
ATOM      1  O   UNL     1       1.324   3.666  21.452  0.00  0.00    +0.000 OA
ATOM      2  C   UNL     1       1.799   4.008  20.383  0.00  0.00    +0.000 C 
ATOM      3  N   UNL     1       1.327   3.654  19.168  0.00  0.00    +0.000 N 
ATOM      4  C   UNL     1       1.864   4.232  18.058  0.00  0.00    +0.000 C 
ATOM      5  O   UNL     1       1.364   4.084  16.950  0.00  0.00    +0.000 OA
ATOM      6  C   UNL     1       3.064   5.103  18.379  0.00  0.00    +0.000 C 
ATOM      7  S   UNL     1       3.158   5.085  20.232  0.00  0.00    +0.000 S 
ATOM      8  H   UNL     1       0.499   3.081  19.100  0.00  0.00    +0.000 HD
ENDROOT
BRANCH   6   9
ATOM      9  S   UNL     1       4.462   4.291  17.574  0.00  0.00    +0.000 S 
ATOM     10  O   UNL     1       4.713   3.026  18.244  0.00  0.00    +0.000 OA
ATOM     11  O   UNL     1       4.286   4.326  16.134  0.00  0.00    +0.000 OA
BRANCH   9  12
ATOM     12  C   UNL     1       5.877   5.332  17.913  0.00  0.00    +0.000 A 
ATOM     13  C   UNL     1       6.705   5.050  19.002  0.00  0.00    +0.000 A 
ATOM     14  C   UNL     1       7.776   5.898  19.287  0.00  0.00    +0.000 A 
ATOM     15  C   UNL     1       8.042   6.993  18.464  0.00  0.00    +0.000 A 
ATOM     16  C   UNL     1       7.259   7.225  17.333  0.00  0.00    +0.000 A 
ATOM     17  C   UNL     1       6.177   6.392  17.049  0.00  0.00    +0.000 A 
ENDBRANCH   9  12
ENDBRANCH   6   9
BRANCH   6  18
ATOM     18  C   UNL     1       2.843   6.515  17.825  0.00  0.00    +0.000 C 
BRANCH  18  19
ATOM     19  C   UNL     1       2.220   7.440  18.800  0.00  0.00    +0.000 C 
ATOM     20  C   UNL     1       1.685   8.169  19.591  0.00  0.00    +0.000 C 
BRANCH  20  21
ATOM     21  C   UNL     1       0.988   9.029  20.499  0.00  0.00    +0.000 A 
ATOM     22  C   UNL     1       0.854   8.664  21.842  0.00  0.00    +0.000 A 
ATOM     23  C   UNL     1       0.078   9.444  22.705  0.00  0.00    +0.000 A 
ATOM     24  C   UNL     1      -0.557  10.588  22.222  0.00  0.00    +0.000 A 
ATOM     25 CL   UNL     1      -1.567  11.510  23.265  0.00  0.00    +0.000 Cl
ATOM     26  C   UNL     1      -0.396  10.979  20.893  0.00  0.00    +0.000 A 
ATOM     27  C   UNL     1       0.381  10.197  20.030  0.00  0.00    +0.000 A 
ENDBRANCH  20  21
ENDBRANCH  18  19
ENDBRANCH   6  18
TORSDOF 5
ENDMDL
MODEL 3
REMARK VINA RESULT:      -7.7      1.421      1.939
REMARK  Name = 
REMARK  5 active torsions:
REMARK  status: ('A' for Active; 'I' for Inactive)
REMARK    1  A    between atoms: C_6  and  C_7
REMARK    2  A    between atoms: C_6  and  S_17
REMARK    3  A    between atoms: C_7  and  C_8
REMARK    4  A    between atoms: C_9  and  C_10
REMARK    5  A    between atoms: S_17  and  C_20
REMARK                            x       y       z     vdW  Elec       q    Type
REMARK                         _______ _______ _______ _____ _____    ______ ____
ROOT
ATOM      1  O   UNL     1       0.629   2.903  21.049  0.00  0.00    +0.000 OA
ATOM      2  C   UNL     1       1.414   3.389  20.254  0.00  0.00    +0.000 C 
ATOM      3  N   UNL     1       1.650   2.926  19.007  0.00  0.00    +0.000 N 
ATOM      4  C   UNL     1       2.440   3.656  18.172  0.00  0.00    +0.000 C 
ATOM      5  O   UNL     1       2.548   3.380  16.984  0.00  0.00    +0.000 OA
ATOM      6  C   UNL     1       3.077   4.845  18.866  0.00  0.00    +0.000 C 
ATOM      7  S   UNL     1       2.338   4.829  20.568  0.00  0.00    +0.000 S 
ATOM      8  H   UNL     1       1.134   2.131  18.661  0.00  0.00    +0.000 HD
ENDROOT
BRANCH   6   9
ATOM      9  S   UNL     1       4.851   4.507  18.842  0.00  0.00    +0.000 S 
ATOM     10  O   UNL     1       5.534   5.552  19.587  0.00  0.00    +0.000 OA
ATOM     11  O   UNL     1       5.088   3.112  19.166  0.00  0.00    +0.000 OA
BRANCH   9  12
ATOM     12  C   UNL     1       5.349   4.697  17.134  0.00  0.00    +0.000 A 
ATOM     13  C   UNL     1       5.321   5.959  16.536  0.00  0.00    +0.000 A 
ATOM     14  C   UNL     1       5.663   6.088  15.189  0.00  0.00    +0.000 A 
ATOM     15  C   UNL     1       6.072   4.970  14.459  0.00  0.00    +0.000 A 
ATOM     16  C   UNL     1       6.172   3.726  15.082  0.00  0.00    +0.000 A 
ATOM     17  C   UNL     1       5.818   3.585  16.424  0.00  0.00    +0.000 A 
ENDBRANCH   9  12
ENDBRANCH   6   9
BRANCH   6  18
ATOM     18  C   UNL     1       2.743   6.132  18.104  0.00  0.00    +0.000 C 
BRANCH  18  19
ATOM     19  C   UNL     1       2.145   7.184  18.957  0.00  0.00    +0.000 C 
ATOM     20  C   UNL     1       1.657   8.013  19.676  0.00  0.00    +0.000 C 
BRANCH  20  21
ATOM     21  C   UNL     1       1.033   8.952  20.559  0.00  0.00    +0.000 A 
ATOM     22  C   UNL     1       0.788   8.603  21.890  0.00  0.00    +0.000 A 
ATOM     23  C   UNL     1       0.078   9.474  22.723  0.00  0.00    +0.000 A 
ATOM     24  C   UNL     1      -0.379  10.693  22.222  0.00  0.00    +0.000 A 
ATOM     25 CL   UNL     1      -1.310  11.734  23.225  0.00  0.00    +0.000 Cl
ATOM     26  C   UNL     1      -0.103  11.065  20.906  0.00  0.00    +0.000 A 
ATOM     27  C   UNL     1       0.607  10.192  20.074  0.00  0.00    +0.000 A 
ENDBRANCH  20  21
ENDBRANCH  18  19
ENDBRANCH   6  18
TORSDOF 5
ENDMDL
MODEL 4
REMARK VINA RESULT:      -7.6      1.858      2.510
REMARK  Name = 
REMARK  5 active torsions:
REMARK  status: ('A' for Active; 'I' for Inactive)
REMARK    1  A    between atoms: C_6  and  C_7
REMARK    2  A    between atoms: C_6  and  S_17
REMARK    3  A    between atoms: C_7  and  C_8
REMARK    4  A    between atoms: C_9  and  C_10
REMARK    5  A    between atoms: S_17  and  C_20
REMARK                            x       y       z     vdW  Elec       q    Type
REMARK                         _______ _______ _______ _____ _____    ______ ____
ROOT
ATOM      1  O   UNL     1       1.337   3.283  21.969  0.00  0.00    +0.000 OA
ATOM      2  C   UNL     1       1.683   3.530  20.827  0.00  0.00    +0.000 C 
ATOM      3  N   UNL     1       0.877   3.501  19.743  0.00  0.00    +0.000 N 
ATOM      4  C   UNL     1       1.361   3.947  18.550  0.00  0.00    +0.000 C 
ATOM      5  O   UNL     1       0.631   4.108  17.581  0.00  0.00    +0.000 OA
ATOM      6  C   UNL     1       2.841   4.274  18.609  0.00  0.00    +0.000 C 
ATOM      7  S   UNL     1       3.291   4.036  20.393  0.00  0.00    +0.000 S 
ATOM      8  H   UNL     1      -0.103   3.287  19.852  0.00  0.00    +0.000 HD
ENDROOT
BRANCH   6   9
ATOM      9  S   UNL     1       3.627   3.087  17.498  0.00  0.00    +0.000 S 
ATOM     10  O   UNL     1       4.117   1.968  18.285  0.00  0.00    +0.000 OA
ATOM     11  O   UNL     1       2.770   2.847  16.351  0.00  0.00    +0.000 OA
BRANCH   9  12
ATOM     12  C   UNL     1       5.072   3.922  16.854  0.00  0.00    +0.000 A 
ATOM     13  C   UNL     1       5.144   4.245  15.496  0.00  0.00    +0.000 A 
ATOM     14  C   UNL     1       6.297   4.850  14.995  0.00  0.00    +0.000 A 
ATOM     15  C   UNL     1       7.351   5.170  15.853  0.00  0.00    +0.000 A 
ATOM     16  C   UNL     1       7.242   4.916  17.220  0.00  0.00    +0.000 A 
ATOM     17  C   UNL     1       6.099   4.297  17.727  0.00  0.00    +0.000 A 
ENDBRANCH   9  12
ENDBRANCH   6   9
BRANCH   6  18
ATOM     18  C   UNL     1       3.074   5.715  18.142  0.00  0.00    +0.000 C 
BRANCH  18  19
ATOM     19  C   UNL     1       2.467   6.729  19.035  0.00  0.00    +0.000 C 
ATOM     20  C   UNL     1       1.943   7.546  19.743  0.00  0.00    +0.000 C 
BRANCH  20  21
ATOM     21  C   UNL     1       1.280   8.540  20.532  0.00  0.00    +0.000 A 
ATOM     22  C   UNL     1       1.260   8.427  21.925  0.00  0.00    +0.000 A 
ATOM     23  C   UNL     1       0.519   9.332  22.690  0.00  0.00    +0.000 A 
ATOM     24  C   UNL     1      -0.196  10.350  22.059  0.00  0.00    +0.000 A 
ATOM     25 CL   UNL     1      -1.162  11.423  22.994  0.00  0.00    +0.000 Cl
ATOM     26  C   UNL     1      -0.148  10.493  20.672  0.00  0.00    +0.000 A 
ATOM     27  C   UNL     1       0.594   9.586  19.908  0.00  0.00    +0.000 A 
ENDBRANCH  20  21
ENDBRANCH  18  19
ENDBRANCH   6  18
TORSDOF 5
ENDMDL
MODEL 5
REMARK VINA RESULT:      -7.5      1.205      1.768
REMARK  Name = 
REMARK  5 active torsions:
REMARK  status: ('A' for Active; 'I' for Inactive)
REMARK    1  A    between atoms: C_6  and  C_7
REMARK    2  A    between atoms: C_6  and  S_17
REMARK    3  A    between atoms: C_7  and  C_8
REMARK    4  A    between atoms: C_9  and  C_10
REMARK    5  A    between atoms: S_17  and  C_20
REMARK                            x       y       z     vdW  Elec       q    Type
REMARK                         _______ _______ _______ _____ _____    ______ ____
ROOT
ATOM      1  O   UNL     1       1.165   2.687  21.922  0.00  0.00    +0.000 OA
ATOM      2  C   UNL     1       1.799   3.152  20.991  0.00  0.00    +0.000 C 
ATOM      3  N   UNL     1       1.956   2.567  19.784  0.00  0.00    +0.000 N 
ATOM      4  C   UNL     1       2.562   3.269  18.786  0.00  0.00    +0.000 C 
ATOM      5  O   UNL     1       2.576   2.863  17.631  0.00  0.00    +0.000 OA
ATOM      6  C   UNL     1       3.122   4.595  19.265  0.00  0.00    +0.000 C 
ATOM      7  S   UNL     1       2.573   4.710  21.034  0.00  0.00    +0.000 S 
ATOM      8  H   UNL     1       1.505   1.686  19.591  0.00  0.00    +0.000 HD
ENDROOT
BRANCH   6   9
ATOM      9  S   UNL     1       4.911   4.446  19.068  0.00  0.00    +0.000 S 
ATOM     10  O   UNL     1       5.550   5.539  19.784  0.00  0.00    +0.000 OA
ATOM     11  O   UNL     1       5.320   3.077  19.321  0.00  0.00    +0.000 OA
BRANCH   9  12
ATOM     12  C   UNL     1       5.225   4.730  17.330  0.00  0.00    +0.000 A 
ATOM     13  C   UNL     1       5.561   3.660  16.498  0.00  0.00    +0.000 A 
ATOM     14  C   UNL     1       5.854   3.900  15.155  0.00  0.00    +0.000 A 
ATOM     15  C   UNL     1       5.767   5.194  14.639  0.00  0.00    +0.000 A 
ATOM     16  C   UNL     1       5.355   6.247  15.456  0.00  0.00    +0.000 A 
ATOM     17  C   UNL     1       5.076   6.019  16.803  0.00  0.00    +0.000 A 
ENDBRANCH   9  12
ENDBRANCH   6   9
BRANCH   6  18
ATOM     18  C   UNL     1       2.559   5.736  18.410  0.00  0.00    +0.000 C 
BRANCH  18  19
ATOM     19  C   UNL     1       1.979   6.840  19.209  0.00  0.00    +0.000 C 
ATOM     20  C   UNL     1       1.475   7.728  19.842  0.00  0.00    +0.000 C 
BRANCH  20  21
ATOM     21  C   UNL     1       0.835   8.801  20.541  0.00  0.00    +0.000 A 
ATOM     22  C   UNL     1       0.476   9.965  19.856  0.00  0.00    +0.000 A 
ATOM     23  C   UNL     1      -0.044  11.057  20.558  0.00  0.00    +0.000 A 
ATOM     24  C   UNL     1      -0.207  10.979  21.941  0.00  0.00    +0.000 A 
ATOM     25 CL   UNL     1      -0.782  12.345  22.813  0.00  0.00    +0.000 Cl
ATOM     26  C   UNL     1       0.112   9.806  22.625  0.00  0.00    +0.000 A 
ATOM     27  C   UNL     1       0.634   8.714  21.922  0.00  0.00    +0.000 A 
ENDBRANCH  20  21
ENDBRANCH  18  19
ENDBRANCH   6  18
TORSDOF 5
ENDMDL
MODEL 6
REMARK VINA RESULT:      -7.5      1.506      1.971
REMARK  Name = 
REMARK  5 active torsions:
REMARK  status: ('A' for Active; 'I' for Inactive)
REMARK    1  A    between atoms: C_6  and  C_7
REMARK    2  A    between atoms: C_6  and  S_17
REMARK    3  A    between atoms: C_7  and  C_8
REMARK    4  A    between atoms: C_9  and  C_10
REMARK    5  A    between atoms: S_17  and  C_20
REMARK                            x       y       z     vdW  Elec       q    Type
REMARK                         _______ _______ _______ _____ _____    ______ ____
ROOT
ATOM      1  O   UNL     1       0.634   4.014  20.972  0.00  0.00    +0.000 OA
ATOM      2  C   UNL     1       1.455   4.114  20.077  0.00  0.00    +0.000 C 
ATOM      3  N   UNL     1       1.311   3.627  18.826  0.00  0.00    +0.000 N 
ATOM      4  C   UNL     1       2.241   3.945  17.884  0.00  0.00    +0.000 C 
ATOM      5  O   UNL     1       2.074   3.681  16.700  0.00  0.00    +0.000 OA
ATOM      6  C   UNL     1       3.421   4.703  18.464  0.00  0.00    +0.000 C 
ATOM      7  S   UNL     1       2.958   4.977  20.240  0.00  0.00    +0.000 S 
ATOM      8  H   UNL     1       0.456   3.158  18.566  0.00  0.00    +0.000 HD
ENDROOT
BRANCH   6   9
ATOM      9  S   UNL     1       4.837   3.603  18.245  0.00  0.00    +0.000 S 
ATOM     10  O   UNL     1       5.786   3.848  19.319  0.00  0.00    +0.000 OA
ATOM     11  O   UNL     1       4.374   2.254  17.980  0.00  0.00    +0.000 OA
BRANCH   9  12
ATOM     12  C   UNL     1       5.632   4.146  16.736  0.00  0.00    +0.000 A 
ATOM     13  C   UNL     1       5.077   3.815  15.497  0.00  0.00    +0.000 A 
ATOM     14  C   UNL     1       5.732   4.199  14.327  0.00  0.00    +0.000 A 
ATOM     15  C   UNL     1       6.909   4.946  14.396  0.00  0.00    +0.000 A 
ATOM     16  C   UNL     1       7.417   5.340  15.634  0.00  0.00    +0.000 A 
ATOM     17  C   UNL     1       6.777   4.947  16.809  0.00  0.00    +0.000 A 
ENDBRANCH   9  12
ENDBRANCH   6   9
BRANCH   6  18
ATOM     18  C   UNL     1       3.614   6.021  17.707  0.00  0.00    +0.000 C 
BRANCH  18  19
ATOM     19  C   UNL     1       2.779   7.128  18.228  0.00  0.00    +0.000 C 
ATOM     20  C   UNL     1       2.073   8.010  18.633  0.00  0.00    +0.000 C 
BRANCH  20  21
ATOM     21  C   UNL     1       1.198   9.063  19.055  0.00  0.00    +0.000 A 
ATOM     22  C   UNL     1       0.907   9.227  20.412  0.00  0.00    +0.000 A 
ATOM     23  C   UNL     1      -0.034  10.179  20.816  0.00  0.00    +0.000 A 
ATOM     24  C   UNL     1      -0.676  10.967  19.861  0.00  0.00    +0.000 A 
ATOM     25 CL   UNL     1      -1.882  12.091  20.350  0.00  0.00    +0.000 Cl
ATOM     26  C   UNL     1      -0.361  10.837  18.508  0.00  0.00    +0.000 A 
ATOM     27  C   UNL     1       0.581   9.882  18.106  0.00  0.00    +0.000 A 
ENDBRANCH  20  21
ENDBRANCH  18  19
ENDBRANCH   6  18
TORSDOF 5
ENDMDL
MODEL 7
REMARK VINA RESULT:      -7.4      1.448      1.601
REMARK  Name = 
REMARK  5 active torsions:
REMARK  status: ('A' for Active; 'I' for Inactive)
REMARK    1  A    between atoms: C_6  and  C_7
REMARK    2  A    between atoms: C_6  and  S_17
REMARK    3  A    between atoms: C_7  and  C_8
REMARK    4  A    between atoms: C_9  and  C_10
REMARK    5  A    between atoms: S_17  and  C_20
REMARK                            x       y       z     vdW  Elec       q    Type
REMARK                         _______ _______ _______ _____ _____    ______ ____
ROOT
ATOM      1  O   UNL     1       0.462   3.973  20.719  0.00  0.00    +0.000 OA
ATOM      2  C   UNL     1       1.334   4.081  19.875  0.00  0.00    +0.000 C 
ATOM      3  N   UNL     1       1.268   3.597  18.616  0.00  0.00    +0.000 N 
ATOM      4  C   UNL     1       2.252   3.922  17.732  0.00  0.00    +0.000 C 
ATOM      5  O   UNL     1       2.158   3.660  16.540  0.00  0.00    +0.000 OA
ATOM      6  C   UNL     1       3.390   4.685  18.384  0.00  0.00    +0.000 C 
ATOM      7  S   UNL     1       2.820   4.951  20.130  0.00  0.00    +0.000 S 
ATOM      8  H   UNL     1       0.433   3.123  18.304  0.00  0.00    +0.000 HD
ENDROOT
BRANCH   6   9
ATOM      9  S   UNL     1       4.823   3.594  18.248  0.00  0.00    +0.000 S 
ATOM     10  O   UNL     1       5.729   3.877  19.350  0.00  0.00    +0.000 OA
ATOM     11  O   UNL     1       4.382   2.233  18.003  0.00  0.00    +0.000 OA
BRANCH   9  12
ATOM     12  C   UNL     1       5.669   4.102  16.756  0.00  0.00    +0.000 A 
ATOM     13  C   UNL     1       6.794   4.926  16.838  0.00  0.00    +0.000 A 
ATOM     14  C   UNL     1       7.416   5.358  15.666  0.00  0.00    +0.000 A 
ATOM     15  C   UNL     1       6.942   4.934  14.424  0.00  0.00    +0.000 A 
ATOM     16  C   UNL     1       5.865   4.050  14.350  0.00  0.00    +0.000 A 
ATOM     17  C   UNL     1       5.229   3.625  15.516  0.00  0.00    +0.000 A 
ENDBRANCH   9  12
ENDBRANCH   6   9
BRANCH   6  18
ATOM     18  C   UNL     1       3.621   6.006  17.644  0.00  0.00    +0.000 C 
BRANCH  18  19
ATOM     19  C   UNL     1       2.810   7.127  18.172  0.00  0.00    +0.000 C 
ATOM     20  C   UNL     1       2.126   8.012  18.609  0.00  0.00    +0.000 C 
BRANCH  20  21
ATOM     21  C   UNL     1       1.255   9.036  19.103  0.00  0.00    +0.000 A 
ATOM     22  C   UNL     1       0.706   9.972  18.222  0.00  0.00    +0.000 A 
ATOM     23  C   UNL     1      -0.052  11.038  18.716  0.00  0.00    +0.000 A 
ATOM     24  C   UNL     1      -0.262  11.161  20.089  0.00  0.00    +0.000 A 
ATOM     25 CL   UNL     1      -1.136  12.508  20.704  0.00  0.00    +0.000 Cl
ATOM     26  C   UNL     1       0.249  10.208  20.971  0.00  0.00    +0.000 A 
ATOM     27  C   UNL     1       1.008   9.142  20.475  0.00  0.00    +0.000 A 
ENDBRANCH  20  21
ENDBRANCH  18  19
ENDBRANCH   6  18
TORSDOF 5
ENDMDL
MODEL 8
REMARK VINA RESULT:      -7.4      1.598      1.857
REMARK  Name = 
REMARK  5 active torsions:
REMARK  status: ('A' for Active; 'I' for Inactive)
REMARK    1  A    between atoms: C_6  and  C_7
REMARK    2  A    between atoms: C_6  and  S_17
REMARK    3  A    between atoms: C_7  and  C_8
REMARK    4  A    between atoms: C_9  and  C_10
REMARK    5  A    between atoms: S_17  and  C_20
REMARK                            x       y       z     vdW  Elec       q    Type
REMARK                         _______ _______ _______ _____ _____    ______ ____
ROOT
ATOM      1  O   UNL     1       0.631   4.293  20.803  0.00  0.00    +0.000 OA
ATOM      2  C   UNL     1       1.545   4.465  20.016  0.00  0.00    +0.000 C 
ATOM      3  N   UNL     1       1.720   3.788  18.861  0.00  0.00    +0.000 N 
ATOM      4  C   UNL     1       2.700   4.189  18.004  0.00  0.00    +0.000 C 
ATOM      5  O   UNL     1       2.793   3.730  16.873  0.00  0.00    +0.000 OA
ATOM      6  C   UNL     1       3.571   5.286  18.588  0.00  0.00    +0.000 C 
ATOM      7  S   UNL     1       2.773   5.683  20.216  0.00  0.00    +0.000 S 
ATOM      8  H   UNL     1       1.046   3.093  18.580  0.00  0.00    +0.000 HD
ENDROOT
BRANCH   6   9
ATOM      9  S   UNL     1       5.211   4.546  18.746  0.00  0.00    +0.000 S 
ATOM     10  O   UNL     1       6.019   5.389  19.613  0.00  0.00    +0.000 OA
ATOM     11  O   UNL     1       5.085   3.128  19.027  0.00  0.00    +0.000 OA
BRANCH   9  12
ATOM     12  C   UNL     1       5.941   4.653  17.116  0.00  0.00    +0.000 A 
ATOM     13  C   UNL     1       6.887   5.642  16.839  0.00  0.00    +0.000 A 
ATOM     14  C   UNL     1       7.412   5.748  15.550  0.00  0.00    +0.000 A 
ATOM     15  C   UNL     1       7.026   4.844  14.560  0.00  0.00    +0.000 A 
ATOM     16  C   UNL     1       6.139   3.810  14.862  0.00  0.00    +0.000 A 
ATOM     17  C   UNL     1       5.598   3.706  16.144  0.00  0.00    +0.000 A 
ENDBRANCH   9  12
ENDBRANCH   6   9
BRANCH   6  18
ATOM     18  C   UNL     1       3.591   6.492  17.645  0.00  0.00    +0.000 C 
BRANCH  18  19
ATOM     19  C   UNL     1       2.683   7.585  18.065  0.00  0.00    +0.000 C 
ATOM     20  C   UNL     1       1.924   8.445  18.420  0.00  0.00    +0.000 C 
BRANCH  20  21
ATOM     21  C   UNL     1       0.966   9.430  18.824  0.00  0.00    +0.000 A 
ATOM     22  C   UNL     1       0.935   9.871  20.150  0.00  0.00    +0.000 A 
ATOM     23  C   UNL     1      -0.071  10.747  20.572  0.00  0.00    +0.000 A 
ATOM     24  C   UNL     1      -1.037  11.181  19.666  0.00  0.00    +0.000 A 
ATOM     25 CL   UNL     1      -2.313  12.203  20.200  0.00  0.00    +0.000 Cl
ATOM     26  C   UNL     1      -0.989  10.776  18.332  0.00  0.00    +0.000 A 
ATOM     27  C   UNL     1       0.018   9.899  17.911  0.00  0.00    +0.000 A 
ENDBRANCH  20  21
ENDBRANCH  18  19
ENDBRANCH   6  18
TORSDOF 5
ENDMDL
MODEL 9
REMARK VINA RESULT:      -7.3      1.578      1.951
REMARK  Name = 
REMARK  5 active torsions:
REMARK  status: ('A' for Active; 'I' for Inactive)
REMARK    1  A    between atoms: C_6  and  C_7
REMARK    2  A    between atoms: C_6  and  S_17
REMARK    3  A    between atoms: C_7  and  C_8
REMARK    4  A    between atoms: C_9  and  C_10
REMARK    5  A    between atoms: S_17  and  C_20
REMARK                            x       y       z     vdW  Elec       q    Type
REMARK                         _______ _______ _______ _____ _____    ______ ____
ROOT
ATOM      1  O   UNL     1       0.684   3.389  21.584  0.00  0.00    +0.000 OA
ATOM      2  C   UNL     1       1.398   3.592  20.618  0.00  0.00    +0.000 C 
ATOM      3  N   UNL     1       1.087   3.292  19.338  0.00  0.00    +0.000 N 
ATOM      4  C   UNL     1       1.915   3.713  18.342  0.00  0.00    +0.000 C 
ATOM      5  O   UNL     1       1.599   3.624  17.163  0.00  0.00    +0.000 OA
ATOM      6  C   UNL     1       3.187   4.347  18.872  0.00  0.00    +0.000 C 
ATOM      7  S   UNL     1       2.947   4.380  20.712  0.00  0.00    +0.000 S 
ATOM      8  H   UNL     1       0.188   2.888  19.123  0.00  0.00    +0.000 HD
ENDROOT
BRANCH   6   9
ATOM      9  S   UNL     1       4.517   3.249  18.334  0.00  0.00    +0.000 S 
ATOM     10  O   UNL     1       5.433   3.050  19.444  0.00  0.00    +0.000 OA
ATOM     11  O   UNL     1       3.956   2.104  17.641  0.00  0.00    +0.000 OA
BRANCH   9  12
ATOM     12  C   UNL     1       5.420   4.169  17.093  0.00  0.00    +0.000 A 
ATOM     13  C   UNL     1       6.531   4.932  17.462  0.00  0.00    +0.000 A 
ATOM     14  C   UNL     1       7.198   5.685  16.496  0.00  0.00    +0.000 A 
ATOM     15  C   UNL     1       6.783   5.642  15.163  0.00  0.00    +0.000 A 
ATOM     16  C   UNL     1       5.721   4.819  14.787  0.00  0.00    +0.000 A 
ATOM     17  C   UNL     1       5.040   4.074  15.750  0.00  0.00    +0.000 A 
ENDBRANCH   9  12
ENDBRANCH   6   9
BRANCH   6  18
ATOM     18  C   UNL     1       3.351   5.753  18.286  0.00  0.00    +0.000 C 
BRANCH  18  19
ATOM     19  C   UNL     1       2.606   6.793  19.032  0.00  0.00    +0.000 C 
ATOM     20  C   UNL     1       1.986   7.610  19.658  0.00  0.00    +0.000 C 
BRANCH  20  21
ATOM     21  C   UNL     1       1.194   8.541  20.404  0.00  0.00    +0.000 A 
ATOM     22  C   UNL     1       0.657   9.665  19.772  0.00  0.00    +0.000 A 
ATOM     23  C   UNL     1      -0.020  10.633  20.522  0.00  0.00    +0.000 A 
ATOM     24  C   UNL     1      -0.160  10.469  21.899  0.00  0.00    +0.000 A 
ATOM     25 CL   UNL     1      -0.932  11.690  22.832  0.00  0.00    +0.000 Cl
ATOM     26  C   UNL     1       0.338   9.329  22.531  0.00  0.00    +0.000 A 
ATOM     27  C   UNL     1       1.016   8.362  21.779  0.00  0.00    +0.000 A 
ENDBRANCH  20  21
ENDBRANCH  18  19
ENDBRANCH   6  18
TORSDOF 5
ENDMDL
