MODEL 1
REMARK VINA RESULT:      -9.2      0.000      0.000
REMARK  Name = 
REMARK  5 active torsions:
REMARK  status: ('A' for Active; 'I' for Inactive)
REMARK    1  A    between atoms: C_2  and  C_3
REMARK    2  A    between atoms: C_7  and  C_8
REMARK    3  A    between atoms: C_8  and  N_9
REMARK    4  A    between atoms: C_12  and  C_13
REMARK    5  A    between atoms: C_25  and  O_26
REMARK                            x       y       z     vdW  Elec       q    Type
REMARK                         _______ _______ _______ _____ _____    ______ ____
ROOT
ATOM      1  N   UNL     1       3.336   6.254  18.145  0.00  0.00    +0.000 N 
ATOM      2  C   UNL     1       2.721   7.497  18.076  0.00  0.00    +0.000 A 
ATOM      3  O   UNL     1       2.844   8.232  17.093  0.00  0.00    +0.000 OA
ATOM      4  C   UNL     1       1.896   7.956  19.241  0.00  0.00    +0.000 A 
ATOM      5  C   UNL     1       1.563   7.041  20.182  0.00  0.00    +0.000 A 
ATOM      6  C   UNL     1       2.081   5.654  20.141  0.00  0.00    +0.000 A 
ATOM      7  C   UNL     1       1.677   4.689  21.082  0.00  0.00    +0.000 A 
ATOM      8  C   UNL     1       2.216   3.405  21.052  0.00  0.00    +0.000 A 
ATOM      9  F   UNL     1       1.818   2.492  21.947  0.00  0.00    +0.000 F 
ATOM     10  C   UNL     1       3.166   3.058  20.108  0.00  0.00    +0.000 A 
ATOM     11  C   UNL     1       3.564   4.002  19.162  0.00  0.00    +0.000 A 
ATOM     12  C   UNL     1       3.016   5.301  19.153  0.00  0.00    +0.000 A 
ENDROOT
BRANCH   4  13
ATOM     13  C   UNL     1       1.355   9.327  19.160  0.00  0.00    +0.000 C 
ATOM     14  C   UNL     1       1.434  10.049  20.292  0.00  0.00    +0.000 C 
ATOM     15  S   UNL     1       0.863  11.658  20.216  0.00  0.00    +0.000 S 
ATOM     16  O   UNL     1       0.566  12.116  21.558  0.00  0.00    +0.000 OA
ATOM     17  O   UNL     1       1.736  12.422  19.341  0.00  0.00    +0.000 OA
ATOM     18  C   UNL     1      -0.642  11.406  19.363  0.00  0.00    +0.000 A 
ATOM     19  C   UNL     1      -1.827  11.990  19.801  0.00  0.00    +0.000 A 
ATOM     20  C   UNL     1      -2.978  11.800  19.049  0.00  0.00    +0.000 A 
ATOM     21  C   UNL     1      -2.903  11.099  17.840  0.00  0.00    +0.000 A 
ATOM     22  C   UNL     1      -1.703  10.482  17.435  0.00  0.00    +0.000 A 
ATOM     23  C   UNL     1      -0.576  10.546  18.260  0.00  0.00    +0.000 A 
ATOM     24  N   UNL     1       0.577   9.723  18.043  0.00  0.00    +0.000 N 
ATOM     25  H   UNL     1       1.144  10.116  17.285  0.00  0.00    +0.000 HD
ENDBRANCH   4  13
BRANCH   5  26
ATOM     26  O   UNL     1       0.717   7.293  21.249  0.00  0.00    +0.000 OA
ATOM     27  H   UNL     1       0.323   6.468  21.578  0.00  0.00    +0.000 HD
ENDBRANCH   5  26
BRANCH   1  28
ATOM     28  C   UNL     1       4.351   5.987  17.133  0.00  0.00    +0.000 C 
BRANCH  28  33
ATOM     29  C   UNL     1       7.627   7.751  18.046  0.00  0.00    +0.000 A 
ATOM     30  C   UNL     1       8.352   6.696  18.607  0.00  0.00    +0.000 A 
ATOM     31  C   UNL     1       7.779   5.427  18.713  0.00  0.00    +0.000 A 
ATOM     32  C   UNL     1       6.482   5.199  18.247  0.00  0.00    +0.000 A 
ATOM     33  C   UNL     1       5.746   6.238  17.669  0.00  0.00    +0.000 A 
ATOM     34  C   UNL     1       6.329   7.516  17.580  0.00  0.00    +0.000 A 
BRANCH  29  36
ATOM     35  N   UNL     1       8.663  10.128  17.871  0.00  0.00    +0.000 NA
ATOM     36  C   UNL     1       8.198   9.062  17.945  0.00  0.00    +0.000 C 
ENDBRANCH  29  36
ENDBRANCH  28  33
ENDBRANCH   1  28
TORSDOF 5
ENDMDL
MODEL 2
REMARK VINA RESULT:      -8.9      1.105      1.518
REMARK  Name = 
REMARK  5 active torsions:
REMARK  status: ('A' for Active; 'I' for Inactive)
REMARK    1  A    between atoms: C_2  and  C_3
REMARK    2  A    between atoms: C_7  and  C_8
REMARK    3  A    between atoms: C_8  and  N_9
REMARK    4  A    between atoms: C_12  and  C_13
REMARK    5  A    between atoms: C_25  and  O_26
REMARK                            x       y       z     vdW  Elec       q    Type
REMARK                         _______ _______ _______ _____ _____    ______ ____
ROOT
ATOM      1  N   UNL     1       3.317   6.152  18.163  0.00  0.00    +0.000 N 
ATOM      2  C   UNL     1       2.713   7.400  18.093  0.00  0.00    +0.000 A 
ATOM      3  O   UNL     1       2.831   8.129  17.105  0.00  0.00    +0.000 OA
ATOM      4  C   UNL     1       1.906   7.873  19.265  0.00  0.00    +0.000 A 
ATOM      5  C   UNL     1       1.575   6.967  20.216  0.00  0.00    +0.000 A 
ATOM      6  C   UNL     1       2.080   5.575  20.177  0.00  0.00    +0.000 A 
ATOM      7  C   UNL     1       1.678   4.619  21.128  0.00  0.00    +0.000 A 
ATOM      8  C   UNL     1       2.204   3.330  21.099  0.00  0.00    +0.000 A 
ATOM      9  F   UNL     1       1.809   2.426  22.004  0.00  0.00    +0.000 F 
ATOM     10  C   UNL     1       3.140   2.969  20.146  0.00  0.00    +0.000 A 
ATOM     11  C   UNL     1       3.536   3.904  19.190  0.00  0.00    +0.000 A 
ATOM     12  C   UNL     1       3.000   5.207  19.180  0.00  0.00    +0.000 A 
ENDROOT
BRANCH   4  13
ATOM     13  C   UNL     1       1.376   9.249  19.183  0.00  0.00    +0.000 C 
ATOM     14  C   UNL     1       1.455   9.969  20.316  0.00  0.00    +0.000 C 
ATOM     15  S   UNL     1       0.898  11.583  20.239  0.00  0.00    +0.000 S 
ATOM     16  O   UNL     1       0.598  12.042  21.580  0.00  0.00    +0.000 OA
ATOM     17  O   UNL     1       1.783  12.341  19.369  0.00  0.00    +0.000 OA
ATOM     18  C   UNL     1      -0.605  11.344  19.377  0.00  0.00    +0.000 A 
ATOM     19  C   UNL     1      -1.787  11.938  19.810  0.00  0.00    +0.000 A 
ATOM     20  C   UNL     1      -2.935  11.758  19.051  0.00  0.00    +0.000 A 
ATOM     21  C   UNL     1      -2.859  11.058  17.842  0.00  0.00    +0.000 A 
ATOM     22  C   UNL     1      -1.662  10.431  17.443  0.00  0.00    +0.000 A 
ATOM     23  C   UNL     1      -0.540  10.484  18.274  0.00  0.00    +0.000 A 
ATOM     24  N   UNL     1       0.608   9.652  18.063  0.00  0.00    +0.000 N 
ATOM     25  H   UNL     1       1.182  10.042  17.308  0.00  0.00    +0.000 HD
ENDBRANCH   4  13
BRANCH   5  26
ATOM     26  O   UNL     1       0.744   7.232  21.291  0.00  0.00    +0.000 OA
ATOM     27  H   UNL     1       0.999   6.701  22.063  0.00  0.00    +0.000 HD
ENDBRANCH   5  26
BRANCH   1  28
ATOM     28  C   UNL     1       4.317   5.869  17.141  0.00  0.00    +0.000 C 
BRANCH  28  33
ATOM     29  C   UNL     1       7.658   6.107  19.000  0.00  0.00    +0.000 A 
ATOM     30  C   UNL     1       8.216   7.243  18.406  0.00  0.00    +0.000 A 
ATOM     31  C   UNL     1       7.528   7.916  17.393  0.00  0.00    +0.000 A 
ATOM     32  C   UNL     1       6.273   7.466  16.976  0.00  0.00    +0.000 A 
ATOM     33  C   UNL     1       5.692   6.341  17.568  0.00  0.00    +0.000 A 
ATOM     34  C   UNL     1       6.401   5.663  18.579  0.00  0.00    +0.000 A 
BRANCH  29  36
ATOM     35  N   UNL     1       8.934   4.832  20.871  0.00  0.00    +0.000 NA
ATOM     36  C   UNL     1       8.361   5.399  20.031  0.00  0.00    +0.000 C 
ENDBRANCH  29  36
ENDBRANCH  28  33
ENDBRANCH   1  28
TORSDOF 5
ENDMDL
MODEL 3
REMARK VINA RESULT:      -8.8      2.866      8.317
REMARK  Name = 
REMARK  5 active torsions:
REMARK  status: ('A' for Active; 'I' for Inactive)
REMARK    1  A    between atoms: C_2  and  C_3
REMARK    2  A    between atoms: C_7  and  C_8
REMARK    3  A    between atoms: C_8  and  N_9
REMARK    4  A    between atoms: C_12  and  C_13
REMARK    5  A    between atoms: C_25  and  O_26
REMARK                            x       y       z     vdW  Elec       q    Type
REMARK                         _______ _______ _______ _____ _____    ______ ____
ROOT
ATOM      1  N   UNL     1       0.841   9.909  19.010  0.00  0.00    +0.000 N 
ATOM      2  C   UNL     1       1.684   8.996  18.390  0.00  0.00    +0.000 A 
ATOM      3  O   UNL     1       2.144   9.193  17.263  0.00  0.00    +0.000 OA
ATOM      4  C   UNL     1       2.028   7.730  19.116  0.00  0.00    +0.000 A 
ATOM      5  C   UNL     1       1.732   7.654  20.435  0.00  0.00    +0.000 A 
ATOM      6  C   UNL     1       0.988   8.729  21.132  0.00  0.00    +0.000 A 
ATOM      7  C   UNL     1       0.743   8.677  22.517  0.00  0.00    +0.000 A 
ATOM      8  C   UNL     1      -0.000   9.676  23.141  0.00  0.00    +0.000 A 
ATOM      9  F   UNL     1      -0.220   9.620  24.460  0.00  0.00    +0.000 F 
ATOM     10  C   UNL     1      -0.522  10.729  22.411  0.00  0.00    +0.000 A 
ATOM     11  C   UNL     1      -0.275  10.798  21.040  0.00  0.00    +0.000 A 
ATOM     12  C   UNL     1       0.497   9.815  20.388  0.00  0.00    +0.000 A 
ENDROOT
BRANCH   4  13
ATOM     13  C   UNL     1       2.839   6.747  18.370  0.00  0.00    +0.000 C 
ATOM     14  C   UNL     1       2.725   5.471  18.780  0.00  0.00    +0.000 C 
ATOM     15  S   UNL     1       3.610   4.302  17.902  0.00  0.00    +0.000 S 
ATOM     16  O   UNL     1       3.773   3.121  18.724  0.00  0.00    +0.000 OA
ATOM     17  O   UNL     1       3.060   4.211  16.560  0.00  0.00    +0.000 OA
ATOM     18  C   UNL     1       5.152   5.119  17.781  0.00  0.00    +0.000 A 
ATOM     19  C   UNL     1       6.344   4.456  18.062  0.00  0.00    +0.000 A 
ATOM     20  C   UNL     1       7.539   5.142  17.892  0.00  0.00    +0.000 A 
ATOM     21  C   UNL     1       7.520   6.440  17.372  0.00  0.00    +0.000 A 
ATOM     22  C   UNL     1       6.302   7.107  17.132  0.00  0.00    +0.000 A 
ATOM     23  C   UNL     1       5.094   6.475  17.440  0.00  0.00    +0.000 A 
ATOM     24  N   UNL     1       3.849   7.186  17.478  0.00  0.00    +0.000 N 
ATOM     25  H   UNL     1       3.502   7.325  16.524  0.00  0.00    +0.000 HD
ENDBRANCH   4  13
BRANCH   5  26
ATOM     26  O   UNL     1       2.090   6.597  21.255  0.00  0.00    +0.000 OA
ATOM     27  H   UNL     1       2.920   6.193  20.954  0.00  0.00    +0.000 HD
ENDBRANCH   5  26
BRANCH   1  28
ATOM     28  C   UNL     1       0.307  10.965  18.158  0.00  0.00    +0.000 C 
BRANCH  28  33
ATOM     29  C   UNL     1      -3.484  11.449  18.427  0.00  0.00    +0.000 A 
ATOM     30  C   UNL     1      -3.943  10.446  17.567  0.00  0.00    +0.000 A 
ATOM     31  C   UNL     1      -3.035   9.633  16.886  0.00  0.00    +0.000 A 
ATOM     32  C   UNL     1      -1.661   9.807  17.067  0.00  0.00    +0.000 A 
ATOM     33  C   UNL     1      -1.181  10.795  17.934  0.00  0.00    +0.000 A 
ATOM     34  C   UNL     1      -2.107  11.617  18.605  0.00  0.00    +0.000 A 
BRANCH  29  36
ATOM     35  N   UNL     1      -5.161  12.985  19.682  0.00  0.00    +0.000 NA
ATOM     36  C   UNL     1      -4.406  12.299  19.121  0.00  0.00    +0.000 C 
ENDBRANCH  29  36
ENDBRANCH  28  33
ENDBRANCH   1  28
TORSDOF 5
ENDMDL
MODEL 4
REMARK VINA RESULT:      -8.3      3.267      7.780
REMARK  Name = 
REMARK  5 active torsions:
REMARK  status: ('A' for Active; 'I' for Inactive)
REMARK    1  A    between atoms: C_2  and  C_3
REMARK    2  A    between atoms: C_7  and  C_8
REMARK    3  A    between atoms: C_8  and  N_9
REMARK    4  A    between atoms: C_12  and  C_13
REMARK    5  A    between atoms: C_25  and  O_26
REMARK                            x       y       z     vdW  Elec       q    Type
REMARK                         _______ _______ _______ _____ _____    ______ ____
ROOT
ATOM      1  N   UNL     1       0.850   9.945  18.860  0.00  0.00    +0.000 N 
ATOM      2  C   UNL     1       1.722   9.020  18.300  0.00  0.00    +0.000 A 
ATOM      3  O   UNL     1       2.230   9.191  17.189  0.00  0.00    +0.000 OA
ATOM      4  C   UNL     1       2.038   7.774  19.072  0.00  0.00    +0.000 A 
ATOM      5  C   UNL     1       1.685   7.729  20.378  0.00  0.00    +0.000 A 
ATOM      6  C   UNL     1       0.908   8.818  21.015  0.00  0.00    +0.000 A 
ATOM      7  C   UNL     1       0.603   8.799  22.389  0.00  0.00    +0.000 A 
ATOM      8  C   UNL     1      -0.169   9.811  22.955  0.00  0.00    +0.000 A 
ATOM      9  F   UNL     1      -0.446   9.787  24.264  0.00  0.00    +0.000 F 
ATOM     10  C   UNL     1      -0.662  10.843  22.177  0.00  0.00    +0.000 A 
ATOM     11  C   UNL     1      -0.355  10.879  20.817  0.00  0.00    +0.000 A 
ATOM     12  C   UNL     1       0.447   9.884  20.224  0.00  0.00    +0.000 A 
ENDROOT
BRANCH   4  13
ATOM     13  C   UNL     1       2.883   6.776  18.386  0.00  0.00    +0.000 C 
ATOM     14  C   UNL     1       2.781   5.516  18.845  0.00  0.00    +0.000 C 
ATOM     15  S   UNL     1       3.707   4.328  18.037  0.00  0.00    +0.000 S 
ATOM     16  O   UNL     1       3.869   3.184  18.911  0.00  0.00    +0.000 OA
ATOM     17  O   UNL     1       3.192   4.173  16.687  0.00  0.00    +0.000 OA
ATOM     18  C   UNL     1       5.238   5.167  17.920  0.00  0.00    +0.000 A 
ATOM     19  C   UNL     1       6.433   4.537  18.256  0.00  0.00    +0.000 A 
ATOM     20  C   UNL     1       7.620   5.236  18.087  0.00  0.00    +0.000 A 
ATOM     21  C   UNL     1       7.593   6.512  17.515  0.00  0.00    +0.000 A 
ATOM     22  C   UNL     1       6.370   7.146  17.218  0.00  0.00    +0.000 A 
ATOM     23  C   UNL     1       5.165   6.507  17.523  0.00  0.00    +0.000 A 
ATOM     24  N   UNL     1       3.908   7.196  17.502  0.00  0.00    +0.000 N 
ATOM     25  H   UNL     1       3.582   7.290  16.535  0.00  0.00    +0.000 HD
ENDBRANCH   4  13
BRANCH   5  26
ATOM     26  O   UNL     1       2.010   6.694  21.239  0.00  0.00    +0.000 OA
ATOM     27  H   UNL     1       2.887   6.835  21.631  0.00  0.00    +0.000 HD
ENDBRANCH   5  26
BRANCH   1  28
ATOM     28  C   UNL     1       0.351  10.977  17.959  0.00  0.00    +0.000 C 
BRANCH  28  33
ATOM     29  C   UNL     1       0.633  14.710  18.773  0.00  0.00    +0.000 A 
ATOM     30  C   UNL     1       2.020  14.862  18.856  0.00  0.00    +0.000 A 
ATOM     31  C   UNL     1       2.860  13.761  18.674  0.00  0.00    +0.000 A 
ATOM     32  C   UNL     1       2.322  12.503  18.395  0.00  0.00    +0.000 A 
ATOM     33  C   UNL     1       0.938  12.333  18.294  0.00  0.00    +0.000 A 
ATOM     34  C   UNL     1       0.100  13.448  18.492  0.00  0.00    +0.000 A 
BRANCH  29  36
ATOM     35  N   UNL     1      -0.955  16.737  19.127  0.00  0.00    +0.000 NA
ATOM     36  C   UNL     1      -0.241  15.829  18.972  0.00  0.00    +0.000 C 
ENDBRANCH  29  36
ENDBRANCH  28  33
ENDBRANCH   1  28
TORSDOF 5
ENDMDL
MODEL 5
REMARK VINA RESULT:      -8.1      3.161      7.504
REMARK  Name = 
REMARK  5 active torsions:
REMARK  status: ('A' for Active; 'I' for Inactive)
REMARK    1  A    between atoms: C_2  and  C_3
REMARK    2  A    between atoms: C_7  and  C_8
REMARK    3  A    between atoms: C_8  and  N_9
REMARK    4  A    between atoms: C_12  and  C_13
REMARK    5  A    between atoms: C_25  and  O_26
REMARK                            x       y       z     vdW  Elec       q    Type
REMARK                         _______ _______ _______ _____ _____    ______ ____
ROOT
ATOM      1  N   UNL     1       0.716   9.866  18.831  0.00  0.00    +0.000 N 
ATOM      2  C   UNL     1       1.614   8.971  18.265  0.00  0.00    +0.000 A 
ATOM      3  O   UNL     1       2.073   9.135  17.132  0.00  0.00    +0.000 OA
ATOM      4  C   UNL     1       2.022   7.765  19.058  0.00  0.00    +0.000 A 
ATOM      5  C   UNL     1       1.718   7.740  20.377  0.00  0.00    +0.000 A 
ATOM      6  C   UNL     1       0.909   8.807  21.013  0.00  0.00    +0.000 A 
ATOM      7  C   UNL     1       0.655   8.813  22.397  0.00  0.00    +0.000 A 
ATOM      8  C   UNL     1      -0.149   9.799  22.963  0.00  0.00    +0.000 A 
ATOM      9  F   UNL     1      -0.377   9.800  24.282  0.00  0.00    +0.000 F 
ATOM     10  C   UNL     1      -0.721  10.782  22.176  0.00  0.00    +0.000 A 
ATOM     11  C   UNL     1      -0.466  10.795  20.805  0.00  0.00    +0.000 A 
ATOM     12  C   UNL     1       0.365   9.824  20.210  0.00  0.00    +0.000 A 
ENDROOT
BRANCH   4  13
ATOM     13  C   UNL     1       2.893   6.792  18.369  0.00  0.00    +0.000 C 
ATOM     14  C   UNL     1       2.797   5.522  18.800  0.00  0.00    +0.000 C 
ATOM     15  S   UNL     1       3.754   4.362  17.987  0.00  0.00    +0.000 S 
ATOM     16  O   UNL     1       3.914   3.203  18.840  0.00  0.00    +0.000 OA
ATOM     17  O   UNL     1       3.267   4.228  16.625  0.00  0.00    +0.000 OA
ATOM     18  C   UNL     1       5.276   5.222  17.917  0.00  0.00    +0.000 A 
ATOM     19  C   UNL     1       6.473   4.600  18.263  0.00  0.00    +0.000 A 
ATOM     20  C   UNL     1       7.654   5.317  18.131  0.00  0.00    +0.000 A 
ATOM     21  C   UNL     1       7.621   6.604  17.584  0.00  0.00    +0.000 A 
ATOM     22  C   UNL     1       6.396   7.229  17.277  0.00  0.00    +0.000 A 
ATOM     23  C   UNL     1       5.193   6.569  17.545  0.00  0.00    +0.000 A 
ATOM     24  N   UNL     1       3.928   7.242  17.514  0.00  0.00    +0.000 N 
ATOM     25  H   UNL     1       3.621   7.352  16.542  0.00  0.00    +0.000 HD
ENDBRANCH   4  13
BRANCH   5  26
ATOM     26  O   UNL     1       2.127   6.749  21.254  0.00  0.00    +0.000 OA
ATOM     27  H   UNL     1       2.893   7.042  21.773  0.00  0.00    +0.000 HD
ENDBRANCH   5  26
BRANCH   1  28
ATOM     28  C   UNL     1       0.133  10.845  17.922  0.00  0.00    +0.000 C 
BRANCH  28  33
ATOM     29  C   UNL     1       2.393  13.887  18.484  0.00  0.00    +0.000 A 
ATOM     30  C   UNL     1       1.463  14.835  18.919  0.00  0.00    +0.000 A 
ATOM     31  C   UNL     1       0.109  14.502  19.010  0.00  0.00    +0.000 A 
ATOM     32  C   UNL     1      -0.323  13.217  18.677  0.00  0.00    +0.000 A 
ATOM     33  C   UNL     1       0.593  12.250  18.253  0.00  0.00    +0.000 A 
ATOM     34  C   UNL     1       1.954  12.601  18.154  0.00  0.00    +0.000 A 
BRANCH  29  36
ATOM     35  N   UNL     1       4.914  14.484  18.279  0.00  0.00    +0.000 NA
ATOM     36  C   UNL     1       3.783  14.220  18.374  0.00  0.00    +0.000 C 
ENDBRANCH  29  36
ENDBRANCH  28  33
ENDBRANCH   1  28
TORSDOF 5
ENDMDL
MODEL 6
REMARK VINA RESULT:      -8.0      1.461      1.741
REMARK  Name = 
REMARK  5 active torsions:
REMARK  status: ('A' for Active; 'I' for Inactive)
REMARK    1  A    between atoms: C_2  and  C_3
REMARK    2  A    between atoms: C_7  and  C_8
REMARK    3  A    between atoms: C_8  and  N_9
REMARK    4  A    between atoms: C_12  and  C_13
REMARK    5  A    between atoms: C_25  and  O_26
REMARK                            x       y       z     vdW  Elec       q    Type
REMARK                         _______ _______ _______ _____ _____    ______ ____
ROOT
ATOM      1  N   UNL     1       3.601   5.877  17.698  0.00  0.00    +0.000 N 
ATOM      2  C   UNL     1       3.041   7.037  18.216  0.00  0.00    +0.000 A 
ATOM      3  O   UNL     1       3.285   8.148  17.741  0.00  0.00    +0.000 OA
ATOM      4  C   UNL     1       2.125   6.925  19.398  0.00  0.00    +0.000 A 
ATOM      5  C   UNL     1       1.670   5.695  19.734  0.00  0.00    +0.000 A 
ATOM      6  C   UNL     1       2.140   4.472  19.042  0.00  0.00    +0.000 A 
ATOM      7  C   UNL     1       1.613   3.203  19.349  0.00  0.00    +0.000 A 
ATOM      8  C   UNL     1       2.105   2.063  18.719  0.00  0.00    +0.000 A 
ATOM      9  F   UNL     1       1.590   0.863  19.012  0.00  0.00    +0.000 F 
ATOM     10  C   UNL     1       3.128   2.153  17.792  0.00  0.00    +0.000 A 
ATOM     11  C   UNL     1       3.650   3.406  17.471  0.00  0.00    +0.000 A 
ATOM     12  C   UNL     1       3.152   4.579  18.073  0.00  0.00    +0.000 A 
ENDROOT
BRANCH   4  13
ATOM     13  C   UNL     1       1.643   8.196  19.976  0.00  0.00    +0.000 C 
ATOM     14  C   UNL     1       1.001   8.090  21.152  0.00  0.00    +0.000 C 
ATOM     15  S   UNL     1       0.477   9.549  21.873  0.00  0.00    +0.000 S 
ATOM     16  O   UNL     1      -0.575   9.253  22.823  0.00  0.00    +0.000 OA
ATOM     17  O   UNL     1       1.644  10.321  22.264  0.00  0.00    +0.000 OA
ATOM     18  C   UNL     1      -0.229  10.338  20.480  0.00  0.00    +0.000 A 
ATOM     19  C   UNL     1      -1.483  10.939  20.550  0.00  0.00    +0.000 A 
ATOM     20  C   UNL     1      -1.964  11.599  19.428  0.00  0.00    +0.000 A 
ATOM     21  C   UNL     1      -1.153  11.711  18.293  0.00  0.00    +0.000 A 
ATOM     22  C   UNL     1       0.096  11.061  18.230  0.00  0.00    +0.000 A 
ATOM     23  C   UNL     1       0.523  10.272  19.302  0.00  0.00    +0.000 A 
ATOM     24  N   UNL     1       1.638   9.377  19.195  0.00  0.00    +0.000 N 
ATOM     25  H   UNL     1       2.513   9.906  19.270  0.00  0.00    +0.000 HD
ENDBRANCH   4  13
BRANCH   5  26
ATOM     26  O   UNL     1       0.735   5.453  20.727  0.00  0.00    +0.000 OA
ATOM     27  H   UNL     1       1.159   5.077  21.516  0.00  0.00    +0.000 HD
ENDBRANCH   5  26
BRANCH   1  28
ATOM     28  C   UNL     1       4.699   6.064  16.756  0.00  0.00    +0.000 C 
BRANCH  28  33
ATOM     29  C   UNL     1       7.792   7.904  18.069  0.00  0.00    +0.000 A 
ATOM     30  C   UNL     1       8.444   6.876  18.756  0.00  0.00    +0.000 A 
ATOM     31  C   UNL     1       7.877   5.601  18.816  0.00  0.00    +0.000 A 
ATOM     32  C   UNL     1       6.662   5.340  18.180  0.00  0.00    +0.000 A 
ATOM     33  C   UNL     1       6.001   6.351  17.475  0.00  0.00    +0.000 A 
ATOM     34  C   UNL     1       6.576   7.636  17.432  0.00  0.00    +0.000 A 
BRANCH  29  36
ATOM     35  N   UNL     1       8.812  10.292  17.973  0.00  0.00    +0.000 NA
ATOM     36  C   UNL     1       8.357   9.221  18.011  0.00  0.00    +0.000 C 
ENDBRANCH  29  36
ENDBRANCH  28  33
ENDBRANCH   1  28
TORSDOF 5
ENDMDL
MODEL 7
REMARK VINA RESULT:      -8.0      4.800      8.362
REMARK  Name = 
REMARK  5 active torsions:
REMARK  status: ('A' for Active; 'I' for Inactive)
REMARK    1  A    between atoms: C_2  and  C_3
REMARK    2  A    between atoms: C_7  and  C_8
REMARK    3  A    between atoms: C_8  and  N_9
REMARK    4  A    between atoms: C_12  and  C_13
REMARK    5  A    between atoms: C_25  and  O_26
REMARK                            x       y       z     vdW  Elec       q    Type
REMARK                         _______ _______ _______ _____ _____    ______ ____
ROOT
ATOM      1  N   UNL     1      -1.792  12.113  19.206  0.00  0.00    +0.000 N 
ATOM      2  C   UNL     1      -2.482  12.838  20.170  0.00  0.00    +0.000 A 
ATOM      3  O   UNL     1      -1.900  13.546  20.995  0.00  0.00    +0.000 OA
ATOM      4  C   UNL     1      -3.977  12.738  20.208  0.00  0.00    +0.000 A 
ATOM      5  C   UNL     1      -4.604  12.174  19.149  0.00  0.00    +0.000 A 
ATOM      6  C   UNL     1      -3.849  11.566  18.028  0.00  0.00    +0.000 A 
ATOM      7  C   UNL     1      -4.504  11.043  16.897  0.00  0.00    +0.000 A 
ATOM      8  C   UNL     1      -3.775  10.432  15.880  0.00  0.00    +0.000 A 
ATOM      9  F   UNL     1      -4.407   9.946  14.805  0.00  0.00    +0.000 F 
ATOM     10  C   UNL     1      -2.400  10.315  15.967  0.00  0.00    +0.000 A 
ATOM     11  C   UNL     1      -1.739  10.841  17.077  0.00  0.00    +0.000 A 
ATOM     12  C   UNL     1      -2.448  11.488  18.108  0.00  0.00    +0.000 A 
ENDROOT
BRANCH   4  13
ATOM     13  C   UNL     1      -4.652  13.442  21.318  0.00  0.00    +0.000 C 
ATOM     14  C   UNL     1      -5.377  14.518  20.966  0.00  0.00    +0.000 C 
ATOM     15  S   UNL     1      -6.213  15.323  22.220  0.00  0.00    +0.000 S 
ATOM     16  O   UNL     1      -6.520  16.672  21.791  0.00  0.00    +0.000 OA
ATOM     17  O   UNL     1      -7.253  14.444  22.727  0.00  0.00    +0.000 OA
ATOM     18  C   UNL     1      -4.951  15.392  23.429  0.00  0.00    +0.000 A 
ATOM     19  C   UNL     1      -4.676  16.569  24.119  0.00  0.00    +0.000 A 
ATOM     20  C   UNL     1      -3.701  16.546  25.108  0.00  0.00    +0.000 A 
ATOM     21  C   UNL     1      -3.083  15.334  25.436  0.00  0.00    +0.000 A 
ATOM     22  C   UNL     1      -3.347  14.163  24.699  0.00  0.00    +0.000 A 
ATOM     23  C   UNL     1      -4.219  14.212  23.607  0.00  0.00    +0.000 A 
ATOM     24  N   UNL     1      -4.319  13.139  22.661  0.00  0.00    +0.000 N 
ATOM     25  H   UNL     1      -4.895  12.388  23.053  0.00  0.00    +0.000 HD
ENDBRANCH   4  13
BRANCH   5  26
ATOM     26  O   UNL     1      -5.979  12.116  18.996  0.00  0.00    +0.000 OA
ATOM     27  H   UNL     1      -6.393  11.688  19.763  0.00  0.00    +0.000 HD
ENDBRANCH   5  26
BRANCH   1  28
ATOM     28  C   UNL     1      -0.351  12.010  19.396  0.00  0.00    +0.000 C 
BRANCH  28  33
ATOM     29  C   UNL     1       1.209   8.597  20.166  0.00  0.00    +0.000 A 
ATOM     30  C   UNL     1       0.670   8.335  21.429  0.00  0.00    +0.000 A 
ATOM     31  C   UNL     1      -0.174   9.264  22.040  0.00  0.00    +0.000 A 
ATOM     32  C   UNL     1      -0.496  10.457  21.389  0.00  0.00    +0.000 A 
ATOM     33  C   UNL     1       0.022  10.732  20.119  0.00  0.00    +0.000 A 
ATOM     34  C   UNL     1       0.882   9.793  19.518  0.00  0.00    +0.000 A 
BRANCH  29  36
ATOM     35  N   UNL     1       2.796   6.889  19.018  0.00  0.00    +0.000 NA
ATOM     36  C   UNL     1       2.088   7.657  19.534  0.00  0.00    +0.000 C 
ENDBRANCH  29  36
ENDBRANCH  28  33
ENDBRANCH   1  28
TORSDOF 5
ENDMDL
MODEL 8
REMARK VINA RESULT:      -7.9      5.499      8.521
REMARK  Name = 
REMARK  5 active torsions:
REMARK  status: ('A' for Active; 'I' for Inactive)
REMARK    1  A    between atoms: C_2  and  C_3
REMARK    2  A    between atoms: C_7  and  C_8
REMARK    3  A    between atoms: C_8  and  N_9
REMARK    4  A    between atoms: C_12  and  C_13
REMARK    5  A    between atoms: C_25  and  O_26
REMARK                            x       y       z     vdW  Elec       q    Type
REMARK                         _______ _______ _______ _____ _____    ______ ____
ROOT
ATOM      1  N   UNL     1      -1.952  12.216  18.815  0.00  0.00    +0.000 N 
ATOM      2  C   UNL     1      -2.657  12.792  19.863  0.00  0.00    +0.000 A 
ATOM      3  O   UNL     1      -2.111  13.524  20.693  0.00  0.00    +0.000 OA
ATOM      4  C   UNL     1      -4.122  12.499  19.989  0.00  0.00    +0.000 A 
ATOM      5  C   UNL     1      -4.746  11.918  18.938  0.00  0.00    +0.000 A 
ATOM      6  C   UNL     1      -4.002  11.473  17.736  0.00  0.00    +0.000 A 
ATOM      7  C   UNL     1      -4.664  10.933  16.618  0.00  0.00    +0.000 A 
ATOM      8  C   UNL     1      -3.938  10.477  15.520  0.00  0.00    +0.000 A 
ATOM      9  F   UNL     1      -4.578   9.973  14.458  0.00  0.00    +0.000 F 
ATOM     10  C   UNL     1      -2.556  10.534  15.513  0.00  0.00    +0.000 A 
ATOM     11  C   UNL     1      -1.889  11.079  16.610  0.00  0.00    +0.000 A 
ATOM     12  C   UNL     1      -2.600  11.573  17.723  0.00  0.00    +0.000 A 
ENDROOT
BRANCH   4  13
ATOM     13  C   UNL     1      -4.799  13.049  21.181  0.00  0.00    +0.000 C 
ATOM     14  C   UNL     1      -5.726  13.993  20.937  0.00  0.00    +0.000 C 
ATOM     15  S   UNL     1      -6.565  14.611  22.291  0.00  0.00    +0.000 S 
ATOM     16  O   UNL     1      -7.135  15.897  21.945  0.00  0.00    +0.000 OA
ATOM     17  O   UNL     1      -7.390  13.554  22.851  0.00  0.00    +0.000 OA
ATOM     18  C   UNL     1      -5.226  14.866  23.387  0.00  0.00    +0.000 A 
ATOM     19  C   UNL     1      -5.091  16.056  24.097  0.00  0.00    +0.000 A 
ATOM     20  C   UNL     1      -4.039  16.176  24.994  0.00  0.00    +0.000 A 
ATOM     21  C   UNL     1      -3.197  15.081  25.219  0.00  0.00    +0.000 A 
ATOM     22  C   UNL     1      -3.327  13.901  24.461  0.00  0.00    +0.000 A 
ATOM     23  C   UNL     1      -4.291  13.826  23.452  0.00  0.00    +0.000 A 
ATOM     24  N   UNL     1      -4.297  12.775  22.477  0.00  0.00    +0.000 N 
ATOM     25  H   UNL     1      -4.699  11.926  22.887  0.00  0.00    +0.000 HD
ENDBRANCH   4  13
BRANCH   5  26
ATOM     26  O   UNL     1      -6.111  11.691  18.868  0.00  0.00    +0.000 OA
ATOM     27  H   UNL     1      -6.596  12.349  19.391  0.00  0.00    +0.000 HD
ENDBRANCH   5  26
BRANCH   1  28
ATOM     28  C   UNL     1      -0.499  12.290  18.907  0.00  0.00    +0.000 C 
BRANCH  28  33
ATOM     29  C   UNL     1       0.570   9.717  21.537  0.00  0.00    +0.000 A 
ATOM     30  C   UNL     1       1.198   8.759  20.735  0.00  0.00    +0.000 A 
ATOM     31  C   UNL     1       1.256   8.930  19.350  0.00  0.00    +0.000 A 
ATOM     32  C   UNL     1       0.698  10.065  18.757  0.00  0.00    +0.000 A 
ATOM     33  C   UNL     1       0.079  11.042  19.543  0.00  0.00    +0.000 A 
ATOM     34  C   UNL     1       0.015  10.852  20.937  0.00  0.00    +0.000 A 
BRANCH  29  36
ATOM     35  N   UNL     1       0.419   9.406  24.113  0.00  0.00    +0.000 NA
ATOM     36  C   UNL     1       0.491   9.546  22.959  0.00  0.00    +0.000 C 
ENDBRANCH  29  36
ENDBRANCH  28  33
ENDBRANCH   1  28
TORSDOF 5
ENDMDL
MODEL 9
REMARK VINA RESULT:      -7.8      2.921      8.199
REMARK  Name = 
REMARK  5 active torsions:
REMARK  status: ('A' for Active; 'I' for Inactive)
REMARK    1  A    between atoms: C_2  and  C_3
REMARK    2  A    between atoms: C_7  and  C_8
REMARK    3  A    between atoms: C_8  and  N_9
REMARK    4  A    between atoms: C_12  and  C_13
REMARK    5  A    between atoms: C_25  and  O_26
REMARK                            x       y       z     vdW  Elec       q    Type
REMARK                         _______ _______ _______ _____ _____    ______ ____
ROOT
ATOM      1  N   UNL     1       0.654   9.844  18.888  0.00  0.00    +0.000 N 
ATOM      2  C   UNL     1       1.530   8.946  18.294  0.00  0.00    +0.000 A 
ATOM      3  O   UNL     1       1.955   9.109  17.147  0.00  0.00    +0.000 OA
ATOM      4  C   UNL     1       1.957   7.738  19.073  0.00  0.00    +0.000 A 
ATOM      5  C   UNL     1       1.695   7.714  20.401  0.00  0.00    +0.000 A 
ATOM      6  C   UNL     1       0.910   8.783  21.062  0.00  0.00    +0.000 A 
ATOM      7  C   UNL     1       0.699   8.789  22.453  0.00  0.00    +0.000 A 
ATOM      8  C   UNL     1      -0.083   9.779  23.045  0.00  0.00    +0.000 A 
ATOM      9  F   UNL     1      -0.270   9.779  24.370  0.00  0.00    +0.000 F 
ATOM     10  C   UNL     1      -0.676  10.764  22.277  0.00  0.00    +0.000 A 
ATOM     11  C   UNL     1      -0.463  10.777  20.898  0.00  0.00    +0.000 A 
ATOM     12  C   UNL     1       0.346   9.803  20.277  0.00  0.00    +0.000 A 
ENDROOT
BRANCH   4  13
ATOM     13  C   UNL     1       2.803   6.762  18.357  0.00  0.00    +0.000 C 
ATOM     14  C   UNL     1       2.701   5.489  18.777  0.00  0.00    +0.000 C 
ATOM     15  S   UNL     1       3.627   4.326  17.933  0.00  0.00    +0.000 S 
ATOM     16  O   UNL     1       3.790   3.156  18.771  0.00  0.00    +0.000 OA
ATOM     17  O   UNL     1       3.111   4.212  16.579  0.00  0.00    +0.000 OA
ATOM     18  C   UNL     1       5.158   5.169  17.841  0.00  0.00    +0.000 A 
ATOM     19  C   UNL     1       6.353   4.530  18.157  0.00  0.00    +0.000 A 
ATOM     20  C   UNL     1       7.540   5.234  18.009  0.00  0.00    +0.000 A 
ATOM     21  C   UNL     1       7.512   6.527  17.476  0.00  0.00    +0.000 A 
ATOM     22  C   UNL     1       6.289   7.169  17.200  0.00  0.00    +0.000 A 
ATOM     23  C   UNL     1       5.084   6.520  17.485  0.00  0.00    +0.000 A 
ATOM     24  N   UNL     1       3.826   7.209  17.486  0.00  0.00    +0.000 N 
ATOM     25  H   UNL     1       3.501   7.333  16.522  0.00  0.00    +0.000 HD
ENDBRANCH   4  13
BRANCH   5  26
ATOM     26  O   UNL     1       2.126   6.720  21.264  0.00  0.00    +0.000 OA
ATOM     27  H   UNL     1       1.952   5.841  20.891  0.00  0.00    +0.000 HD
ENDBRANCH   5  26
BRANCH   1  28
ATOM     28  C   UNL     1       0.046  10.826  17.998  0.00  0.00    +0.000 C 
BRANCH  28  33
ATOM     29  C   UNL     1      -3.003  10.064  15.807  0.00  0.00    +0.000 A 
ATOM     30  C   UNL     1      -3.932   9.661  16.770  0.00  0.00    +0.000 A 
ATOM     31  C   UNL     1      -3.570   9.613  18.119  0.00  0.00    +0.000 A 
ATOM     32  C   UNL     1      -2.282   9.978  18.515  0.00  0.00    +0.000 A 
ATOM     33  C   UNL     1      -1.342  10.398  17.568  0.00  0.00    +0.000 A 
ATOM     34  C   UNL     1      -1.715  10.430  16.210  0.00  0.00    +0.000 A 
BRANCH  29  36
ATOM     35  N   UNL     1      -3.654  10.136  13.292  0.00  0.00    +0.000 NA
ATOM     36  C   UNL     1      -3.357  10.104  14.418  0.00  0.00    +0.000 C 
ENDBRANCH  29  36
ENDBRANCH  28  33
ENDBRANCH   1  28
TORSDOF 5
ENDMDL
