MODEL 1
REMARK VINA RESULT:      -7.4      0.000      0.000
REMARK  Name = 
REMARK  9 active torsions:
REMARK  status: ('A' for Active; 'I' for Inactive)
REMARK    1  A    between atoms: C_1  and  O_2
REMARK    2  A    between atoms: O_2  and  C_3
REMARK    3  A    between atoms: C_8  and  C_9
REMARK    4  A    between atoms: C_9  and  C_10
REMARK    5  A    between atoms: C_10  and  N_11
REMARK    6  A    between atoms: C_15  and  C_16
REMARK    7  A    between atoms: C_16  and  N_17
REMARK    8  A    between atoms: N_17  and  C_18
REMARK    9  A    between atoms: C_19  and  C_21
REMARK                            x       y       z     vdW  Elec       q    Type
REMARK                         _______ _______ _______ _____ _____    ______ ____
ROOT
ATOM      1  N   UNL     1       7.659   7.592  17.540  0.00  0.00    +0.000 NA
ATOM      2  C   UNL     1       8.209   6.723  18.593  0.00  0.00    +0.000 C 
ATOM      3  C   UNL     1       7.778   5.264  18.415  0.00  0.00    +0.000 C 
ATOM      4  C   UNL     1       6.259   5.135  18.351  0.00  0.00    +0.000 C 
ATOM      5  C   UNL     1       5.721   6.035  17.235  0.00  0.00    +0.000 C 
ATOM      6  C   UNL     1       6.193   7.477  17.467  0.00  0.00    +0.000 C 
ENDROOT
BRANCH   1   7
ATOM      7  C   UNL     1       7.994   9.014  17.777  0.00  0.00    +0.000 C 
BRANCH   7   8
ATOM      8  C   UNL     1       8.847   9.278  19.022  0.00  0.00    +0.000 C 
BRANCH   8  14
ATOM      9  C   UNL     1       9.532  11.481  20.129  0.00  0.00    +0.000 A 
ATOM     10  C   UNL     1      10.109  12.752  20.032  0.00  0.00    +0.000 A 
ATOM     11  C   UNL     1      10.449  13.282  18.786  0.00  0.00    +0.000 A 
ATOM     12  C   UNL     1      10.252  12.528  17.633  0.00  0.00    +0.000 A 
ATOM     13  C   UNL     1       9.762  11.227  17.732  0.00  0.00    +0.000 A 
ATOM     14  C   UNL     1       9.416  10.681  18.979  0.00  0.00    +0.000 A 
BRANCH   9  16
ATOM     15  C   UNL     1       8.472  11.899  22.204  0.00  0.00    +0.000 C 
ATOM     16  O   UNL     1       9.068  10.961  21.308  0.00  0.00    +0.000 OA
ENDBRANCH   9  16
ENDBRANCH   8  14
ENDBRANCH   7   8
ENDBRANCH   1   7
BRANCH   5  17
ATOM     17  C   UNL     1       4.187   6.035  17.158  0.00  0.00    +0.000 C 
BRANCH  17  18
ATOM     18  N   UNL     1       3.539   4.976  17.930  0.00  0.00    +0.000 N 
ATOM     19  C   UNL     1       3.280   3.721  17.236  0.00  0.00    +0.000 C 
ATOM     20  C   UNL     1       3.017   5.307  19.185  0.00  0.00    +0.000 C 
ATOM     21  O   UNL     1       3.066   6.453  19.627  0.00  0.00    +0.000 OA
BRANCH  20  22
ATOM     22  C   UNL     1       2.373   4.264  19.977  0.00  0.00    +0.000 A 
ATOM     23  C   UNL     1       2.897   3.212  20.785  0.00  0.00    +0.000 A 
ATOM     24  C   UNL     1       1.818   2.496  21.248  0.00  0.00    +0.000 A 
ATOM     25  O   UNL     1       0.660   3.074  20.853  0.00  0.00    +0.000 OA
ATOM     26  C   UNL     1       1.002   4.154  20.103  0.00  0.00    +0.000 A 
ENDBRANCH  20  22
ENDBRANCH  17  18
ENDBRANCH   5  17
TORSDOF 7
ENDMDL
MODEL 2
REMARK VINA RESULT:      -7.4      4.186      7.238
REMARK  Name = 
REMARK  9 active torsions:
REMARK  status: ('A' for Active; 'I' for Inactive)
REMARK    1  A    between atoms: C_1  and  O_2
REMARK    2  A    between atoms: O_2  and  C_3
REMARK    3  A    between atoms: C_8  and  C_9
REMARK    4  A    between atoms: C_9  and  C_10
REMARK    5  A    between atoms: C_10  and  N_11
REMARK    6  A    between atoms: C_15  and  C_16
REMARK    7  A    between atoms: C_16  and  N_17
REMARK    8  A    between atoms: N_17  and  C_18
REMARK    9  A    between atoms: C_19  and  C_21
REMARK                            x       y       z     vdW  Elec       q    Type
REMARK                         _______ _______ _______ _____ _____    ______ ____
ROOT
ATOM      1  N   UNL     1       2.645   3.700  18.213  0.00  0.00    +0.000 NA
ATOM      2  C   UNL     1       2.121   2.847  19.292  0.00  0.00    +0.000 C 
ATOM      3  C   UNL     1       0.963   3.515  20.039  0.00  0.00    +0.000 C 
ATOM      4  C   UNL     1       1.366   4.881  20.584  0.00  0.00    +0.000 C 
ATOM      5  C   UNL     1       1.888   5.751  19.437  0.00  0.00    +0.000 C 
ATOM      6  C   UNL     1       3.038   5.024  18.725  0.00  0.00    +0.000 C 
ENDROOT
BRANCH   1   7
ATOM      7  C   UNL     1       3.829   3.093  17.564  0.00  0.00    +0.000 C 
BRANCH   7   8
ATOM      8  C   UNL     1       5.143   3.850  17.780  0.00  0.00    +0.000 C 
BRANCH   8  14
ATOM      9  C   UNL     1       7.018   4.844  16.349  0.00  0.00    +0.000 A 
ATOM     10  C   UNL     1       7.581   5.075  15.090  0.00  0.00    +0.000 A 
ATOM     11  C   UNL     1       6.870   4.766  13.929  0.00  0.00    +0.000 A 
ATOM     12  C   UNL     1       5.608   4.187  14.021  0.00  0.00    +0.000 A 
ATOM     13  C   UNL     1       5.080   3.871  15.271  0.00  0.00    +0.000 A 
ATOM     14  C   UNL     1       5.785   4.176  16.447  0.00  0.00    +0.000 A 
BRANCH   9  16
ATOM     15  C   UNL     1       7.536   6.631  17.814  0.00  0.00    +0.000 C 
ATOM     16  O   UNL     1       7.617   5.237  17.517  0.00  0.00    +0.000 OA
ENDBRANCH   9  16
ENDBRANCH   8  14
ENDBRANCH   7   8
ENDBRANCH   1   7
BRANCH   5  17
ATOM     17  C   UNL     1       2.399   7.119  19.911  0.00  0.00    +0.000 C 
BRANCH  17  18
ATOM     18  N   UNL     1       1.736   8.264  19.290  0.00  0.00    +0.000 N 
ATOM     19  C   UNL     1       2.068   8.539  17.898  0.00  0.00    +0.000 C 
ATOM     20  C   UNL     1       1.021   9.135  20.118  0.00  0.00    +0.000 C 
ATOM     21  O   UNL     1       0.965   8.974  21.336  0.00  0.00    +0.000 OA
BRANCH  20  22
ATOM     22  C   UNL     1       0.346  10.281  19.518  0.00  0.00    +0.000 A 
ATOM     23  C   UNL     1      -0.898  10.410  18.833  0.00  0.00    +0.000 A 
ATOM     24  C   UNL     1      -0.995  11.723  18.435  0.00  0.00    +0.000 A 
ATOM     25  O   UNL     1       0.059  12.437  18.894  0.00  0.00    +0.000 OA
ATOM     26  C   UNL     1       0.855  11.564  19.566  0.00  0.00    +0.000 A 
ENDBRANCH  20  22
ENDBRANCH  17  18
ENDBRANCH   5  17
TORSDOF 7
ENDMDL
MODEL 3
REMARK VINA RESULT:      -7.4      4.659      7.522
REMARK  Name = 
REMARK  9 active torsions:
REMARK  status: ('A' for Active; 'I' for Inactive)
REMARK    1  A    between atoms: C_1  and  O_2
REMARK    2  A    between atoms: O_2  and  C_3
REMARK    3  A    between atoms: C_8  and  C_9
REMARK    4  A    between atoms: C_9  and  C_10
REMARK    5  A    between atoms: C_10  and  N_11
REMARK    6  A    between atoms: C_15  and  C_16
REMARK    7  A    between atoms: C_16  and  N_17
REMARK    8  A    between atoms: N_17  and  C_18
REMARK    9  A    between atoms: C_19  and  C_21
REMARK                            x       y       z     vdW  Elec       q    Type
REMARK                         _______ _______ _______ _____ _____    ______ ____
ROOT
ATOM      1  N   UNL     1       2.002   4.351  18.159  0.00  0.00    +0.000 NA
ATOM      2  C   UNL     1       1.983   3.449  19.322  0.00  0.00    +0.000 C 
ATOM      3  C   UNL     1       1.150   4.017  20.474  0.00  0.00    +0.000 C 
ATOM      4  C   UNL     1       1.634   5.405  20.881  0.00  0.00    +0.000 C 
ATOM      5  C   UNL     1       1.624   6.324  19.656  0.00  0.00    +0.000 C 
ATOM      6  C   UNL     1       2.467   5.696  18.537  0.00  0.00    +0.000 C 
ENDROOT
BRANCH   1   7
ATOM      7  C   UNL     1       2.891   3.845  17.090  0.00  0.00    +0.000 C 
BRANCH   7   8
ATOM      8  C   UNL     1       4.131   3.093  17.585  0.00  0.00    +0.000 C 
BRANCH   8  14
ATOM      9  C   UNL     1       6.175   4.327  16.663  0.00  0.00    +0.000 A 
ATOM     10  C   UNL     1       7.208   5.254  16.843  0.00  0.00    +0.000 A 
ATOM     11  C   UNL     1       7.456   5.801  18.103  0.00  0.00    +0.000 A 
ATOM     12  C   UNL     1       6.647   5.456  19.182  0.00  0.00    +0.000 A 
ATOM     13  C   UNL     1       5.561   4.605  18.989  0.00  0.00    +0.000 A 
ATOM     14  C   UNL     1       5.299   4.047  17.726  0.00  0.00    +0.000 A 
BRANCH   9  16
ATOM     15  C   UNL     1       6.469   4.317  14.314  0.00  0.00    +0.000 C 
ATOM     16  O   UNL     1       5.962   3.669  15.481  0.00  0.00    +0.000 OA
ENDBRANCH   9  16
ENDBRANCH   8  14
ENDBRANCH   7   8
ENDBRANCH   1   7
BRANCH   5  17
ATOM     17  C   UNL     1       2.182   7.723  19.956  0.00  0.00    +0.000 C 
BRANCH  17  18
ATOM     18  N   UNL     1       1.195   8.800  19.883  0.00  0.00    +0.000 N 
ATOM     19  C   UNL     1       0.305   8.953  21.026  0.00  0.00    +0.000 C 
ATOM     20  C   UNL     1       1.023   9.448  18.656  0.00  0.00    +0.000 C 
ATOM     21  O   UNL     1       1.653   9.117  17.652  0.00  0.00    +0.000 OA
BRANCH  20  22
ATOM     22  C   UNL     1       0.049  10.530  18.561  0.00  0.00    +0.000 A 
ATOM     23  C   UNL     1      -1.336  10.547  18.225  0.00  0.00    +0.000 A 
ATOM     24  C   UNL     1      -1.731  11.864  18.241  0.00  0.00    +0.000 A 
ATOM     25  O   UNL     1      -0.711  12.659  18.643  0.00  0.00    +0.000 OA
ATOM     26  C   UNL     1       0.355  11.844  18.855  0.00  0.00    +0.000 A 
ENDBRANCH  20  22
ENDBRANCH  17  18
ENDBRANCH   5  17
TORSDOF 7
ENDMDL
MODEL 4
REMARK VINA RESULT:      -7.4      4.691      7.381
REMARK  Name = 
REMARK  9 active torsions:
REMARK  status: ('A' for Active; 'I' for Inactive)
REMARK    1  A    between atoms: C_1  and  O_2
REMARK    2  A    between atoms: O_2  and  C_3
REMARK    3  A    between atoms: C_8  and  C_9
REMARK    4  A    between atoms: C_9  and  C_10
REMARK    5  A    between atoms: C_10  and  N_11
REMARK    6  A    between atoms: C_15  and  C_16
REMARK    7  A    between atoms: C_16  and  N_17
REMARK    8  A    between atoms: N_17  and  C_18
REMARK    9  A    between atoms: C_19  and  C_21
REMARK                            x       y       z     vdW  Elec       q    Type
REMARK                         _______ _______ _______ _____ _____    ______ ____
ROOT
ATOM      1  N   UNL     1       1.893   4.147  18.189  0.00  0.00    +0.000 NA
ATOM      2  C   UNL     1       1.883   3.253  19.359  0.00  0.00    +0.000 C 
ATOM      3  C   UNL     1       1.123   3.864  20.540  0.00  0.00    +0.000 C 
ATOM      4  C   UNL     1       1.684   5.232  20.916  0.00  0.00    +0.000 C 
ATOM      5  C   UNL     1       1.664   6.143  19.685  0.00  0.00    +0.000 C 
ATOM      6  C   UNL     1       2.432   5.472  18.538  0.00  0.00    +0.000 C 
ENDROOT
BRANCH   1   7
ATOM      7  C   UNL     1       2.715   3.595  17.089  0.00  0.00    +0.000 C 
BRANCH   7   8
ATOM      8  C   UNL     1       4.113   3.123  17.502  0.00  0.00    +0.000 C 
BRANCH   8  14
ATOM      9  C   UNL     1       6.058   4.774  17.304  0.00  0.00    +0.000 A 
ATOM     10  C   UNL     1       7.044   5.389  16.524  0.00  0.00    +0.000 A 
ATOM     11  C   UNL     1       7.070   5.205  15.141  0.00  0.00    +0.000 A 
ATOM     12  C   UNL     1       6.134   4.372  14.533  0.00  0.00    +0.000 A 
ATOM     13  C   UNL     1       5.208   3.685  15.315  0.00  0.00    +0.000 A 
ATOM     14  C   UNL     1       5.171   3.861  16.708  0.00  0.00    +0.000 A 
BRANCH   9  16
ATOM     15  C   UNL     1       7.064   5.531  19.309  0.00  0.00    +0.000 C 
ATOM     16  O   UNL     1       5.911   5.013  18.644  0.00  0.00    +0.000 OA
ENDBRANCH   9  16
ENDBRANCH   8  14
ENDBRANCH   7   8
ENDBRANCH   1   7
BRANCH   5  17
ATOM     17  C   UNL     1       2.294   7.518  19.951  0.00  0.00    +0.000 C 
BRANCH  17  18
ATOM     18  N   UNL     1       1.359   8.639  19.882  0.00  0.00    +0.000 N 
ATOM     19  C   UNL     1       0.469   8.824  21.021  0.00  0.00    +0.000 C 
ATOM     20  C   UNL     1       1.225   9.305  18.659  0.00  0.00    +0.000 C 
ATOM     21  O   UNL     1       1.845   8.954  17.657  0.00  0.00    +0.000 OA
BRANCH  20  22
ATOM     22  C   UNL     1       0.302  10.432  18.568  0.00  0.00    +0.000 A 
ATOM     23  C   UNL     1      -1.079  10.516  18.223  0.00  0.00    +0.000 A 
ATOM     24  C   UNL     1      -1.412  11.849  18.249  0.00  0.00    +0.000 A 
ATOM     25  O   UNL     1      -0.360  12.593  18.665  0.00  0.00    +0.000 OA
ATOM     26  C   UNL     1       0.666  11.728  18.876  0.00  0.00    +0.000 A 
ENDBRANCH  20  22
ENDBRANCH  17  18
ENDBRANCH   5  17
TORSDOF 7
ENDMDL
MODEL 5
REMARK VINA RESULT:      -7.3      4.642      7.505
REMARK  Name = 
REMARK  9 active torsions:
REMARK  status: ('A' for Active; 'I' for Inactive)
REMARK    1  A    between atoms: C_1  and  O_2
REMARK    2  A    between atoms: O_2  and  C_3
REMARK    3  A    between atoms: C_8  and  C_9
REMARK    4  A    between atoms: C_9  and  C_10
REMARK    5  A    between atoms: C_10  and  N_11
REMARK    6  A    between atoms: C_15  and  C_16
REMARK    7  A    between atoms: C_16  and  N_17
REMARK    8  A    between atoms: N_17  and  C_18
REMARK    9  A    between atoms: C_19  and  C_21
REMARK                            x       y       z     vdW  Elec       q    Type
REMARK                         _______ _______ _______ _____ _____    ______ ____
ROOT
ATOM      1  N   UNL     1       2.009   4.340  18.087  0.00  0.00    +0.000 NA
ATOM      2  C   UNL     1       1.960   3.472  19.276  0.00  0.00    +0.000 C 
ATOM      3  C   UNL     1       1.110   4.082  20.395  0.00  0.00    +0.000 C 
ATOM      4  C   UNL     1       1.599   5.477  20.769  0.00  0.00    +0.000 C 
ATOM      5  C   UNL     1       1.621   6.359  19.518  0.00  0.00    +0.000 C 
ATOM      6  C   UNL     1       2.479   5.691  18.435  0.00  0.00    +0.000 C 
ENDROOT
BRANCH   1   7
ATOM      7  C   UNL     1       2.914   3.794  17.052  0.00  0.00    +0.000 C 
BRANCH   7   8
ATOM      8  C   UNL     1       4.166   3.094  17.591  0.00  0.00    +0.000 C 
BRANCH   8  14
ATOM      9  C   UNL     1       6.158   4.364  16.606  0.00  0.00    +0.000 A 
ATOM     10  C   UNL     1       7.171   5.318  16.750  0.00  0.00    +0.000 A 
ATOM     11  C   UNL     1       7.432   5.891  17.996  0.00  0.00    +0.000 A 
ATOM     12  C   UNL     1       6.655   5.543  19.097  0.00  0.00    +0.000 A 
ATOM     13  C   UNL     1       5.587   4.663  18.941  0.00  0.00    +0.000 A 
ATOM     14  C   UNL     1       5.312   4.079  17.693  0.00  0.00    +0.000 A 
BRANCH   9  16
ATOM     15  C   UNL     1       6.399   4.325  14.252  0.00  0.00    +0.000 C 
ATOM     16  O   UNL     1       5.936   3.682  15.440  0.00  0.00    +0.000 OA
ENDBRANCH   9  16
ENDBRANCH   8  14
ENDBRANCH   7   8
ENDBRANCH   1   7
BRANCH   5  17
ATOM     17  C   UNL     1       2.186   7.762  19.787  0.00  0.00    +0.000 C 
BRANCH  17  18
ATOM     18  N   UNL     1       1.481   8.843  19.100  0.00  0.00    +0.000 N 
ATOM     19  C   UNL     1       1.936   9.174  17.755  0.00  0.00    +0.000 C 
ATOM     20  C   UNL     1       0.591   9.622  19.846  0.00  0.00    +0.000 C 
ATOM     21  O   UNL     1       0.416   9.436  21.049  0.00  0.00    +0.000 OA
BRANCH  20  22
ATOM     22  C   UNL     1      -0.129  10.703  19.179  0.00  0.00    +0.000 A 
ATOM     23  C   UNL     1      -1.304  10.716  18.371  0.00  0.00    +0.000 A 
ATOM     24  C   UNL     1      -1.487  12.016  17.964  0.00  0.00    +0.000 A 
ATOM     25  O   UNL     1      -0.559  12.825  18.526  0.00  0.00    +0.000 OA
ATOM     26  C   UNL     1       0.246  12.028  19.276  0.00  0.00    +0.000 A 
ENDBRANCH  20  22
ENDBRANCH  17  18
ENDBRANCH   5  17
TORSDOF 7
ENDMDL
MODEL 6
REMARK VINA RESULT:      -7.2      1.192      1.529
REMARK  Name = 
REMARK  9 active torsions:
REMARK  status: ('A' for Active; 'I' for Inactive)
REMARK    1  A    between atoms: C_1  and  O_2
REMARK    2  A    between atoms: O_2  and  C_3
REMARK    3  A    between atoms: C_8  and  C_9
REMARK    4  A    between atoms: C_9  and  C_10
REMARK    5  A    between atoms: C_10  and  N_11
REMARK    6  A    between atoms: C_15  and  C_16
REMARK    7  A    between atoms: C_16  and  N_17
REMARK    8  A    between atoms: N_17  and  C_18
REMARK    9  A    between atoms: C_19  and  C_21
REMARK                            x       y       z     vdW  Elec       q    Type
REMARK                         _______ _______ _______ _____ _____    ______ ____
ROOT
ATOM      1  N   UNL     1       7.959   7.772  17.706  0.00  0.00    +0.000 NA
ATOM      2  C   UNL     1       8.223   6.991  18.926  0.00  0.00    +0.000 C 
ATOM      3  C   UNL     1       7.863   5.513  18.749  0.00  0.00    +0.000 C 
ATOM      4  C   UNL     1       6.414   5.341  18.306  0.00  0.00    +0.000 C 
ATOM      5  C   UNL     1       6.176   6.149  17.027  0.00  0.00    +0.000 C 
ATOM      6  C   UNL     1       6.562   7.615  17.266  0.00  0.00    +0.000 C 
ENDROOT
BRANCH   1   7
ATOM      7  C   UNL     1       8.211   9.215  17.917  0.00  0.00    +0.000 C 
BRANCH   7   8
ATOM      8  C   UNL     1       8.988   9.554  19.193  0.00  0.00    +0.000 C 
BRANCH   8  14
ATOM      9  C   UNL     1       9.683  11.847  20.094  0.00  0.00    +0.000 A 
ATOM     10  C   UNL     1      10.364  13.056  19.917  0.00  0.00    +0.000 A 
ATOM     11  C   UNL     1      10.908  13.388  18.676  0.00  0.00    +0.000 A 
ATOM     12  C   UNL     1      10.811  12.494  17.613  0.00  0.00    +0.000 A 
ATOM     13  C   UNL     1      10.214  11.250  17.807  0.00  0.00    +0.000 A 
ATOM     14  C   UNL     1       9.663  10.903  19.052  0.00  0.00    +0.000 A 
BRANCH   9  16
ATOM     15  C   UNL     1       9.092  12.499  22.291  0.00  0.00    +0.000 C 
ATOM     16  O   UNL     1       9.027  11.523  21.251  0.00  0.00    +0.000 OA
ENDBRANCH   9  16
ENDBRANCH   8  14
ENDBRANCH   7   8
ENDBRANCH   1   7
BRANCH   5  17
ATOM     17  C   UNL     1       4.715   6.103  16.557  0.00  0.00    +0.000 C 
BRANCH  17  18
ATOM     18  N   UNL     1       3.782   5.526  17.524  0.00  0.00    +0.000 N 
ATOM     19  C   UNL     1       3.339   6.394  18.608  0.00  0.00    +0.000 C 
ATOM     20  C   UNL     1       3.562   4.146  17.478  0.00  0.00    +0.000 C 
ATOM     21  O   UNL     1       4.147   3.421  16.674  0.00  0.00    +0.000 OA
BRANCH  20  22
ATOM     22  C   UNL     1       2.630   3.549  18.429  0.00  0.00    +0.000 A 
ATOM     23  C   UNL     1       1.210   3.419  18.427  0.00  0.00    +0.000 A 
ATOM     24  C   UNL     1       0.867   2.818  19.615  0.00  0.00    +0.000 A 
ATOM     25  O   UNL     1       1.977   2.491  20.318  0.00  0.00    +0.000 OA
ATOM     26  C   UNL     1       3.039   2.916  19.586  0.00  0.00    +0.000 A 
ENDBRANCH  20  22
ENDBRANCH  17  18
ENDBRANCH   5  17
TORSDOF 7
ENDMDL
MODEL 7
REMARK VINA RESULT:      -7.2      4.707      7.972
REMARK  Name = 
REMARK  9 active torsions:
REMARK  status: ('A' for Active; 'I' for Inactive)
REMARK    1  A    between atoms: C_1  and  O_2
REMARK    2  A    between atoms: O_2  and  C_3
REMARK    3  A    between atoms: C_8  and  C_9
REMARK    4  A    between atoms: C_9  and  C_10
REMARK    5  A    between atoms: C_10  and  N_11
REMARK    6  A    between atoms: C_15  and  C_16
REMARK    7  A    between atoms: C_16  and  N_17
REMARK    8  A    between atoms: N_17  and  C_18
REMARK    9  A    between atoms: C_19  and  C_21
REMARK                            x       y       z     vdW  Elec       q    Type
REMARK                         _______ _______ _______ _____ _____    ______ ____
ROOT
ATOM      1  N   UNL     1       4.241   4.300  17.465  0.00  0.00    +0.000 NA
ATOM      2  C   UNL     1       5.426   4.727  16.704  0.00  0.00    +0.000 C 
ATOM      3  C   UNL     1       5.994   6.052  17.223  0.00  0.00    +0.000 C 
ATOM      4  C   UNL     1       4.934   7.149  17.225  0.00  0.00    +0.000 C 
ATOM      5  C   UNL     1       3.724   6.683  18.040  0.00  0.00    +0.000 C 
ATOM      6  C   UNL     1       3.209   5.351  17.477  0.00  0.00    +0.000 C 
ENDROOT
BRANCH   1   7
ATOM      7  C   UNL     1       3.639   3.075  16.894  0.00  0.00    +0.000 C 
BRANCH   7   8
ATOM      8  C   UNL     1       3.530   1.895  17.865  0.00  0.00    +0.000 C 
BRANCH   8  14
ATOM      9  C   UNL     1       3.512   2.448  20.363  0.00  0.00    +0.000 A 
ATOM     10  C   UNL     1       2.822   2.897  21.494  0.00  0.00    +0.000 A 
ATOM     11  C   UNL     1       1.442   3.099  21.448  0.00  0.00    +0.000 A 
ATOM     12  C   UNL     1       0.749   2.892  20.258  0.00  0.00    +0.000 A 
ATOM     13  C   UNL     1       1.444   2.534  19.106  0.00  0.00    +0.000 A 
ATOM     14  C   UNL     1       2.833   2.327  19.138  0.00  0.00    +0.000 A 
BRANCH   9  16
ATOM     15  C   UNL     1       5.215   1.120  21.332  0.00  0.00    +0.000 C 
ATOM     16  O   UNL     1       4.841   2.119  20.383  0.00  0.00    +0.000 OA
ENDBRANCH   9  16
ENDBRANCH   8  14
ENDBRANCH   7   8
ENDBRANCH   1   7
BRANCH   5  17
ATOM     17  C   UNL     1       2.568   7.694  18.023  0.00  0.00    +0.000 C 
BRANCH  17  18
ATOM     18  N   UNL     1       1.992   7.981  19.335  0.00  0.00    +0.000 N 
ATOM     19  C   UNL     1       2.099   6.933  20.343  0.00  0.00    +0.000 C 
ATOM     20  C   UNL     1       1.193   9.121  19.464  0.00  0.00    +0.000 C 
ATOM     21  O   UNL     1       0.949   9.856  18.508  0.00  0.00    +0.000 OA
BRANCH  20  22
ATOM     22  C   UNL     1       0.613   9.431  20.767  0.00  0.00    +0.000 A 
ATOM     23  C   UNL     1      -0.243   8.691  21.636  0.00  0.00    +0.000 A 
ATOM     24  C   UNL     1      -0.517   9.507  22.708  0.00  0.00    +0.000 A 
ATOM     25  O   UNL     1       0.171  10.669  22.608  0.00  0.00    +0.000 OA
ATOM     26  C   UNL     1       0.868  10.607  21.444  0.00  0.00    +0.000 A 
ENDBRANCH  20  22
ENDBRANCH  17  18
ENDBRANCH   5  17
TORSDOF 7
ENDMDL
MODEL 8
REMARK VINA RESULT:      -7.1      4.095      7.187
REMARK  Name = 
REMARK  9 active torsions:
REMARK  status: ('A' for Active; 'I' for Inactive)
REMARK    1  A    between atoms: C_1  and  O_2
REMARK    2  A    between atoms: O_2  and  C_3
REMARK    3  A    between atoms: C_8  and  C_9
REMARK    4  A    between atoms: C_9  and  C_10
REMARK    5  A    between atoms: C_10  and  N_11
REMARK    6  A    between atoms: C_15  and  C_16
REMARK    7  A    between atoms: C_16  and  N_17
REMARK    8  A    between atoms: N_17  and  C_18
REMARK    9  A    between atoms: C_19  and  C_21
REMARK                            x       y       z     vdW  Elec       q    Type
REMARK                         _______ _______ _______ _____ _____    ______ ____
ROOT
ATOM      1  N   UNL     1       2.770   3.875  18.366  0.00  0.00    +0.000 NA
ATOM      2  C   UNL     1       2.153   2.992  19.369  0.00  0.00    +0.000 C 
ATOM      3  C   UNL     1       0.962   3.658  20.064  0.00  0.00    +0.000 C 
ATOM      4  C   UNL     1       1.358   4.990  20.693  0.00  0.00    +0.000 C 
ATOM      5  C   UNL     1       1.978   5.892  19.622  0.00  0.00    +0.000 C 
ATOM      6  C   UNL     1       3.157   5.166  18.959  0.00  0.00    +0.000 C 
ENDROOT
BRANCH   1   7
ATOM      7  C   UNL     1       3.981   3.264  17.773  0.00  0.00    +0.000 C 
BRANCH   7   8
ATOM      8  C   UNL     1       5.245   4.125  17.857  0.00  0.00    +0.000 C 
BRANCH   8  14
ATOM      9  C   UNL     1       7.036   5.023  16.265  0.00  0.00    +0.000 A 
ATOM     10  C   UNL     1       7.548   5.141  14.968  0.00  0.00    +0.000 A 
ATOM     11  C   UNL     1       6.809   4.695  13.872  0.00  0.00    +0.000 A 
ATOM     12  C   UNL     1       5.571   4.091  14.068  0.00  0.00    +0.000 A 
ATOM     13  C   UNL     1       5.097   3.888  15.363  0.00  0.00    +0.000 A 
ATOM     14  C   UNL     1       5.830   4.332  16.475  0.00  0.00    +0.000 A 
BRANCH   9  16
ATOM     15  C   UNL     1       7.491   6.955  17.555  0.00  0.00    +0.000 C 
ATOM     16  O   UNL     1       7.661   5.551  17.364  0.00  0.00    +0.000 OA
ENDBRANCH   9  16
ENDBRANCH   8  14
ENDBRANCH   7   8
ENDBRANCH   1   7
BRANCH   5  17
ATOM     17  C   UNL     1       2.487   7.226  20.187  0.00  0.00    +0.000 C 
BRANCH  17  18
ATOM     18  N   UNL     1       1.558   8.344  20.038  0.00  0.00    +0.000 N 
ATOM     19  C   UNL     1       0.621   8.570  21.131  0.00  0.00    +0.000 C 
ATOM     20  C   UNL     1       1.476   8.965  18.788  0.00  0.00    +0.000 C 
ATOM     21  O   UNL     1       2.137   8.578  17.825  0.00  0.00    +0.000 OA
BRANCH  20  22
ATOM     22  C   UNL     1       0.560  10.089  18.618  0.00  0.00    +0.000 A 
ATOM     23  C   UNL     1       0.665  11.471  18.954  0.00  0.00    +0.000 A 
ATOM     24  C   UNL     1      -0.533  12.052  18.612  0.00  0.00    +0.000 A 
ATOM     25  O   UNL     1      -1.344  11.148  18.013  0.00  0.00    +0.000 OA
ATOM     26  C   UNL     1      -0.670   9.970  18.001  0.00  0.00    +0.000 A 
ENDBRANCH  20  22
ENDBRANCH  17  18
ENDBRANCH   5  17
TORSDOF 7
ENDMDL
MODEL 9
REMARK VINA RESULT:      -7.1      3.958      6.827
REMARK  Name = 
REMARK  9 active torsions:
REMARK  status: ('A' for Active; 'I' for Inactive)
REMARK    1  A    between atoms: C_1  and  O_2
REMARK    2  A    between atoms: O_2  and  C_3
REMARK    3  A    between atoms: C_8  and  C_9
REMARK    4  A    between atoms: C_9  and  C_10
REMARK    5  A    between atoms: C_10  and  N_11
REMARK    6  A    between atoms: C_15  and  C_16
REMARK    7  A    between atoms: C_16  and  N_17
REMARK    8  A    between atoms: N_17  and  C_18
REMARK    9  A    between atoms: C_19  and  C_21
REMARK                            x       y       z     vdW  Elec       q    Type
REMARK                         _______ _______ _______ _____ _____    ______ ____
ROOT
ATOM      1  N   UNL     1       3.219   3.988  18.890  0.00  0.00    +0.000 NA
ATOM      2  C   UNL     1       2.430   3.055  19.711  0.00  0.00    +0.000 C 
ATOM      3  C   UNL     1       1.030   3.599  20.010  0.00  0.00    +0.000 C 
ATOM      4  C   UNL     1       1.096   4.971  20.673  0.00  0.00    +0.000 C 
ATOM      5  C   UNL     1       1.905   5.923  19.787  0.00  0.00    +0.000 C 
ATOM      6  C   UNL     1       3.290   5.318  19.518  0.00  0.00    +0.000 C 
ENDROOT
BRANCH   1   7
ATOM      7  C   UNL     1       4.603   3.502  18.692  0.00  0.00    +0.000 C 
BRANCH   7   8
ATOM      8  C   UNL     1       5.272   3.970  17.396  0.00  0.00    +0.000 C 
BRANCH   8  14
ATOM      9  C   UNL     1       6.592   6.055  16.718  0.00  0.00    +0.000 A 
ATOM     10  C   UNL     1       7.459   7.098  17.060  0.00  0.00    +0.000 A 
ATOM     11  C   UNL     1       8.081   7.121  18.309  0.00  0.00    +0.000 A 
ATOM     12  C   UNL     1       7.808   6.122  19.239  0.00  0.00    +0.000 A 
ATOM     13  C   UNL     1       6.877   5.131  18.938  0.00  0.00    +0.000 A 
ATOM     14  C   UNL     1       6.243   5.096  17.685  0.00  0.00    +0.000 A 
BRANCH   9  16
ATOM     15  C   UNL     1       6.762   5.058  14.577  0.00  0.00    +0.000 C 
ATOM     16  O   UNL     1       6.049   5.917  15.468  0.00  0.00    +0.000 OA
ENDBRANCH   9  16
ENDBRANCH   8  14
ENDBRANCH   7   8
ENDBRANCH   1   7
BRANCH   5  17
ATOM     17  C   UNL     1       2.097   7.308  20.421  0.00  0.00    +0.000 C 
BRANCH  17  18
ATOM     18  N   UNL     1       1.545   8.415  19.641  0.00  0.00    +0.000 N 
ATOM     19  C   UNL     1       2.024   8.557  18.272  0.00  0.00    +0.000 C 
ATOM     20  C   UNL     1       0.787   9.377  20.315  0.00  0.00    +0.000 C 
ATOM     21  O   UNL     1       0.603   9.325  21.530  0.00  0.00    +0.000 OA
BRANCH  20  22
ATOM     22  C   UNL     1       0.220  10.487  19.555  0.00  0.00    +0.000 A 
ATOM     23  C   UNL     1       0.718  11.785  19.238  0.00  0.00    +0.000 A 
ATOM     24  C   UNL     1      -0.277  12.429  18.541  0.00  0.00    +0.000 A 
ATOM     25  O   UNL     1      -1.324  11.598  18.331  0.00  0.00    +0.000 OA
ATOM     26  C   UNL     1      -1.009  10.419  18.928  0.00  0.00    +0.000 A 
ENDBRANCH  20  22
ENDBRANCH  17  18
ENDBRANCH   5  17
TORSDOF 7
ENDMDL
