MODEL 1
REMARK VINA RESULT:      -7.8      0.000      0.000
REMARK  Name = 
REMARK  6 active torsions:
REMARK  status: ('A' for Active; 'I' for Inactive)
REMARK    1  A    between atoms: C_1  and  C_2
REMARK    2  A    between atoms: C_2  and  C_3
REMARK    3  A    between atoms: N_12  and  C_13
REMARK    4  A    between atoms: C_13  and  C_14
REMARK    5  A    between atoms: C_14  and  O_15
REMARK    6  A    between atoms: O_15  and  C_16
REMARK                            x       y       z     vdW  Elec       q    Type
REMARK                         _______ _______ _______ _____ _____    ______ ____
ROOT
ATOM      1  C   UNL     1       5.414   3.584  16.508  0.00  0.00    +0.000 C 
ATOM      2  C   UNL     1       5.239   4.364  17.812  0.00  0.00    +0.000 C 
ATOM      3  N   UNL     1       5.490   3.479  18.927  0.00  0.00    +0.000 N 
ATOM      4  C   UNL     1       4.345   3.083  19.559  0.00  0.00    +0.000 C 
ATOM      5  O   UNL     1       4.353   2.208  20.407  0.00  0.00    +0.000 OA
ATOM      6  N   UNL     1       3.292   3.792  19.069  0.00  0.00    +0.000 N 
ATOM      7  C   UNL     1       3.726   4.613  18.055  0.00  0.00    +0.000 C 
ATOM      8  O   UNL     1       3.008   5.352  17.392  0.00  0.00    +0.000 OA
ATOM      9  H   UNL     1       6.348   2.974  19.098  0.00  0.00    +0.000 HD
ENDROOT
BRANCH   2  10
ATOM     10  C   UNL     1       6.131   5.588  17.844  0.00  0.00    +0.000 A 
ATOM     11  C   UNL     1       7.185   5.719  18.763  0.00  0.00    +0.000 A 
ATOM     12  C   UNL     1       8.051   6.808  18.700  0.00  0.00    +0.000 A 
ATOM     13  C   UNL     1       7.844   7.748  17.712  0.00  0.00    +0.000 A 
ATOM     14  N   UNL     1       6.846   7.671  16.808  0.00  0.00    +0.000 NA
ATOM     15  C   UNL     1       6.018   6.601  16.892  0.00  0.00    +0.000 A 
ENDBRANCH   2  10
BRANCH   6  16
ATOM     16  C   UNL     1       1.893   3.683  19.485  0.00  0.00    +0.000 C 
BRANCH  16  17
ATOM     17  C   UNL     1       1.388   4.900  20.256  0.00  0.00    +0.000 C 
BRANCH  17  18
ATOM     18  O   UNL     1       2.369   5.927  20.399  0.00  0.00    +0.000 OA
BRANCH  18  19
ATOM     19  C   UNL     1       1.860   7.200  20.248  0.00  0.00    +0.000 A 
ATOM     20  C   UNL     1       1.994   7.998  19.100  0.00  0.00    +0.000 A 
ATOM     21  C   UNL     1       1.441   9.279  19.051  0.00  0.00    +0.000 A 
ATOM     22  C   UNL     1       0.747   9.777  20.148  0.00  0.00    +0.000 A 
ATOM     23  C   UNL     1       0.610   8.988  21.290  0.00  0.00    +0.000 A 
ATOM     24 BR   UNL     1      -0.336   9.669  22.779  0.00  0.00    +0.000 Br
ATOM     25  C   UNL     1       1.163   7.706  21.346  0.00  0.00    +0.000 A 
ENDBRANCH  18  19
ENDBRANCH  17  18
ENDBRANCH  16  17
ENDBRANCH   6  16
TORSDOF 5
ENDMDL
MODEL 2
REMARK VINA RESULT:      -7.7      4.047      6.802
REMARK  Name = 
REMARK  6 active torsions:
REMARK  status: ('A' for Active; 'I' for Inactive)
REMARK    1  A    between atoms: C_1  and  C_2
REMARK    2  A    between atoms: C_2  and  C_3
REMARK    3  A    between atoms: N_12  and  C_13
REMARK    4  A    between atoms: C_13  and  C_14
REMARK    5  A    between atoms: C_14  and  O_15
REMARK    6  A    between atoms: O_15  and  C_16
REMARK                            x       y       z     vdW  Elec       q    Type
REMARK                         _______ _______ _______ _____ _____    ______ ____
ROOT
ATOM      1  C   UNL     1       3.476   6.487  19.400  0.00  0.00    +0.000 C 
ATOM      2  C   UNL     1       4.367   5.431  18.742  0.00  0.00    +0.000 C 
ATOM      3  N   UNL     1       5.440   5.090  19.648  0.00  0.00    +0.000 N 
ATOM      4  C   UNL     1       6.635   5.645  19.289  0.00  0.00    +0.000 C 
ATOM      5  O   UNL     1       7.605   5.605  20.026  0.00  0.00    +0.000 OA
ATOM      6  N   UNL     1       6.515   6.217  18.061  0.00  0.00    +0.000 N 
ATOM      7  C   UNL     1       5.215   6.106  17.630  0.00  0.00    +0.000 C 
ATOM      8  O   UNL     1       4.782   6.553  16.575  0.00  0.00    +0.000 OA
ATOM      9  H   UNL     1       5.328   4.718  20.581  0.00  0.00    +0.000 HD
ENDROOT
BRANCH   2  10
ATOM     10  C   UNL     1       3.564   4.216  18.325  0.00  0.00    +0.000 A 
ATOM     11  C   UNL     1       4.058   2.910  18.472  0.00  0.00    +0.000 A 
ATOM     12  C   UNL     1       3.257   1.810  18.176  0.00  0.00    +0.000 A 
ATOM     13  C   UNL     1       1.968   2.041  17.740  0.00  0.00    +0.000 A 
ATOM     14  N   UNL     1       1.447   3.275  17.580  0.00  0.00    +0.000 NA
ATOM     15  C   UNL     1       2.248   4.327  17.875  0.00  0.00    +0.000 A 
ENDBRANCH   2  10
BRANCH   6  16
ATOM     16  C   UNL     1       7.565   6.907  17.309  0.00  0.00    +0.000 C 
BRANCH  16  17
ATOM     17  C   UNL     1       7.585   8.417  17.533  0.00  0.00    +0.000 C 
BRANCH  17  18
ATOM     18  O   UNL     1       8.500   8.828  18.548  0.00  0.00    +0.000 OA
BRANCH  18  19
ATOM     19  C   UNL     1       8.916  10.137  18.419  0.00  0.00    +0.000 A 
ATOM     20  C   UNL     1       8.215  11.150  17.745  0.00  0.00    +0.000 A 
ATOM     21  C   UNL     1       8.727  12.446  17.671  0.00  0.00    +0.000 A 
ATOM     22  C   UNL     1       9.946  12.745  18.269  0.00  0.00    +0.000 A 
ATOM     23  C   UNL     1      10.645  11.743  18.941  0.00  0.00    +0.000 A 
ATOM     24 BR   UNL     1      12.301  12.156  19.756  0.00  0.00    +0.000 Br
ATOM     25  C   UNL     1      10.139  10.443  19.017  0.00  0.00    +0.000 A 
ENDBRANCH  18  19
ENDBRANCH  17  18
ENDBRANCH  16  17
ENDBRANCH   6  16
TORSDOF 5
ENDMDL
MODEL 3
REMARK VINA RESULT:      -7.6      1.498      1.989
REMARK  Name = 
REMARK  6 active torsions:
REMARK  status: ('A' for Active; 'I' for Inactive)
REMARK    1  A    between atoms: C_1  and  C_2
REMARK    2  A    between atoms: C_2  and  C_3
REMARK    3  A    between atoms: N_12  and  C_13
REMARK    4  A    between atoms: C_13  and  C_14
REMARK    5  A    between atoms: C_14  and  O_15
REMARK    6  A    between atoms: O_15  and  C_16
REMARK                            x       y       z     vdW  Elec       q    Type
REMARK                         _______ _______ _______ _____ _____    ______ ____
ROOT
ATOM      1  C   UNL     1       3.472   1.951  17.181  0.00  0.00    +0.000 C 
ATOM      2  C   UNL     1       3.928   3.150  18.016  0.00  0.00    +0.000 C 
ATOM      3  N   UNL     1       4.273   2.694  19.343  0.00  0.00    +0.000 N 
ATOM      4  C   UNL     1       3.324   3.004  20.276  0.00  0.00    +0.000 C 
ATOM      5  O   UNL     1       3.367   2.552  21.406  0.00  0.00    +0.000 OA
ATOM      6  N   UNL     1       2.397   3.828  19.716  0.00  0.00    +0.000 N 
ATOM      7  C   UNL     1       2.690   4.010  18.386  0.00  0.00    +0.000 C 
ATOM      8  O   UNL     1       2.022   4.675  17.603  0.00  0.00    +0.000 OA
ATOM      9  H   UNL     1       4.977   2.004  19.566  0.00  0.00    +0.000 HD
ENDROOT
BRANCH   2  10
ATOM     10  C   UNL     1       5.074   3.881  17.347  0.00  0.00    +0.000 A 
ATOM     11  C   UNL     1       5.132   4.061  15.955  0.00  0.00    +0.000 A 
ATOM     12  C   UNL     1       6.144   4.825  15.380  0.00  0.00    +0.000 A 
ATOM     13  C   UNL     1       7.081   5.400  16.215  0.00  0.00    +0.000 A 
ATOM     14  N   UNL     1       7.071   5.256  17.555  0.00  0.00    +0.000 NA
ATOM     15  C   UNL     1       6.075   4.507  18.089  0.00  0.00    +0.000 A 
ENDBRANCH   2  10
BRANCH   6  16
ATOM     16  C   UNL     1       1.222   4.401  20.377  0.00  0.00    +0.000 C 
BRANCH  16  17
ATOM     17  C   UNL     1       1.456   5.806  20.927  0.00  0.00    +0.000 C 
BRANCH  17  18
ATOM     18  O   UNL     1       2.453   6.536  20.213  0.00  0.00    +0.000 OA
BRANCH  18  19
ATOM     19  C   UNL     1       1.982   7.699  19.641  0.00  0.00    +0.000 A 
ATOM     20  C   UNL     1       2.221   8.110  18.320  0.00  0.00    +0.000 A 
ATOM     21  C   UNL     1       1.697   9.311  17.839  0.00  0.00    +0.000 A 
ATOM     22  C   UNL     1       0.928  10.116  18.673  0.00  0.00    +0.000 A 
ATOM     23  C   UNL     1       0.687   9.711  19.985  0.00  0.00    +0.000 A 
ATOM     24 BR   UNL     1      -0.362  10.807  21.115  0.00  0.00    +0.000 Br
ATOM     25  C   UNL     1       1.210   8.511  20.474  0.00  0.00    +0.000 A 
ENDBRANCH  18  19
ENDBRANCH  17  18
ENDBRANCH  16  17
ENDBRANCH   6  16
TORSDOF 5
ENDMDL
MODEL 4
REMARK VINA RESULT:      -7.5      1.263      1.595
REMARK  Name = 
REMARK  6 active torsions:
REMARK  status: ('A' for Active; 'I' for Inactive)
REMARK    1  A    between atoms: C_1  and  C_2
REMARK    2  A    between atoms: C_2  and  C_3
REMARK    3  A    between atoms: N_12  and  C_13
REMARK    4  A    between atoms: C_13  and  C_14
REMARK    5  A    between atoms: C_14  and  O_15
REMARK    6  A    between atoms: O_15  and  C_16
REMARK                            x       y       z     vdW  Elec       q    Type
REMARK                         _______ _______ _______ _____ _____    ______ ____
ROOT
ATOM      1  C   UNL     1       6.964   4.303  16.279  0.00  0.00    +0.000 C 
ATOM      2  C   UNL     1       6.391   5.051  17.485  0.00  0.00    +0.000 C 
ATOM      3  N   UNL     1       6.325   4.146  18.610  0.00  0.00    +0.000 N 
ATOM      4  C   UNL     1       5.056   3.712  18.870  0.00  0.00    +0.000 C 
ATOM      5  O   UNL     1       4.837   2.818  19.669  0.00  0.00    +0.000 OA
ATOM      6  N   UNL     1       4.176   4.408  18.101  0.00  0.00    +0.000 N 
ATOM      7  C   UNL     1       4.867   5.260  17.273  0.00  0.00    +0.000 C 
ATOM      8  O   UNL     1       4.358   5.999  16.439  0.00  0.00    +0.000 OA
ATOM      9  H   UNL     1       7.108   3.657  19.021  0.00  0.00    +0.000 HD
ENDROOT
BRANCH   2  10
ATOM     10  C   UNL     1       7.200   6.293  17.798  0.00  0.00    +0.000 A 
ATOM     11  C   UNL     1       7.077   7.471  17.043  0.00  0.00    +0.000 A 
ATOM     12  C   UNL     1       7.757   8.628  17.417  0.00  0.00    +0.000 A 
ATOM     13  C   UNL     1       8.547   8.582  18.547  0.00  0.00    +0.000 A 
ATOM     14  N   UNL     1       8.700   7.476  19.304  0.00  0.00    +0.000 NA
ATOM     15  C   UNL     1       8.028   6.365  18.917  0.00  0.00    +0.000 A 
ENDBRANCH   2  10
BRANCH   6  16
ATOM     16  C   UNL     1       2.720   4.259  18.083  0.00  0.00    +0.000 C 
BRANCH  16  17
ATOM     17  C   UNL     1       2.016   5.000  19.218  0.00  0.00    +0.000 C 
BRANCH  17  18
ATOM     18  O   UNL     1       2.760   6.111  19.717  0.00  0.00    +0.000 OA
BRANCH  18  19
ATOM     19  C   UNL     1       2.179   7.331  19.444  0.00  0.00    +0.000 A 
ATOM     20  C   UNL     1       2.140   7.949  18.184  0.00  0.00    +0.000 A 
ATOM     21  C   UNL     1       1.526   9.191  18.015  0.00  0.00    +0.000 A 
ATOM     22  C   UNL     1       0.944   9.831  19.104  0.00  0.00    +0.000 A 
ATOM     23  C   UNL     1       0.979   9.221  20.357  0.00  0.00    +0.000 A 
ATOM     24 BR   UNL     1       0.184  10.093  21.835  0.00  0.00    +0.000 Br
ATOM     25  C   UNL     1       1.593   7.978  20.533  0.00  0.00    +0.000 A 
ENDBRANCH  18  19
ENDBRANCH  17  18
ENDBRANCH  16  17
ENDBRANCH   6  16
TORSDOF 5
ENDMDL
MODEL 5
REMARK VINA RESULT:      -7.5      4.743      6.721
REMARK  Name = 
REMARK  6 active torsions:
REMARK  status: ('A' for Active; 'I' for Inactive)
REMARK    1  A    between atoms: C_1  and  C_2
REMARK    2  A    between atoms: C_2  and  C_3
REMARK    3  A    between atoms: N_12  and  C_13
REMARK    4  A    between atoms: C_13  and  C_14
REMARK    5  A    between atoms: C_14  and  O_15
REMARK    6  A    between atoms: O_15  and  C_16
REMARK                            x       y       z     vdW  Elec       q    Type
REMARK                         _______ _______ _______ _____ _____    ______ ____
ROOT
ATOM      1  C   UNL     1       4.635   3.996  16.222  0.00  0.00    +0.000 C 
ATOM      2  C   UNL     1       5.965   4.648  15.839  0.00  0.00    +0.000 C 
ATOM      3  N   UNL     1       6.984   4.219  16.770  0.00  0.00    +0.000 N 
ATOM      4  C   UNL     1       7.312   5.184  17.680  0.00  0.00    +0.000 C 
ATOM      5  O   UNL     1       8.023   4.943  18.639  0.00  0.00    +0.000 OA
ATOM      6  N   UNL     1       6.711   6.354  17.331  0.00  0.00    +0.000 N 
ATOM      7  C   UNL     1       5.922   6.151  16.225  0.00  0.00    +0.000 C 
ATOM      8  O   UNL     1       5.226   7.005  15.689  0.00  0.00    +0.000 OA
ATOM      9  H   UNL     1       7.262   3.263  16.942  0.00  0.00    +0.000 HD
ENDROOT
BRANCH   2  10
ATOM     10  C   UNL     1       6.336   4.336  14.403  0.00  0.00    +0.000 A 
ATOM     11  C   UNL     1       5.568   3.471  13.606  0.00  0.00    +0.000 A 
ATOM     12  C   UNL     1       5.877   3.285  12.260  0.00  0.00    +0.000 A 
ATOM     13  C   UNL     1       6.951   3.976  11.737  0.00  0.00    +0.000 A 
ATOM     14  N   UNL     1       7.719   4.815  12.460  0.00  0.00    +0.000 NA
ATOM     15  C   UNL     1       7.398   4.978  13.766  0.00  0.00    +0.000 A 
ENDBRANCH   2  10
BRANCH   6  16
ATOM     16  C   UNL     1       6.814   7.635  18.033  0.00  0.00    +0.000 C 
BRANCH  16  17
ATOM     17  C   UNL     1       8.191   8.284  17.922  0.00  0.00    +0.000 C 
BRANCH  17  18
ATOM     18  O   UNL     1       8.144   9.643  17.487  0.00  0.00    +0.000 OA
BRANCH  18  19
ATOM     19  C   UNL     1       8.789  10.517  18.337  0.00  0.00    +0.000 A 
ATOM     20  C   UNL     1       9.346  10.179  19.580  0.00  0.00    +0.000 A 
ATOM     21  C   UNL     1       9.978  11.143  20.367  0.00  0.00    +0.000 A 
ATOM     22  C   UNL     1      10.060  12.458  19.920  0.00  0.00    +0.000 A 
ATOM     23  C   UNL     1       9.509  12.798  18.685  0.00  0.00    +0.000 A 
ATOM     24 BR   UNL     1       9.626  14.586  18.080  0.00  0.00    +0.000 Br
ATOM     25  C   UNL     1       8.874  11.837  17.893  0.00  0.00    +0.000 A 
ENDBRANCH  18  19
ENDBRANCH  17  18
ENDBRANCH  16  17
ENDBRANCH   6  16
TORSDOF 5
ENDMDL
MODEL 6
REMARK VINA RESULT:      -7.5      0.849      1.139
REMARK  Name = 
REMARK  6 active torsions:
REMARK  status: ('A' for Active; 'I' for Inactive)
REMARK    1  A    between atoms: C_1  and  C_2
REMARK    2  A    between atoms: C_2  and  C_3
REMARK    3  A    between atoms: N_12  and  C_13
REMARK    4  A    between atoms: C_13  and  C_14
REMARK    5  A    between atoms: C_14  and  O_15
REMARK    6  A    between atoms: O_15  and  C_16
REMARK                            x       y       z     vdW  Elec       q    Type
REMARK                         _______ _______ _______ _____ _____    ______ ____
ROOT
ATOM      1  C   UNL     1       5.020   4.123  16.120  0.00  0.00    +0.000 C 
ATOM      2  C   UNL     1       5.027   4.641  17.560  0.00  0.00    +0.000 C 
ATOM      3  N   UNL     1       5.042   3.513  18.465  0.00  0.00    +0.000 N 
ATOM      4  C   UNL     1       3.829   3.285  19.050  0.00  0.00    +0.000 C 
ATOM      5  O   UNL     1       3.614   2.281  19.705  0.00  0.00    +0.000 OA
ATOM      6  N   UNL     1       2.986   4.312  18.753  0.00  0.00    +0.000 N 
ATOM      7  C   UNL     1       3.618   5.192  17.908  0.00  0.00    +0.000 C 
ATOM      8  O   UNL     1       3.110   6.202  17.435  0.00  0.00    +0.000 OA
ATOM      9  H   UNL     1       5.749   2.793  18.498  0.00  0.00    +0.000 HD
ENDROOT
BRANCH   2  10
ATOM     10  C   UNL     1       6.190   5.581  17.801  0.00  0.00    +0.000 A 
ATOM     11  C   UNL     1       6.403   6.722  17.009  0.00  0.00    +0.000 A 
ATOM     12  C   UNL     1       7.420   7.621  17.319  0.00  0.00    +0.000 A 
ATOM     13  C   UNL     1       8.206   7.361  18.423  0.00  0.00    +0.000 A 
ATOM     14  N   UNL     1       8.044   6.280  19.213  0.00  0.00    +0.000 NA
ATOM     15  C   UNL     1       7.048   5.421  18.889  0.00  0.00    +0.000 A 
ENDBRANCH   2  10
BRANCH   6  16
ATOM     16  C   UNL     1       1.598   4.461  19.194  0.00  0.00    +0.000 C 
BRANCH  16  17
ATOM     17  C   UNL     1       1.447   5.296  20.463  0.00  0.00    +0.000 C 
BRANCH  17  18
ATOM     18  O   UNL     1       2.349   6.400  20.527  0.00  0.00    +0.000 OA
BRANCH  18  19
ATOM     19  C   UNL     1       1.732   7.625  20.380  0.00  0.00    +0.000 A 
ATOM     20  C   UNL     1       1.752   8.411  19.217  0.00  0.00    +0.000 A 
ATOM     21  C   UNL     1       1.094   9.642  19.174  0.00  0.00    +0.000 A 
ATOM     22  C   UNL     1       0.410  10.102  20.294  0.00  0.00    +0.000 A 
ATOM     23  C   UNL     1       0.387   9.324  21.451  0.00  0.00    +0.000 A 
ATOM     24 BR   UNL     1      -0.548   9.952  22.970  0.00  0.00    +0.000 Br
ATOM     25  C   UNL     1       1.044   8.092  21.501  0.00  0.00    +0.000 A 
ENDBRANCH  18  19
ENDBRANCH  17  18
ENDBRANCH  16  17
ENDBRANCH   6  16
TORSDOF 5
ENDMDL
MODEL 7
REMARK VINA RESULT:      -7.4      2.038      2.924
REMARK  Name = 
REMARK  6 active torsions:
REMARK  status: ('A' for Active; 'I' for Inactive)
REMARK    1  A    between atoms: C_1  and  C_2
REMARK    2  A    between atoms: C_2  and  C_3
REMARK    3  A    between atoms: N_12  and  C_13
REMARK    4  A    between atoms: C_13  and  C_14
REMARK    5  A    between atoms: C_14  and  O_15
REMARK    6  A    between atoms: O_15  and  C_16
REMARK                            x       y       z     vdW  Elec       q    Type
REMARK                         _______ _______ _______ _____ _____    ______ ____
ROOT
ATOM      1  C   UNL     1       2.645   2.515  17.672  0.00  0.00    +0.000 C 
ATOM      2  C   UNL     1       3.414   3.555  18.490  0.00  0.00    +0.000 C 
ATOM      3  N   UNL     1       3.503   3.102  19.860  0.00  0.00    +0.000 N 
ATOM      4  C   UNL     1       2.650   3.764  20.696  0.00  0.00    +0.000 C 
ATOM      5  O   UNL     1       2.468   3.399  21.844  0.00  0.00    +0.000 OA
ATOM      6  N   UNL     1       2.082   4.804  20.027  0.00  0.00    +0.000 N 
ATOM      7  C   UNL     1       2.505   4.792  18.719  0.00  0.00    +0.000 C 
ATOM      8  O   UNL     1       2.144   5.583  17.856  0.00  0.00    +0.000 OA
ATOM      9  H   UNL     1       3.926   2.238  20.169  0.00  0.00    +0.000 HD
ENDROOT
BRANCH   2  10
ATOM     10  C   UNL     1       4.777   3.829  17.889  0.00  0.00    +0.000 A 
ATOM     11  C   UNL     1       5.012   3.748  16.507  0.00  0.00    +0.000 A 
ATOM     12  C   UNL     1       6.248   4.105  15.974  0.00  0.00    +0.000 A 
ATOM     13  C   UNL     1       7.229   4.542  16.842  0.00  0.00    +0.000 A 
ATOM     14  N   UNL     1       7.054   4.635  18.176  0.00  0.00    +0.000 NA
ATOM     15  C   UNL     1       5.842   4.281  18.667  0.00  0.00    +0.000 A 
ENDBRANCH   2  10
BRANCH   6  16
ATOM     16  C   UNL     1       1.120   5.770  20.563  0.00  0.00    +0.000 C 
BRANCH  16  17
ATOM     17  C   UNL     1       1.766   7.054  21.077  0.00  0.00    +0.000 C 
BRANCH  17  18
ATOM     18  O   UNL     1       1.389   8.214  20.337  0.00  0.00    +0.000 OA
BRANCH  18  19
ATOM     19  C   UNL     1       0.621   9.104  21.058  0.00  0.00    +0.000 A 
ATOM     20  C   UNL     1       0.386   9.040  22.440  0.00  0.00    +0.000 A 
ATOM     21  C   UNL     1      -0.412   9.994  23.075  0.00  0.00    +0.000 A 
ATOM     22  C   UNL     1      -0.984  11.022  22.335  0.00  0.00    +0.000 A 
ATOM     23  C   UNL     1      -0.753  11.091  20.962  0.00  0.00    +0.000 A 
ATOM     24 BR   UNL     1      -1.531  12.493  19.960  0.00  0.00    +0.000 Br
ATOM     25  C   UNL     1       0.044  10.139  20.320  0.00  0.00    +0.000 A 
ENDBRANCH  18  19
ENDBRANCH  17  18
ENDBRANCH  16  17
ENDBRANCH   6  16
TORSDOF 5
ENDMDL
MODEL 8
REMARK VINA RESULT:      -7.4      3.861      5.203
REMARK  Name = 
REMARK  6 active torsions:
REMARK  status: ('A' for Active; 'I' for Inactive)
REMARK    1  A    between atoms: C_1  and  C_2
REMARK    2  A    between atoms: C_2  and  C_3
REMARK    3  A    between atoms: N_12  and  C_13
REMARK    4  A    between atoms: C_13  and  C_14
REMARK    5  A    between atoms: C_14  and  O_15
REMARK    6  A    between atoms: O_15  and  C_16
REMARK                            x       y       z     vdW  Elec       q    Type
REMARK                         _______ _______ _______ _____ _____    ______ ____
ROOT
ATOM      1  C   UNL     1       1.847   5.506  17.978  0.00  0.00    +0.000 C 
ATOM      2  C   UNL     1       2.798   6.507  18.638  0.00  0.00    +0.000 C 
ATOM      3  N   UNL     1       2.445   6.639  20.034  0.00  0.00    +0.000 N 
ATOM      4  C   UNL     1       1.783   7.803  20.307  0.00  0.00    +0.000 C 
ATOM      5  O   UNL     1       1.262   8.003  21.390  0.00  0.00    +0.000 OA
ATOM      6  N   UNL     1       1.808   8.603  19.206  0.00  0.00    +0.000 N 
ATOM      7  C   UNL     1       2.427   7.941  18.173  0.00  0.00    +0.000 C 
ATOM      8  O   UNL     1       2.575   8.384  17.041  0.00  0.00    +0.000 OA
ATOM      9  H   UNL     1       2.426   5.890  20.711  0.00  0.00    +0.000 HD
ENDROOT
BRANCH   2  10
ATOM     10  C   UNL     1       4.244   6.097  18.452  0.00  0.00    +0.000 A 
ATOM     11  C   UNL     1       5.048   6.641  17.437  0.00  0.00    +0.000 A 
ATOM     12  C   UNL     1       6.401   6.322  17.354  0.00  0.00    +0.000 A 
ATOM     13  C   UNL     1       6.926   5.462  18.297  0.00  0.00    +0.000 A 
ATOM     14  N   UNL     1       6.197   4.911  19.289  0.00  0.00    +0.000 NA
ATOM     15  C   UNL     1       4.883   5.238  19.346  0.00  0.00    +0.000 A 
ENDBRANCH   2  10
BRANCH   6  16
ATOM     16  C   UNL     1       1.225   9.940  19.082  0.00  0.00    +0.000 C 
BRANCH  16  17
ATOM     17  C   UNL     1      -0.133   9.952  18.384  0.00  0.00    +0.000 C 
BRANCH  17  18
ATOM     18  O   UNL     1      -1.109  10.748  19.055  0.00  0.00    +0.000 OA
BRANCH  18  19
ATOM     19  C   UNL     1      -2.245  10.976  18.307  0.00  0.00    +0.000 A 
ATOM     20  C   UNL     1      -3.401  11.628  18.763  0.00  0.00    +0.000 A 
ATOM     21  C   UNL     1      -4.501  11.806  17.921  0.00  0.00    +0.000 A 
ATOM     22  C   UNL     1      -4.457  11.334  16.614  0.00  0.00    +0.000 A 
ATOM     23  C   UNL     1      -3.310  10.686  16.156  0.00  0.00    +0.000 A 
ATOM     24 BR   UNL     1      -3.254  10.048  14.377  0.00  0.00    +0.000 Br
ATOM     25  C   UNL     1      -2.207  10.504  16.994  0.00  0.00    +0.000 A 
ENDBRANCH  18  19
ENDBRANCH  17  18
ENDBRANCH  16  17
ENDBRANCH   6  16
TORSDOF 5
ENDMDL
MODEL 9
REMARK VINA RESULT:      -7.4      3.906      7.029
REMARK  Name = 
REMARK  6 active torsions:
REMARK  status: ('A' for Active; 'I' for Inactive)
REMARK    1  A    between atoms: C_1  and  C_2
REMARK    2  A    between atoms: C_2  and  C_3
REMARK    3  A    between atoms: N_12  and  C_13
REMARK    4  A    between atoms: C_13  and  C_14
REMARK    5  A    between atoms: C_14  and  O_15
REMARK    6  A    between atoms: O_15  and  C_16
REMARK                            x       y       z     vdW  Elec       q    Type
REMARK                         _______ _______ _______ _____ _____    ______ ____
ROOT
ATOM      1  C   UNL     1       2.202   4.847  20.905  0.00  0.00    +0.000 C 
ATOM      2  C   UNL     1       2.541   5.471  19.550  0.00  0.00    +0.000 C 
ATOM      3  N   UNL     1       1.901   4.704  18.505  0.00  0.00    +0.000 N 
ATOM      4  C   UNL     1       2.773   3.901  17.825  0.00  0.00    +0.000 C 
ATOM      5  O   UNL     1       2.384   3.063  17.031  0.00  0.00    +0.000 OA
ATOM      6  N   UNL     1       4.045   4.195  18.207  0.00  0.00    +0.000 N 
ATOM      7  C   UNL     1       4.018   5.147  19.198  0.00  0.00    +0.000 C 
ATOM      8  O   UNL     1       5.003   5.596  19.771  0.00  0.00    +0.000 OA
ATOM      9  H   UNL     1       0.908   4.540  18.417  0.00  0.00    +0.000 HD
ENDROOT
BRANCH   2  10
ATOM     10  C   UNL     1       2.149   6.934  19.505  0.00  0.00    +0.000 A 
ATOM     11  C   UNL     1       2.273   7.704  18.336  0.00  0.00    +0.000 A 
ATOM     12  C   UNL     1       1.809   9.016  18.297  0.00  0.00    +0.000 A 
ATOM     13  C   UNL     1       1.223   9.533  19.435  0.00  0.00    +0.000 A 
ATOM     14  N   UNL     1       1.082   8.838  20.581  0.00  0.00    +0.000 NA
ATOM     15  C   UNL     1       1.542   7.563  20.592  0.00  0.00    +0.000 A 
ENDBRANCH   2  10
BRANCH   6  16
ATOM     16  C   UNL     1       5.274   3.573  17.710  0.00  0.00    +0.000 C 
BRANCH  16  17
ATOM     17  C   UNL     1       6.138   4.512  16.871  0.00  0.00    +0.000 C 
BRANCH  17  18
ATOM     18  O   UNL     1       5.448   5.068  15.751  0.00  0.00    +0.000 OA
BRANCH  18  19
ATOM     19  C   UNL     1       6.044   4.785  14.540  0.00  0.00    +0.000 A 
ATOM     20  C   UNL     1       7.314   5.228  14.137  0.00  0.00    +0.000 A 
ATOM     21  C   UNL     1       7.826   4.885  12.884  0.00  0.00    +0.000 A 
ATOM     22  C   UNL     1       7.074   4.096  12.020  0.00  0.00    +0.000 A 
ATOM     23  C   UNL     1       5.814   3.653  12.417  0.00  0.00    +0.000 A 
ATOM     24 BR   UNL     1       4.797   2.577  11.240  0.00  0.00    +0.000 Br
ATOM     25  C   UNL     1       5.295   3.993  13.669  0.00  0.00    +0.000 A 
ENDBRANCH  18  19
ENDBRANCH  17  18
ENDBRANCH  16  17
ENDBRANCH   6  16
TORSDOF 5
ENDMDL
