MODEL 1
REMARK VINA RESULT:      -8.1      0.000      0.000
REMARK  Name = 
REMARK  2 active torsions:
REMARK  status: ('A' for Active; 'I' for Inactive)
REMARK    1  A    between atoms: C_16  and  N_17
REMARK    2  A    between atoms: N_17  and  C_18
REMARK                            x       y       z     vdW  Elec       q    Type
REMARK                         _______ _______ _______ _____ _____    ______ ____
ROOT
ATOM      1  C   UNL     1       0.452   3.160  20.362  0.00  0.00    +0.000 C 
ATOM      2  C   UNL     1       0.991   2.717  18.990  0.00  0.00    +0.000 C 
ATOM      3  C   UNL     1       2.275   1.916  19.221  0.00  0.00    +0.000 C 
ATOM      4  C   UNL     1       3.330   2.807  19.870  0.00  0.00    +0.000 C 
ATOM      5  C   UNL     1       2.804   3.338  21.237  0.00  0.00    +0.000 C 
ATOM      6  C   UNL     1       1.475   4.086  21.058  0.00  0.00    +0.000 C 
ATOM      7  C   UNL     1       1.753   5.324  20.201  0.00  0.00    +0.000 C 
ATOM      8  C   UNL     1       2.343   4.889  18.867  0.00  0.00    +0.000 C 
ATOM      9  C   UNL     1       1.251   3.992  18.162  0.00  0.00    +0.000 C 
ATOM     10  C   UNL     1       3.624   4.006  18.949  0.00  0.00    +0.000 C 
ATOM     11  O   UNL     1       3.769   3.763  17.547  0.00  0.00    +0.000 OA
ATOM     12  O   UNL     1       4.671   4.872  17.133  0.00  0.00    +0.000 OA
ATOM     13  C   UNL     1       5.931   4.216  17.229  0.00  0.00    +0.000 C 
ATOM     14  C   UNL     1       5.874   3.368  15.929  0.00  0.00    +0.000 C 
ATOM     15  C   UNL     1       5.551   4.371  14.784  0.00  0.00    +0.000 C 
ATOM     16  C   UNL     1       6.545   5.560  14.685  0.00  0.00    +0.000 C 
ATOM     17  C   UNL     1       7.053   6.101  16.043  0.00  0.00    +0.000 C 
ATOM     18  C   UNL     1       7.191   5.052  17.126  0.00  0.00    +0.000 C 
ATOM     19  O   UNL     1       5.930   3.595  18.539  0.00  0.00    +0.000 OA
ATOM     20  O   UNL     1       4.926   4.467  19.382  0.00  0.00    +0.000 OA
ENDROOT
BRANCH  16  21
ATOM     21  N   UNL     1       7.687   5.195  13.841  0.00  0.00    +0.000 NA
ATOM     22  H   UNL     1       8.201   4.418  14.255  0.00  0.00    +0.000 HD
BRANCH  21  23
ATOM     23  C   UNL     1       7.282   4.884  12.460  0.00  0.00    +0.000 C 
ATOM     24  C   UNL     1       7.710   3.586  11.824  0.00  0.00    +0.000 C 
ATOM     25  C   UNL     1       6.281   3.803  12.214  0.00  0.00    +0.000 C 
ENDBRANCH  21  23
ENDBRANCH  16  21
TORSDOF 2
ENDMDL
MODEL 2
REMARK VINA RESULT:      -8.0      1.166      2.169
REMARK  Name = 
REMARK  2 active torsions:
REMARK  status: ('A' for Active; 'I' for Inactive)
REMARK    1  A    between atoms: C_16  and  N_17
REMARK    2  A    between atoms: N_17  and  C_18
REMARK                            x       y       z     vdW  Elec       q    Type
REMARK                         _______ _______ _______ _____ _____    ______ ____
ROOT
ATOM      1  C   UNL     1       1.411   2.560  21.322  0.00  0.00    +0.000 C 
ATOM      2  C   UNL     1       2.921   2.630  21.028  0.00  0.00    +0.000 C 
ATOM      3  C   UNL     1       3.364   4.089  21.167  0.00  0.00    +0.000 C 
ATOM      4  C   UNL     1       2.646   4.949  20.130  0.00  0.00    +0.000 C 
ATOM      5  C   UNL     1       1.106   4.858  20.344  0.00  0.00    +0.000 C 
ATOM      6  C   UNL     1       0.630   3.398  20.286  0.00  0.00    +0.000 C 
ATOM      7  C   UNL     1       0.891   2.883  18.868  0.00  0.00    +0.000 C 
ATOM      8  C   UNL     1       2.376   3.010  18.553  0.00  0.00    +0.000 C 
ATOM      9  C   UNL     1       3.137   2.100  19.596  0.00  0.00    +0.000 C 
ATOM     10  C   UNL     1       2.984   4.435  18.717  0.00  0.00    +0.000 C 
ATOM     11  O   UNL     1       4.342   4.089  18.430  0.00  0.00    +0.000 OA
ATOM     12  O   UNL     1       4.416   4.325  16.963  0.00  0.00    +0.000 OA
ATOM     13  C   UNL     1       4.907   5.663  16.952  0.00  0.00    +0.000 C 
ATOM     14  C   UNL     1       6.398   5.387  17.292  0.00  0.00    +0.000 C 
ATOM     15  C   UNL     1       6.877   4.323  16.263  0.00  0.00    +0.000 C 
ATOM     16  C   UNL     1       6.664   4.736  14.781  0.00  0.00    +0.000 C 
ATOM     17  C   UNL     1       5.361   5.523  14.503  0.00  0.00    +0.000 C 
ATOM     18  C   UNL     1       4.914   6.420  15.639  0.00  0.00    +0.000 C 
ATOM     19  O   UNL     1       4.044   6.385  17.864  0.00  0.00    +0.000 OA
ATOM     20  O   UNL     1       2.700   5.565  17.859  0.00  0.00    +0.000 OA
ENDROOT
BRANCH  16  21
ATOM     21  N   UNL     1       7.816   5.503  14.299  0.00  0.00    +0.000 NA
ATOM     22  H   UNL     1       8.595   5.422  14.952  0.00  0.00    +0.000 HD
BRANCH  21  23
ATOM     23  C   UNL     1       8.221   5.106  12.941  0.00  0.00    +0.000 C 
ATOM     24  C   UNL     1       7.310   4.247  12.103  0.00  0.00    +0.000 C 
ATOM     25  C   UNL     1       7.513   5.690  11.762  0.00  0.00    +0.000 C 
ENDBRANCH  21  23
ENDBRANCH  16  21
TORSDOF 2
ENDMDL
MODEL 3
REMARK VINA RESULT:      -7.8      9.873     12.894
REMARK  Name = 
REMARK  2 active torsions:
REMARK  status: ('A' for Active; 'I' for Inactive)
REMARK    1  A    between atoms: C_16  and  N_17
REMARK    2  A    between atoms: N_17  and  C_18
REMARK                            x       y       z     vdW  Elec       q    Type
REMARK                         _______ _______ _______ _____ _____    ______ ____
ROOT
ATOM      1  C   UNL     1      11.227  11.900  17.474  0.00  0.00    +0.000 C 
ATOM      2  C   UNL     1       9.795  11.704  18.005  0.00  0.00    +0.000 C 
ATOM      3  C   UNL     1       9.172  13.087  18.211  0.00  0.00    +0.000 C 
ATOM      4  C   UNL     1       9.959  13.857  19.268  0.00  0.00    +0.000 C 
ATOM      5  C   UNL     1      11.438  14.024  18.806  0.00  0.00    +0.000 C 
ATOM      6  C   UNL     1      12.078  12.658  18.517  0.00  0.00    +0.000 C 
ATOM      7  C   UNL     1      12.132  11.884  19.836  0.00  0.00    +0.000 C 
ATOM      8  C   UNL     1      10.722  11.742  20.393  0.00  0.00    +0.000 C 
ATOM      9  C   UNL     1       9.897  10.918  19.329  0.00  0.00    +0.000 C 
ATOM     10  C   UNL     1       9.937  13.073  20.595  0.00  0.00    +0.000 C 
ATOM     11  O   UNL     1       8.700  12.494  21.017  0.00  0.00    +0.000 OA
ATOM     12  O   UNL     1       8.859  12.471  22.497  0.00  0.00    +0.000 OA
ATOM     13  C   UNL     1       8.230  13.704  22.833  0.00  0.00    +0.000 C 
ATOM     14  C   UNL     1       6.744  13.278  22.680  0.00  0.00    +0.000 C 
ATOM     15  C   UNL     1       6.578  12.001  23.554  0.00  0.00    +0.000 C 
ATOM     16  C   UNL     1       7.001  12.189  25.036  0.00  0.00    +0.000 C 
ATOM     17  C   UNL     1       8.235  13.097  25.252  0.00  0.00    +0.000 C 
ATOM     18  C   UNL     1       8.370  14.224  24.249  0.00  0.00    +0.000 C 
ATOM     19  O   UNL     1       8.831  14.684  21.950  0.00  0.00    +0.000 OA
ATOM     20  O   UNL     1      10.239  14.074  21.595  0.00  0.00    +0.000 OA
ENDROOT
BRANCH  16  21
ATOM     21  N   UNL     1       5.873  12.694  25.824  0.00  0.00    +0.000 NA
ATOM     22  H   UNL     1       4.994  12.526  25.334  0.00  0.00    +0.000 HD
BRANCH  21  23
ATOM     23  C   UNL     1       5.839  12.120  27.179  0.00  0.00    +0.000 C 
ATOM     24  C   UNL     1       4.647  11.314  27.627  0.00  0.00    +0.000 C 
ATOM     25  C   UNL     1       5.955  10.640  27.354  0.00  0.00    +0.000 C 
ENDBRANCH  21  23
ENDBRANCH  16  21
TORSDOF 2
ENDMDL
MODEL 4
REMARK VINA RESULT:      -7.7      9.998     12.925
REMARK  Name = 
REMARK  2 active torsions:
REMARK  status: ('A' for Active; 'I' for Inactive)
REMARK    1  A    between atoms: C_16  and  N_17
REMARK    2  A    between atoms: N_17  and  C_18
REMARK                            x       y       z     vdW  Elec       q    Type
REMARK                         _______ _______ _______ _____ _____    ______ ____
ROOT
ATOM      1  C   UNL     1      11.550  12.404  17.402  0.00  0.00    +0.000 C 
ATOM      2  C   UNL     1      10.721  11.505  18.338  0.00  0.00    +0.000 C 
ATOM      3  C   UNL     1       9.259  11.953  18.254  0.00  0.00    +0.000 C 
ATOM      4  C   UNL     1       9.130  13.390  18.753  0.00  0.00    +0.000 C 
ATOM      5  C   UNL     1      10.007  14.333  17.876  0.00  0.00    +0.000 C 
ATOM      6  C   UNL     1      11.472  13.873  17.874  0.00  0.00    +0.000 C 
ATOM      7  C   UNL     1      12.002  14.009  19.303  0.00  0.00    +0.000 C 
ATOM      8  C   UNL     1      11.145  13.169  20.239  0.00  0.00    +0.000 C 
ATOM      9  C   UNL     1      11.291  11.671  19.761  0.00  0.00    +0.000 C 
ATOM     10  C   UNL     1       9.617  13.471  20.213  0.00  0.00    +0.000 C 
ATOM     11  O   UNL     1       9.210  12.442  21.119  0.00  0.00    +0.000 OA
ATOM     12  O   UNL     1       9.236  13.154  22.425  0.00  0.00    +0.000 OA
ATOM     13  C   UNL     1       7.874  13.565  22.510  0.00  0.00    +0.000 C 
ATOM     14  C   UNL     1       7.227  12.212  22.913  0.00  0.00    +0.000 C 
ATOM     15  C   UNL     1       8.019  11.719  24.158  0.00  0.00    +0.000 C 
ATOM     16  C   UNL     1       8.060  12.740  25.328  0.00  0.00    +0.000 C 
ATOM     17  C   UNL     1       8.175  14.221  24.897  0.00  0.00    +0.000 C 
ATOM     18  C   UNL     1       7.483  14.552  23.591  0.00  0.00    +0.000 C 
ATOM     19  O   UNL     1       7.592  14.188  21.232  0.00  0.00    +0.000 OA
ATOM     20  O   UNL     1       8.998  14.677  20.719  0.00  0.00    +0.000 OA
ENDROOT
BRANCH  16  21
ATOM     21  N   UNL     1       6.888  12.566  26.191  0.00  0.00    +0.000 NA
ATOM     22  H   UNL     1       6.128  13.174  25.885  0.00  0.00    +0.000 HD
BRANCH  21  23
ATOM     23  C   UNL     1       6.446  11.163  26.255  0.00  0.00    +0.000 C 
ATOM     24  C   UNL     1       6.022  10.566  27.572  0.00  0.00    +0.000 C 
ATOM     25  C   UNL     1       5.006  10.856  26.512  0.00  0.00    +0.000 C 
ENDBRANCH  21  23
ENDBRANCH  16  21
TORSDOF 2
ENDMDL
MODEL 5
REMARK VINA RESULT:      -7.6      2.598      4.126
REMARK  Name = 
REMARK  2 active torsions:
REMARK  status: ('A' for Active; 'I' for Inactive)
REMARK    1  A    between atoms: C_16  and  N_17
REMARK    2  A    between atoms: N_17  and  C_18
REMARK                            x       y       z     vdW  Elec       q    Type
REMARK                         _______ _______ _______ _____ _____    ______ ____
ROOT
ATOM      1  C   UNL     1       0.787   2.672  19.184  0.00  0.00    +0.000 C 
ATOM      2  C   UNL     1       1.168   3.930  18.383  0.00  0.00    +0.000 C 
ATOM      3  C   UNL     1       2.068   3.498  17.222  0.00  0.00    +0.000 C 
ATOM      4  C   UNL     1       3.355   2.883  17.765  0.00  0.00    +0.000 C 
ATOM      5  C   UNL     1       3.016   1.640  18.642  0.00  0.00    +0.000 C 
ATOM      6  C   UNL     1       2.054   2.018  19.778  0.00  0.00    +0.000 C 
ATOM      7  C   UNL     1       2.787   2.998  20.698  0.00  0.00    +0.000 C 
ATOM      8  C   UNL     1       3.219   4.216  19.892  0.00  0.00    +0.000 C 
ATOM      9  C   UNL     1       1.897   4.888  19.347  0.00  0.00    +0.000 C 
ATOM     10  C   UNL     1       4.090   3.921  18.634  0.00  0.00    +0.000 C 
ATOM     11  O   UNL     1       4.178   5.265  18.154  0.00  0.00    +0.000 OA
ATOM     12  O   UNL     1       5.432   5.742  18.798  0.00  0.00    +0.000 OA
ATOM     13  C   UNL     1       6.366   5.463  17.759  0.00  0.00    +0.000 C 
ATOM     14  C   UNL     1       6.044   6.647  16.807  0.00  0.00    +0.000 C 
ATOM     15  C   UNL     1       6.141   7.931  17.680  0.00  0.00    +0.000 C 
ATOM     16  C   UNL     1       7.500   8.098  18.412  0.00  0.00    +0.000 C 
ATOM     17  C   UNL     1       8.129   6.783  18.930  0.00  0.00    +0.000 C 
ATOM     18  C   UNL     1       7.846   5.569  18.070  0.00  0.00    +0.000 C 
ATOM     19  O   UNL     1       6.102   4.090  17.377  0.00  0.00    +0.000 OA
ATOM     20  O   UNL     1       5.457   3.447  18.662  0.00  0.00    +0.000 OA
ENDROOT
BRANCH  16  21
ATOM     21  N   UNL     1       8.457   8.795  17.547  0.00  0.00    +0.000 NA
ATOM     22  H   UNL     1       8.157   8.747  16.574  0.00  0.00    +0.000 HD
BRANCH  21  23
ATOM     23  C   UNL     1       8.670  10.191  17.964  0.00  0.00    +0.000 C 
ATOM     24  C   UNL     1       9.451  10.492  19.218  0.00  0.00    +0.000 C 
ATOM     25  C   UNL     1      10.038  10.784  17.873  0.00  0.00    +0.000 C 
ENDBRANCH  21  23
ENDBRANCH  16  21
TORSDOF 2
ENDMDL
MODEL 6
REMARK VINA RESULT:      -7.5      1.081      1.571
REMARK  Name = 
REMARK  2 active torsions:
REMARK  status: ('A' for Active; 'I' for Inactive)
REMARK    1  A    between atoms: C_16  and  N_17
REMARK    2  A    between atoms: N_17  and  C_18
REMARK                            x       y       z     vdW  Elec       q    Type
REMARK                         _______ _______ _______ _____ _____    ______ ____
ROOT
ATOM      1  C   UNL     1       1.329   2.513  21.270  0.00  0.00    +0.000 C 
ATOM      2  C   UNL     1       2.537   1.976  20.481  0.00  0.00    +0.000 C 
ATOM      3  C   UNL     1       3.755   2.834  20.836  0.00  0.00    +0.000 C 
ATOM      4  C   UNL     1       3.516   4.276  20.398  0.00  0.00    +0.000 C 
ATOM      5  C   UNL     1       2.259   4.846  21.120  0.00  0.00    +0.000 C 
ATOM      6  C   UNL     1       1.028   3.969  20.849  0.00  0.00    +0.000 C 
ATOM      7  C   UNL     1       0.726   4.046  19.350  0.00  0.00    +0.000 C 
ATOM      8  C   UNL     1       1.943   3.573  18.568  0.00  0.00    +0.000 C 
ATOM      9  C   UNL     1       2.188   2.068  18.982  0.00  0.00    +0.000 C 
ATOM     10  C   UNL     1       3.278   4.316  18.876  0.00  0.00    +0.000 C 
ATOM     11  O   UNL     1       4.125   3.526  18.038  0.00  0.00    +0.000 OA
ATOM     12  O   UNL     1       4.099   4.293  16.763  0.00  0.00    +0.000 OA
ATOM     13  C   UNL     1       5.262   5.098  16.933  0.00  0.00    +0.000 C 
ATOM     14  C   UNL     1       6.352   4.034  16.627  0.00  0.00    +0.000 C 
ATOM     15  C   UNL     1       5.968   3.420  15.250  0.00  0.00    +0.000 C 
ATOM     16  C   UNL     1       5.810   4.466  14.113  0.00  0.00    +0.000 C 
ATOM     17  C   UNL     1       5.174   5.809  14.545  0.00  0.00    +0.000 C 
ATOM     18  C   UNL     1       5.504   6.234  15.960  0.00  0.00    +0.000 C 
ATOM     19  O   UNL     1       5.123   5.680  18.253  0.00  0.00    +0.000 OA
ATOM     20  O   UNL     1       3.570   5.686  18.513  0.00  0.00    +0.000 OA
ENDROOT
BRANCH  16  21
ATOM     21  N   UNL     1       7.105   4.716  13.473  0.00  0.00    +0.000 NA
ATOM     22  H   UNL     1       7.855   4.274  14.003  0.00  0.00    +0.000 HD
BRANCH  21  23
ATOM     23  C   UNL     1       7.124   4.280  12.066  0.00  0.00    +0.000 C 
ATOM     24  C   UNL     1       7.456   2.849  11.726  0.00  0.00    +0.000 C 
ATOM     25  C   UNL     1       6.058   3.360  11.567  0.00  0.00    +0.000 C 
ENDBRANCH  21  23
ENDBRANCH  16  21
TORSDOF 2
ENDMDL
MODEL 7
REMARK VINA RESULT:      -7.5      4.322      6.664
REMARK  Name = 
REMARK  2 active torsions:
REMARK  status: ('A' for Active; 'I' for Inactive)
REMARK    1  A    between atoms: C_16  and  N_17
REMARK    2  A    between atoms: N_17  and  C_18
REMARK                            x       y       z     vdW  Elec       q    Type
REMARK                         _______ _______ _______ _____ _____    ______ ____
ROOT
ATOM      1  C   UNL     1       3.237   1.630  18.196  0.00  0.00    +0.000 C 
ATOM      2  C   UNL     1       3.653   2.962  17.548  0.00  0.00    +0.000 C 
ATOM      3  C   UNL     1       4.428   3.775  18.588  0.00  0.00    +0.000 C 
ATOM      4  C   UNL     1       3.521   4.097  19.773  0.00  0.00    +0.000 C 
ATOM      5  C   UNL     1       3.017   2.775  20.425  0.00  0.00    +0.000 C 
ATOM      6  C   UNL     1       2.296   1.895  19.393  0.00  0.00    +0.000 C 
ATOM      7  C   UNL     1       1.043   2.647  18.938  0.00  0.00    +0.000 C 
ATOM      8  C   UNL     1       1.450   3.992  18.352  0.00  0.00    +0.000 C 
ATOM      9  C   UNL     1       2.364   3.682  17.102  0.00  0.00    +0.000 C 
ATOM     10  C   UNL     1       2.305   4.905  19.281  0.00  0.00    +0.000 C 
ATOM     11  O   UNL     1       2.530   5.962  18.344  0.00  0.00    +0.000 OA
ATOM     12  O   UNL     1       1.396   6.880  18.637  0.00  0.00    +0.000 OA
ATOM     13  C   UNL     1       2.025   7.763  19.561  0.00  0.00    +0.000 C 
ATOM     14  C   UNL     1       2.859   8.616  18.567  0.00  0.00    +0.000 C 
ATOM     15  C   UNL     1       1.852   9.124  17.497  0.00  0.00    +0.000 C 
ATOM     16  C   UNL     1       0.640   9.897  18.084  0.00  0.00    +0.000 C 
ATOM     17  C   UNL     1       0.102   9.345  19.426  0.00  0.00    +0.000 C 
ATOM     18  C   UNL     1       1.160   8.744  20.328  0.00  0.00    +0.000 C 
ATOM     19  O   UNL     1       2.661   6.896  20.533  0.00  0.00    +0.000 OA
ATOM     20  O   UNL     1       1.820   5.565  20.474  0.00  0.00    +0.000 OA
ENDROOT
BRANCH  16  21
ATOM     21  N   UNL     1       0.970  11.318  18.232  0.00  0.00    +0.000 NA
ATOM     22  H   UNL     1       1.169  11.733  17.322  0.00  0.00    +0.000 HD
BRANCH  21  23
ATOM     23  C   UNL     1      -0.088  12.066  18.932  0.00  0.00    +0.000 C 
ATOM     24  C   UNL     1      -0.283  13.534  18.654  0.00  0.00    +0.000 C 
ATOM     25  C   UNL     1      -1.285  12.534  18.171  0.00  0.00    +0.000 C 
ENDBRANCH  21  23
ENDBRANCH  16  21
TORSDOF 2
ENDMDL
MODEL 8
REMARK VINA RESULT:      -7.2      9.762     12.878
REMARK  Name = 
REMARK  2 active torsions:
REMARK  status: ('A' for Active; 'I' for Inactive)
REMARK    1  A    between atoms: C_16  and  N_17
REMARK    2  A    between atoms: N_17  and  C_18
REMARK                            x       y       z     vdW  Elec       q    Type
REMARK                         _______ _______ _______ _____ _____    ______ ____
ROOT
ATOM      1  C   UNL     1      11.579  13.267  17.254  0.00  0.00    +0.000 C 
ATOM      2  C   UNL     1      10.957  14.306  18.205  0.00  0.00    +0.000 C 
ATOM      3  C   UNL     1      11.614  14.146  19.578  0.00  0.00    +0.000 C 
ATOM      4  C   UNL     1      11.309  12.760  20.139  0.00  0.00    +0.000 C 
ATOM      5  C   UNL     1      11.862  11.667  19.175  0.00  0.00    +0.000 C 
ATOM      6  C   UNL     1      11.282  11.839  17.763  0.00  0.00    +0.000 C 
ATOM      7  C   UNL     1       9.772  11.601  17.851  0.00  0.00    +0.000 C 
ATOM      8  C   UNL     1       9.164  12.588  18.838  0.00  0.00    +0.000 C 
ATOM      9  C   UNL     1       9.440  14.031  18.259  0.00  0.00    +0.000 C 
ATOM     10  C   UNL     1       9.783  12.584  20.268  0.00  0.00    +0.000 C 
ATOM     11  O   UNL     1       9.020  13.670  20.801  0.00  0.00    +0.000 OA
ATOM     12  O   UNL     1       7.856  12.964  21.402  0.00  0.00    +0.000 OA
ATOM     13  C   UNL     1       8.318  12.821  22.742  0.00  0.00    +0.000 C 
ATOM     14  C   UNL     1       8.086  14.272  23.244  0.00  0.00    +0.000 C 
ATOM     15  C   UNL     1       6.602  14.602  22.913  0.00  0.00    +0.000 C 
ATOM     16  C   UNL     1       5.582  13.590  23.502  0.00  0.00    +0.000 C 
ATOM     17  C   UNL     1       6.048  12.115  23.495  0.00  0.00    +0.000 C 
ATOM     18  C   UNL     1       7.538  11.925  23.684  0.00  0.00    +0.000 C 
ATOM     19  O   UNL     1       9.651  12.266  22.621  0.00  0.00    +0.000 OA
ATOM     20  O   UNL     1       9.636  11.518  21.235  0.00  0.00    +0.000 OA
ENDROOT
BRANCH  16  21
ATOM     21  N   UNL     1       5.210  13.984  24.865  0.00  0.00    +0.000 NA
ATOM     22  H   UNL     1       4.207  14.158  24.923  0.00  0.00    +0.000 HD
BRANCH  21  23
ATOM     23  C   UNL     1       5.631  12.990  25.866  0.00  0.00    +0.000 C 
ATOM     24  C   UNL     1       6.337  13.436  27.121  0.00  0.00    +0.000 C 
ATOM     25  C   UNL     1       4.930  12.931  27.184  0.00  0.00    +0.000 C 
ENDBRANCH  21  23
ENDBRANCH  16  21
TORSDOF 2
ENDMDL
MODEL 9
REMARK VINA RESULT:      -7.0     10.448     12.971
REMARK  Name = 
REMARK  2 active torsions:
REMARK  status: ('A' for Active; 'I' for Inactive)
REMARK    1  A    between atoms: C_16  and  N_17
REMARK    2  A    between atoms: N_17  and  C_18
REMARK                            x       y       z     vdW  Elec       q    Type
REMARK                         _______ _______ _______ _____ _____    ______ ____
ROOT
ATOM      1  C   UNL     1      11.925  11.463  18.877  0.00  0.00    +0.000 C 
ATOM      2  C   UNL     1      10.409  11.353  19.119  0.00  0.00    +0.000 C 
ATOM      3  C   UNL     1       9.692  11.749  17.826  0.00  0.00    +0.000 C 
ATOM      4  C   UNL     1      10.004  13.204  17.486  0.00  0.00    +0.000 C 
ATOM      5  C   UNL     1      11.541  13.383  17.297  0.00  0.00    +0.000 C 
ATOM      6  C   UNL     1      12.304  12.925  18.549  0.00  0.00    +0.000 C 
ATOM      7  C   UNL     1      11.908  13.856  19.698  0.00  0.00    +0.000 C 
ATOM      8  C   UNL     1      10.400  13.794  19.897  0.00  0.00    +0.000 C 
ATOM      9  C   UNL     1      10.057  12.301  20.284  0.00  0.00    +0.000 C 
ATOM     10  C   UNL     1       9.536  14.111  18.640  0.00  0.00    +0.000 C 
ATOM     11  O   UNL     1       8.257  13.854  19.226  0.00  0.00    +0.000 OA
ATOM     12  O   UNL     1       7.868  15.202  19.721  0.00  0.00    +0.000 OA
ATOM     13  C   UNL     1       7.104  15.663  18.611  0.00  0.00    +0.000 C 
ATOM     14  C   UNL     1       5.796  14.860  18.853  0.00  0.00    +0.000 C 
ATOM     15  C   UNL     1       5.382  15.161  20.322  0.00  0.00    +0.000 C 
ATOM     16  C   UNL     1       5.227  16.673  20.639  0.00  0.00    +0.000 C 
ATOM     17  C   UNL     1       6.255  17.595  19.940  0.00  0.00    +0.000 C 
ATOM     18  C   UNL     1       6.694  17.121  18.570  0.00  0.00    +0.000 C 
ATOM     19  O   UNL     1       7.940  15.415  17.453  0.00  0.00    +0.000 OA
ATOM     20  O   UNL     1       9.407  15.416  18.027  0.00  0.00    +0.000 OA
ENDROOT
BRANCH  16  21
ATOM     21  N   UNL     1       3.868  17.120  20.320  0.00  0.00    +0.000 NA
ATOM     22  H   UNL     1       3.759  17.237  19.313  0.00  0.00    +0.000 HD
BRANCH  21  23
ATOM     23  C   UNL     1       2.842  16.211  20.860  0.00  0.00    +0.000 C 
ATOM     24  C   UNL     1       1.458  16.729  21.157  0.00  0.00    +0.000 C 
ATOM     25  C   UNL     1       1.690  15.810  19.998  0.00  0.00    +0.000 C 
ENDBRANCH  21  23
ENDBRANCH  16  21
TORSDOF 2
ENDMDL
