MODEL 1
REMARK VINA RESULT:      -7.8      0.000      0.000
REMARK  Name = 
REMARK  2 active torsions:
REMARK  status: ('A' for Active; 'I' for Inactive)
REMARK    1  A    between atoms: C_2  and  C_3
REMARK    2  A    between atoms: C_3  and  C_4
REMARK                            x       y       z     vdW  Elec       q    Type
REMARK                         _______ _______ _______ _____ _____    ______ ____
ROOT
ATOM      1  C   UNL     1       4.644   4.110  17.408  0.00  0.00    +0.000 A 
ATOM      2  C   UNL     1       4.392   5.063  16.414  0.00  0.00    +0.000 A 
ATOM      3  C   UNL     1       5.187   6.209  16.312  0.00  0.00    +0.000 A 
ATOM      4  C   UNL     1       6.245   6.436  17.207  0.00  0.00    +0.000 A 
ATOM      5  C   UNL     1       7.039   7.593  17.132  0.00  0.00    +0.000 A 
ATOM      6  C   UNL     1       8.074   7.810  18.042  0.00  0.00    +0.000 A 
ATOM      7  C   UNL     1       8.332   6.871  19.038  0.00  0.00    +0.000 A 
ATOM      8  C   UNL     1       7.556   5.714  19.121  0.00  0.00    +0.000 A 
ATOM      9  C   UNL     1       6.507   5.482  18.216  0.00  0.00    +0.000 A 
ATOM     10  C   UNL     1       5.705   4.329  18.300  0.00  0.00    +0.000 A 
ENDROOT
BRANCH   1  11
ATOM     11  C   UNL     1       3.748   2.896  17.554  0.00  0.00    +0.000 C 
BRANCH  11  13
ATOM     12  O   UNL     1       1.426   3.675  17.423  0.00  0.00    +0.000 OA
ATOM     13  C   UNL     1       2.372   3.242  18.074  0.00  0.00    +0.000 C 
ATOM     14  N   UNL     1       2.188   3.004  19.450  0.00  0.00    +0.000 N 
ATOM     15  C   UNL     1       1.001   3.129  20.148  0.00  0.00    +0.000 A 
ATOM     16  C   UNL     1       1.274   2.849  21.463  0.00  0.00    +0.000 A 
ATOM     17  C   UNL     1       2.650   2.569  21.479  0.00  0.00    +0.000 A 
ATOM     18  N   UNL     1       3.206   2.622  20.265  0.00  0.00    +0.000 NA
ENDBRANCH  11  13
ENDBRANCH   1  11
TORSDOF 2
ENDMDL
MODEL 2
REMARK VINA RESULT:      -7.7      2.404      5.819
REMARK  Name = 
REMARK  2 active torsions:
REMARK  status: ('A' for Active; 'I' for Inactive)
REMARK    1  A    between atoms: C_2  and  C_3
REMARK    2  A    between atoms: C_3  and  C_4
REMARK                            x       y       z     vdW  Elec       q    Type
REMARK                         _______ _______ _______ _____ _____    ______ ____
ROOT
ATOM      1  C   UNL     1       4.233   4.004  17.465  0.00  0.00    +0.000 A 
ATOM      2  C   UNL     1       2.976   4.498  17.098  0.00  0.00    +0.000 A 
ATOM      3  C   UNL     1       1.886   4.380  17.965  0.00  0.00    +0.000 A 
ATOM      4  C   UNL     1       2.022   3.754  19.214  0.00  0.00    +0.000 A 
ATOM      5  C   UNL     1       0.932   3.606  20.088  0.00  0.00    +0.000 A 
ATOM      6  C   UNL     1       1.082   2.963  21.318  0.00  0.00    +0.000 A 
ATOM      7  C   UNL     1       2.326   2.463  21.692  0.00  0.00    +0.000 A 
ATOM      8  C   UNL     1       3.421   2.607  20.837  0.00  0.00    +0.000 A 
ATOM      9  C   UNL     1       3.285   3.247  19.594  0.00  0.00    +0.000 A 
ATOM     10  C   UNL     1       4.376   3.383  18.715  0.00  0.00    +0.000 A 
ENDROOT
BRANCH   1  11
ATOM     11  C   UNL     1       5.402   4.082  16.501  0.00  0.00    +0.000 C 
BRANCH  11  13
ATOM     12  O   UNL     1       5.541   6.225  15.315  0.00  0.00    +0.000 OA
ATOM     13  C   UNL     1       5.862   5.501  16.253  0.00  0.00    +0.000 C 
ATOM     14  N   UNL     1       6.728   6.017  17.235  0.00  0.00    +0.000 N 
ATOM     15  C   UNL     1       7.202   7.314  17.305  0.00  0.00    +0.000 A 
ATOM     16  C   UNL     1       8.047   7.378  18.383  0.00  0.00    +0.000 A 
ATOM     17  C   UNL     1       8.035   6.076  18.911  0.00  0.00    +0.000 A 
ATOM     18  N   UNL     1       7.214   5.255  18.250  0.00  0.00    +0.000 NA
ENDBRANCH  11  13
ENDBRANCH   1  11
TORSDOF 2
ENDMDL
MODEL 3
REMARK VINA RESULT:      -7.5      1.249      1.540
REMARK  Name = 
REMARK  2 active torsions:
REMARK  status: ('A' for Active; 'I' for Inactive)
REMARK    1  A    between atoms: C_2  and  C_3
REMARK    2  A    between atoms: C_3  and  C_4
REMARK                            x       y       z     vdW  Elec       q    Type
REMARK                         _______ _______ _______ _____ _____    ______ ____
ROOT
ATOM      1  C   UNL     1       4.803   3.996  17.667  0.00  0.00    +0.000 A 
ATOM      2  C   UNL     1       4.363   4.885  16.680  0.00  0.00    +0.000 A 
ATOM      3  C   UNL     1       5.030   6.095  16.467  0.00  0.00    +0.000 A 
ATOM      4  C   UNL     1       6.146   6.451  17.241  0.00  0.00    +0.000 A 
ATOM      5  C   UNL     1       6.814   7.672  17.054  0.00  0.00    +0.000 A 
ATOM      6  C   UNL     1       7.910   8.017  17.847  0.00  0.00    +0.000 A 
ATOM      7  C   UNL     1       8.354   7.142  18.835  0.00  0.00    +0.000 A 
ATOM      8  C   UNL     1       7.705   5.922  19.029  0.00  0.00    +0.000 A 
ATOM      9  C   UNL     1       6.598   5.562  18.243  0.00  0.00    +0.000 A 
ATOM     10  C   UNL     1       5.922   4.343  18.440  0.00  0.00    +0.000 A 
ENDROOT
BRANCH   1  11
ATOM     11  C   UNL     1       4.046   2.710  17.937  0.00  0.00    +0.000 C 
BRANCH  11  13
ATOM     12  O   UNL     1       4.929   1.776  20.026  0.00  0.00    +0.000 OA
ATOM     13  C   UNL     1       4.032   2.333  19.401  0.00  0.00    +0.000 C 
ATOM     14  N   UNL     1       2.860   2.701  20.090  0.00  0.00    +0.000 N 
ATOM     15  C   UNL     1       2.639   2.574  21.449  0.00  0.00    +0.000 A 
ATOM     16  C   UNL     1       1.360   3.005  21.692  0.00  0.00    +0.000 A 
ATOM     17  C   UNL     1       0.871   3.372  20.428  0.00  0.00    +0.000 A 
ATOM     18  N   UNL     1       1.779   3.228  19.458  0.00  0.00    +0.000 NA
ENDBRANCH  11  13
ENDBRANCH   1  11
TORSDOF 2
ENDMDL
MODEL 4
REMARK VINA RESULT:      -7.5      2.441      5.764
REMARK  Name = 
REMARK  2 active torsions:
REMARK  status: ('A' for Active; 'I' for Inactive)
REMARK    1  A    between atoms: C_2  and  C_3
REMARK    2  A    between atoms: C_3  and  C_4
REMARK                            x       y       z     vdW  Elec       q    Type
REMARK                         _______ _______ _______ _____ _____    ______ ____
ROOT
ATOM      1  C   UNL     1       4.171   3.800  16.871  0.00  0.00    +0.000 A 
ATOM      2  C   UNL     1       3.954   2.436  17.096  0.00  0.00    +0.000 A 
ATOM      3  C   UNL     1       3.115   2.012  18.130  0.00  0.00    +0.000 A 
ATOM      4  C   UNL     1       2.482   2.940  18.973  0.00  0.00    +0.000 A 
ATOM      5  C   UNL     1       1.653   2.530  20.031  0.00  0.00    +0.000 A 
ATOM      6  C   UNL     1       1.048   3.467  20.870  0.00  0.00    +0.000 A 
ATOM      7  C   UNL     1       1.260   4.827  20.659  0.00  0.00    +0.000 A 
ATOM      8  C   UNL     1       2.076   5.250  19.608  0.00  0.00    +0.000 A 
ATOM      9  C   UNL     1       2.696   4.320  18.758  0.00  0.00    +0.000 A 
ATOM     10  C   UNL     1       3.535   4.732  17.706  0.00  0.00    +0.000 A 
ENDROOT
BRANCH   1  11
ATOM     11  C   UNL     1       5.126   4.259  15.785  0.00  0.00    +0.000 C 
BRANCH  11  13
ATOM     12  O   UNL     1       5.200   6.667  15.326  0.00  0.00    +0.000 OA
ATOM     13  C   UNL     1       5.577   5.690  15.966  0.00  0.00    +0.000 C 
ATOM     14  N   UNL     1       6.506   5.885  17.005  0.00  0.00    +0.000 N 
ATOM     15  C   UNL     1       6.991   7.101  17.450  0.00  0.00    +0.000 A 
ATOM     16  C   UNL     1       7.904   6.836  18.438  0.00  0.00    +0.000 A 
ATOM     17  C   UNL     1       7.919   5.435  18.530  0.00  0.00    +0.000 A 
ATOM     18  N   UNL     1       7.053   4.850  17.697  0.00  0.00    +0.000 NA
ENDBRANCH  11  13
ENDBRANCH   1  11
TORSDOF 2
ENDMDL
MODEL 5
REMARK VINA RESULT:      -7.4      3.935      5.707
REMARK  Name = 
REMARK  2 active torsions:
REMARK  status: ('A' for Active; 'I' for Inactive)
REMARK    1  A    between atoms: C_2  and  C_3
REMARK    2  A    between atoms: C_3  and  C_4
REMARK                            x       y       z     vdW  Elec       q    Type
REMARK                         _______ _______ _______ _____ _____    ______ ____
ROOT
ATOM      1  C   UNL     1       3.019   5.365  18.926  0.00  0.00    +0.000 A 
ATOM      2  C   UNL     1       2.469   5.405  20.213  0.00  0.00    +0.000 A 
ATOM      3  C   UNL     1       1.823   6.557  20.672  0.00  0.00    +0.000 A 
ATOM      4  C   UNL     1       1.723   7.700  19.864  0.00  0.00    +0.000 A 
ATOM      5  C   UNL     1       1.098   8.874  20.319  0.00  0.00    +0.000 A 
ATOM      6  C   UNL     1       1.025  10.006  19.507  0.00  0.00    +0.000 A 
ATOM      7  C   UNL     1       1.573   9.980  18.227  0.00  0.00    +0.000 A 
ATOM      8  C   UNL     1       2.192   8.819  17.758  0.00  0.00    +0.000 A 
ATOM      9  C   UNL     1       2.278   7.673  18.564  0.00  0.00    +0.000 A 
ATOM     10  C   UNL     1       2.915   6.503  18.111  0.00  0.00    +0.000 A 
ENDROOT
BRANCH   1  11
ATOM     11  C   UNL     1       3.767   4.135  18.448  0.00  0.00    +0.000 C 
BRANCH  11  13
ATOM     12  O   UNL     1       6.063   4.460  19.249  0.00  0.00    +0.000 OA
ATOM     13  C   UNL     1       5.256   4.365  18.328  0.00  0.00    +0.000 C 
ATOM     14  N   UNL     1       5.733   4.446  17.006  0.00  0.00    +0.000 N 
ATOM     15  C   UNL     1       7.057   4.541  16.620  0.00  0.00    +0.000 A 
ATOM     16  C   UNL     1       7.074   4.643  15.253  0.00  0.00    +0.000 A 
ATOM     17  C   UNL     1       5.718   4.609  14.886  0.00  0.00    +0.000 A 
ATOM     18  N   UNL     1       4.901   4.453  15.932  0.00  0.00    +0.000 NA
ENDBRANCH  11  13
ENDBRANCH   1  11
TORSDOF 2
ENDMDL
MODEL 6
REMARK VINA RESULT:      -7.3      2.863      6.230
REMARK  Name = 
REMARK  2 active torsions:
REMARK  status: ('A' for Active; 'I' for Inactive)
REMARK    1  A    between atoms: C_2  and  C_3
REMARK    2  A    between atoms: C_3  and  C_4
REMARK                            x       y       z     vdW  Elec       q    Type
REMARK                         _______ _______ _______ _____ _____    ______ ____
ROOT
ATOM      1  C   UNL     1       4.706   4.384  17.311  0.00  0.00    +0.000 A 
ATOM      2  C   UNL     1       4.112   3.232  16.782  0.00  0.00    +0.000 A 
ATOM      3  C   UNL     1       2.949   2.707  17.353  0.00  0.00    +0.000 A 
ATOM      4  C   UNL     1       2.358   3.313  18.473  0.00  0.00    +0.000 A 
ATOM      5  C   UNL     1       1.202   2.785  19.072  0.00  0.00    +0.000 A 
ATOM      6  C   UNL     1       0.640   3.390  20.198  0.00  0.00    +0.000 A 
ATOM      7  C   UNL     1       1.224   4.534  20.736  0.00  0.00    +0.000 A 
ATOM      8  C   UNL     1       2.369   5.074  20.147  0.00  0.00    +0.000 A 
ATOM      9  C   UNL     1       2.950   4.474  19.018  0.00  0.00    +0.000 A 
ATOM     10  C   UNL     1       4.115   4.997  18.427  0.00  0.00    +0.000 A 
ENDROOT
BRANCH   1  11
ATOM     11  C   UNL     1       5.998   4.921  16.726  0.00  0.00    +0.000 C 
BRANCH  11  13
ATOM     12  O   UNL     1       7.575   4.443  18.544  0.00  0.00    +0.000 OA
ATOM     13  C   UNL     1       7.032   5.239  17.782  0.00  0.00    +0.000 C 
ATOM     14  N   UNL     1       7.404   6.595  17.850  0.00  0.00    +0.000 N 
ATOM     15  C   UNL     1       8.401   7.129  18.645  0.00  0.00    +0.000 A 
ATOM     16  C   UNL     1       8.400   8.485  18.440  0.00  0.00    +0.000 A 
ATOM     17  C   UNL     1       7.368   8.693  17.510  0.00  0.00    +0.000 A 
ATOM     18  N   UNL     1       6.784   7.557  17.118  0.00  0.00    +0.000 NA
ENDBRANCH  11  13
ENDBRANCH   1  11
TORSDOF 2
ENDMDL
MODEL 7
REMARK VINA RESULT:      -7.3      2.839      6.161
REMARK  Name = 
REMARK  2 active torsions:
REMARK  status: ('A' for Active; 'I' for Inactive)
REMARK    1  A    between atoms: C_2  and  C_3
REMARK    2  A    between atoms: C_3  and  C_4
REMARK                            x       y       z     vdW  Elec       q    Type
REMARK                         _______ _______ _______ _____ _____    ______ ____
ROOT
ATOM      1  C   UNL     1       4.786   4.360  17.740  0.00  0.00    +0.000 A 
ATOM      2  C   UNL     1       3.613   4.871  17.175  0.00  0.00    +0.000 A 
ATOM      3  C   UNL     1       2.382   4.698  17.816  0.00  0.00    +0.000 A 
ATOM      4  C   UNL     1       2.293   4.000  19.031  0.00  0.00    +0.000 A 
ATOM      5  C   UNL     1       1.062   3.798  19.677  0.00  0.00    +0.000 A 
ATOM      6  C   UNL     1       0.991   3.084  20.874  0.00  0.00    +0.000 A 
ATOM      7  C   UNL     1       2.151   2.567  21.444  0.00  0.00    +0.000 A 
ATOM      8  C   UNL     1       3.383   2.766  20.818  0.00  0.00    +0.000 A 
ATOM      9  C   UNL     1       3.471   3.476  19.610  0.00  0.00    +0.000 A 
ATOM     10  C   UNL     1       4.704   3.668  18.959  0.00  0.00    +0.000 A 
ENDROOT
BRANCH   1  11
ATOM     11  C   UNL     1       6.112   4.499  17.017  0.00  0.00    +0.000 C 
BRANCH  11  13
ATOM     12  O   UNL     1       7.952   4.462  18.640  0.00  0.00    +0.000 OA
ATOM     13  C   UNL     1       7.199   5.080  17.893  0.00  0.00    +0.000 C 
ATOM     14  N   UNL     1       7.350   6.476  17.793  0.00  0.00    +0.000 N 
ATOM     15  C   UNL     1       8.334   7.237  18.397  0.00  0.00    +0.000 A 
ATOM     16  C   UNL     1       8.086   8.547  18.077  0.00  0.00    +0.000 A 
ATOM     17  C   UNL     1       6.931   8.497  17.280  0.00  0.00    +0.000 A 
ATOM     18  N   UNL     1       6.498   7.250  17.071  0.00  0.00    +0.000 NA
ENDBRANCH  11  13
ENDBRANCH   1  11
TORSDOF 2
ENDMDL
MODEL 8
REMARK VINA RESULT:      -7.1      3.981      6.235
REMARK  Name = 
REMARK  2 active torsions:
REMARK  status: ('A' for Active; 'I' for Inactive)
REMARK    1  A    between atoms: C_2  and  C_3
REMARK    2  A    between atoms: C_3  and  C_4
REMARK                            x       y       z     vdW  Elec       q    Type
REMARK                         _______ _______ _______ _____ _____    ______ ____
ROOT
ATOM      1  C   UNL     1       4.940   4.879  17.093  0.00  0.00    +0.000 A 
ATOM      2  C   UNL     1       4.687   6.216  16.769  0.00  0.00    +0.000 A 
ATOM      3  C   UNL     1       3.811   6.981  17.546  0.00  0.00    +0.000 A 
ATOM      4  C   UNL     1       3.159   6.425  18.657  0.00  0.00    +0.000 A 
ATOM      5  C   UNL     1       2.259   7.173  19.435  0.00  0.00    +0.000 A 
ATOM      6  C   UNL     1       1.606   6.596  20.526  0.00  0.00    +0.000 A 
ATOM      7  C   UNL     1       1.846   5.265  20.855  0.00  0.00    +0.000 A 
ATOM      8  C   UNL     1       2.742   4.510  20.095  0.00  0.00    +0.000 A 
ATOM      9  C   UNL     1       3.404   5.074  18.992  0.00  0.00    +0.000 A 
ATOM     10  C   UNL     1       4.296   4.319  18.207  0.00  0.00    +0.000 A 
ENDROOT
BRANCH   1  11
ATOM     11  C   UNL     1       5.846   4.034  16.217  0.00  0.00    +0.000 C 
BRANCH  11  13
ATOM     12  O   UNL     1       7.473   5.797  15.708  0.00  0.00    +0.000 OA
ATOM     13  C   UNL     1       6.762   4.864  15.347  0.00  0.00    +0.000 C 
ATOM     14  N   UNL     1       6.793   4.479  13.994  0.00  0.00    +0.000 N 
ATOM     15  C   UNL     1       7.623   4.996  13.017  0.00  0.00    +0.000 A 
ATOM     16  C   UNL     1       7.295   4.378  11.838  0.00  0.00    +0.000 A 
ATOM     17  C   UNL     1       6.253   3.502  12.184  0.00  0.00    +0.000 A 
ATOM     18  N   UNL     1       5.966   3.526  13.488  0.00  0.00    +0.000 NA
ENDBRANCH  11  13
ENDBRANCH   1  11
TORSDOF 2
ENDMDL
MODEL 9
REMARK VINA RESULT:      -7.1      4.396      5.906
REMARK  Name = 
REMARK  2 active torsions:
REMARK  status: ('A' for Active; 'I' for Inactive)
REMARK    1  A    between atoms: C_2  and  C_3
REMARK    2  A    between atoms: C_3  and  C_4
REMARK                            x       y       z     vdW  Elec       q    Type
REMARK                         _______ _______ _______ _____ _____    ______ ____
ROOT
ATOM      1  C   UNL     1       3.027   6.370  18.901  0.00  0.00    +0.000 A 
ATOM      2  C   UNL     1       3.065   7.243  17.808  0.00  0.00    +0.000 A 
ATOM      3  C   UNL     1       2.394   8.468  17.855  0.00  0.00    +0.000 A 
ATOM      4  C   UNL     1       1.659   8.846  18.990  0.00  0.00    +0.000 A 
ATOM      5  C   UNL     1       0.959  10.063  19.045  0.00  0.00    +0.000 A 
ATOM      6  C   UNL     1       0.218  10.412  20.175  0.00  0.00    +0.000 A 
ATOM      7  C   UNL     1       0.169   9.550  21.267  0.00  0.00    +0.000 A 
ATOM      8  C   UNL     1       0.864   8.339  21.230  0.00  0.00    +0.000 A 
ATOM      9  C   UNL     1       1.610   7.971  20.099  0.00  0.00    +0.000 A 
ATOM     10  C   UNL     1       2.300   6.745  20.041  0.00  0.00    +0.000 A 
ENDROOT
BRANCH   1  11
ATOM     11  C   UNL     1       3.709   5.017  18.828  0.00  0.00    +0.000 C 
BRANCH  11  13
ATOM     12  O   UNL     1       6.001   5.455  19.585  0.00  0.00    +0.000 OA
ATOM     13  C   UNL     1       5.212   5.124  18.705  0.00  0.00    +0.000 C 
ATOM     14  N   UNL     1       5.723   4.774  17.440  0.00  0.00    +0.000 N 
ATOM     15  C   UNL     1       7.059   4.679  17.097  0.00  0.00    +0.000 A 
ATOM     16  C   UNL     1       7.113   4.359  15.765  0.00  0.00    +0.000 A 
ATOM     17  C   UNL     1       5.767   4.283  15.372  0.00  0.00    +0.000 A 
ATOM     18  N   UNL     1       4.918   4.495  16.382  0.00  0.00    +0.000 NA
ENDBRANCH  11  13
ENDBRANCH   1  11
TORSDOF 2
ENDMDL
