MODEL 1
REMARK VINA RESULT:      -8.2      0.000      0.000
REMARK  Name = 
REMARK  2 active torsions:
REMARK  status: ('A' for Active; 'I' for Inactive)
REMARK    1  A    between atoms: C_1  and  C_2
REMARK    2  A    between atoms: C_14  and  C_15
REMARK                            x       y       z     vdW  Elec       q    Type
REMARK                         _______ _______ _______ _____ _____    ______ ____
ROOT
ATOM      1  C   UNL     1      -1.292  12.200  20.853  0.00  0.00    +0.000 C 
ATOM      2  C   UNL     1      -0.560  10.902  21.026  0.00  0.00    +0.000 A 
ATOM      3  C   UNL     1      -0.699  10.149  22.197  0.00  0.00    +0.000 A 
ATOM      4  C   UNL     1      -0.015   8.942  22.377  0.00  0.00    +0.000 A 
ATOM      5  C   UNL     1       0.823   8.510  21.344  0.00  0.00    +0.000 A 
ATOM      6  N   UNL     1       1.615   7.386  21.248  0.00  0.00    +0.000 N 
ATOM      7  C   UNL     1       2.210   7.345  20.018  0.00  0.00    +0.000 A 
ATOM      8  C   UNL     1       1.857   8.489  19.326  0.00  0.00    +0.000 A 
ATOM      9  C   UNL     1       0.977   9.231  20.156  0.00  0.00    +0.000 A 
ATOM     10  C   UNL     1       0.274  10.440  19.997  0.00  0.00    +0.000 A 
ATOM     11  C   UNL     1       2.315   8.762  17.929  0.00  0.00    +0.000 C 
ATOM     12  C   UNL     1       3.312   7.697  17.418  0.00  0.00    +0.000 C 
ATOM     13  C   UNL     1       3.033   6.314  17.969  0.00  0.00    +0.000 C 
ATOM     14  C   UNL     1       2.714   5.240  17.219  0.00  0.00    +0.000 C 
ATOM     15  C   UNL     1       3.000   6.275  19.476  0.00  0.00    +0.000 C 
ATOM     16  O   UNL     1       3.592   5.438  20.155  0.00  0.00    +0.000 OA
ATOM     17  H   UNL     1       1.689   6.657  21.947  0.00  0.00    +0.000 HD
ENDROOT
BRANCH  14  18
ATOM     18  C   UNL     1       2.366   3.937  17.794  0.00  0.00    +0.000 A 
ATOM     19  C   UNL     1       1.121   3.723  18.397  0.00  0.00    +0.000 A 
ATOM     20  C   UNL     1       0.913   2.587  19.182  0.00  0.00    +0.000 A 
ATOM     21  C   UNL     1       1.921   1.631  19.305  0.00  0.00    +0.000 A 
ATOM     22  C   UNL     1       3.119   1.787  18.610  0.00  0.00    +0.000 A 
ATOM     23  C   UNL     1       3.348   2.944  17.866  0.00  0.00    +0.000 A 
ENDBRANCH  14  18
TORSDOF 1
ENDMDL
MODEL 2
REMARK VINA RESULT:      -8.1      0.799      1.309
REMARK  Name = 
REMARK  2 active torsions:
REMARK  status: ('A' for Active; 'I' for Inactive)
REMARK    1  A    between atoms: C_1  and  C_2
REMARK    2  A    between atoms: C_14  and  C_15
REMARK                            x       y       z     vdW  Elec       q    Type
REMARK                         _______ _______ _______ _____ _____    ______ ____
ROOT
ATOM      1  C   UNL     1      -1.992  12.271  21.865  0.00  0.00    +0.000 C 
ATOM      2  C   UNL     1      -1.060  11.096  21.885  0.00  0.00    +0.000 A 
ATOM      3  C   UNL     1      -0.820  10.389  23.068  0.00  0.00    +0.000 A 
ATOM      4  C   UNL     1       0.055   9.297  23.104  0.00  0.00    +0.000 A 
ATOM      5  C   UNL     1       0.691   8.935  21.912  0.00  0.00    +0.000 A 
ATOM      6  N   UNL     1       1.594   7.927  21.653  0.00  0.00    +0.000 N 
ATOM      7  C   UNL     1       1.895   7.908  20.320  0.00  0.00    +0.000 A 
ATOM      8  C   UNL     1       1.232   8.958  19.711  0.00  0.00    +0.000 A 
ATOM      9  C   UNL     1       0.465   9.611  20.709  0.00  0.00    +0.000 A 
ATOM     10  C   UNL     1      -0.423  10.703  20.699  0.00  0.00    +0.000 A 
ATOM     11  C   UNL     1       1.317   9.223  18.241  0.00  0.00    +0.000 C 
ATOM     12  C   UNL     1       2.316   8.280  17.530  0.00  0.00    +0.000 C 
ATOM     13  C   UNL     1       2.372   6.901  18.152  0.00  0.00    +0.000 C 
ATOM     14  C   UNL     1       2.051   5.758  17.513  0.00  0.00    +0.000 C 
ATOM     15  C   UNL     1       2.688   6.932  19.627  0.00  0.00    +0.000 C 
ATOM     16  O   UNL     1       3.533   6.218  20.163  0.00  0.00    +0.000 OA
ATOM     17  H   UNL     1       1.929   7.250  22.328  0.00  0.00    +0.000 HD
ENDROOT
BRANCH  14  18
ATOM     18  C   UNL     1       2.034   4.449  18.174  0.00  0.00    +0.000 A 
ATOM     19  C   UNL     1       2.874   3.414  17.746  0.00  0.00    +0.000 A 
ATOM     20  C   UNL     1       2.650   2.108  18.186  0.00  0.00    +0.000 A 
ATOM     21  C   UNL     1       1.635   1.847  19.107  0.00  0.00    +0.000 A 
ATOM     22  C   UNL     1       0.875   2.896  19.623  0.00  0.00    +0.000 A 
ATOM     23  C   UNL     1       1.064   4.193  19.147  0.00  0.00    +0.000 A 
ENDBRANCH  14  18
TORSDOF 1
ENDMDL
MODEL 3
REMARK VINA RESULT:      -7.5      2.505      3.909
REMARK  Name = 
REMARK  2 active torsions:
REMARK  status: ('A' for Active; 'I' for Inactive)
REMARK    1  A    between atoms: C_1  and  C_2
REMARK    2  A    between atoms: C_14  and  C_15
REMARK                            x       y       z     vdW  Elec       q    Type
REMARK                         _______ _______ _______ _____ _____    ______ ____
ROOT
ATOM      1  C   UNL     1      -0.458  10.015  23.117  0.00  0.00    +0.000 C 
ATOM      2  C   UNL     1       0.258   9.530  21.890  0.00  0.00    +0.000 A 
ATOM      3  C   UNL     1       0.533  10.398  20.828  0.00  0.00    +0.000 A 
ATOM      4  C   UNL     1       1.190   9.958  19.673  0.00  0.00    +0.000 A 
ATOM      5  C   UNL     1       1.563   8.612  19.612  0.00  0.00    +0.000 A 
ATOM      6  N   UNL     1       2.203   7.908  18.615  0.00  0.00    +0.000 N 
ATOM      7  C   UNL     1       2.420   6.622  19.025  0.00  0.00    +0.000 A 
ATOM      8  C   UNL     1       1.856   6.465  20.278  0.00  0.00    +0.000 A 
ATOM      9  C   UNL     1       1.315   7.719  20.659  0.00  0.00    +0.000 A 
ATOM     10  C   UNL     1       0.656   8.188  21.811  0.00  0.00    +0.000 A 
ATOM     11  C   UNL     1       1.928   5.180  21.041  0.00  0.00    +0.000 C 
ATOM     12  C   UNL     1       2.580   4.043  20.219  0.00  0.00    +0.000 C 
ATOM     13  C   UNL     1       3.658   4.537  19.278  0.00  0.00    +0.000 C 
ATOM     14  C   UNL     1       4.954   4.172  19.338  0.00  0.00    +0.000 C 
ATOM     15  C   UNL     1       3.173   5.611  18.336  0.00  0.00    +0.000 C 
ATOM     16  O   UNL     1       3.384   5.609  17.125  0.00  0.00    +0.000 OA
ATOM     17  H   UNL     1       2.534   8.296  17.740  0.00  0.00    +0.000 HD
ENDROOT
BRANCH  14  18
ATOM     18  C   UNL     1       5.987   4.738  18.465  0.00  0.00    +0.000 A 
ATOM     19  C   UNL     1       6.668   5.909  18.816  0.00  0.00    +0.000 A 
ATOM     20  C   UNL     1       7.431   6.585  17.861  0.00  0.00    +0.000 A 
ATOM     21  C   UNL     1       7.573   6.054  16.580  0.00  0.00    +0.000 A 
ATOM     22  C   UNL     1       6.991   4.827  16.265  0.00  0.00    +0.000 A 
ATOM     23  C   UNL     1       6.188   4.176  17.200  0.00  0.00    +0.000 A 
ENDBRANCH  14  18
TORSDOF 1
ENDMDL
MODEL 4
REMARK VINA RESULT:      -7.4      4.201      6.513
REMARK  Name = 
REMARK  2 active torsions:
REMARK  status: ('A' for Active; 'I' for Inactive)
REMARK    1  A    between atoms: C_1  and  C_2
REMARK    2  A    between atoms: C_14  and  C_15
REMARK                            x       y       z     vdW  Elec       q    Type
REMARK                         _______ _______ _______ _____ _____    ______ ____
ROOT
ATOM      1  C   UNL     1       1.097   2.880  21.946  0.00  0.00    +0.000 C 
ATOM      2  C   UNL     1       2.335   2.964  21.103  0.00  0.00    +0.000 A 
ATOM      3  C   UNL     1       3.283   1.935  21.113  0.00  0.00    +0.000 A 
ATOM      4  C   UNL     1       4.448   2.005  20.340  0.00  0.00    +0.000 A 
ATOM      5  C   UNL     1       4.640   3.147  19.556  0.00  0.00    +0.000 A 
ATOM      6  N   UNL     1       5.677   3.488  18.716  0.00  0.00    +0.000 N 
ATOM      7  C   UNL     1       5.401   4.678  18.102  0.00  0.00    +0.000 A 
ATOM      8  C   UNL     1       4.199   5.152  18.594  0.00  0.00    +0.000 A 
ATOM      9  C   UNL     1       3.708   4.189  19.512  0.00  0.00    +0.000 A 
ATOM     10  C   UNL     1       2.542   4.092  20.295  0.00  0.00    +0.000 A 
ATOM     11  C   UNL     1       3.578   6.428  18.120  0.00  0.00    +0.000 C 
ATOM     12  C   UNL     1       4.489   7.194  17.133  0.00  0.00    +0.000 C 
ATOM     13  C   UNL     1       5.321   6.276  16.262  0.00  0.00    +0.000 C 
ATOM     14  C   UNL     1       5.243   6.215  14.918  0.00  0.00    +0.000 C 
ATOM     15  C   UNL     1       6.161   5.309  17.059  0.00  0.00    +0.000 C 
ATOM     16  O   UNL     1       7.355   5.102  16.849  0.00  0.00    +0.000 OA
ATOM     17  H   UNL     1       6.489   2.915  18.520  0.00  0.00    +0.000 HD
ENDROOT
BRANCH  14  18
ATOM     18  C   UNL     1       6.003   5.253  14.114  0.00  0.00    +0.000 A 
ATOM     19  C   UNL     1       7.284   5.559  13.641  0.00  0.00    +0.000 A 
ATOM     20  C   UNL     1       7.871   4.764  12.654  0.00  0.00    +0.000 A 
ATOM     21  C   UNL     1       7.211   3.625  12.193  0.00  0.00    +0.000 A 
ATOM     22  C   UNL     1       5.987   3.255  12.749  0.00  0.00    +0.000 A 
ATOM     23  C   UNL     1       5.377   4.074  13.698  0.00  0.00    +0.000 A 
ENDBRANCH  14  18
TORSDOF 1
ENDMDL
MODEL 5
REMARK VINA RESULT:      -7.1      2.594      6.955
REMARK  Name = 
REMARK  2 active torsions:
REMARK  status: ('A' for Active; 'I' for Inactive)
REMARK    1  A    between atoms: C_1  and  C_2
REMARK    2  A    between atoms: C_14  and  C_15
REMARK                            x       y       z     vdW  Elec       q    Type
REMARK                         _______ _______ _______ _____ _____    ______ ____
ROOT
ATOM      1  C   UNL     1       3.842   2.529  20.089  0.00  0.00    +0.000 C 
ATOM      2  C   UNL     1       3.560   3.833  19.404  0.00  0.00    +0.000 A 
ATOM      3  C   UNL     1       3.880   4.021  18.055  0.00  0.00    +0.000 A 
ATOM      4  C   UNL     1       3.632   5.235  17.405  0.00  0.00    +0.000 A 
ATOM      5  C   UNL     1       3.054   6.266  18.153  0.00  0.00    +0.000 A 
ATOM      6  N   UNL     1       2.711   7.549  17.788  0.00  0.00    +0.000 N 
ATOM      7  C   UNL     1       2.108   8.183  18.839  0.00  0.00    +0.000 A 
ATOM      8  C   UNL     1       2.117   7.326  19.925  0.00  0.00    +0.000 A 
ATOM      9  C   UNL     1       2.710   6.110  19.500  0.00  0.00    +0.000 A 
ATOM     10  C   UNL     1       2.966   4.877  20.129  0.00  0.00    +0.000 A 
ATOM     11  C   UNL     1       1.514   7.689  21.244  0.00  0.00    +0.000 C 
ATOM     12  C   UNL     1       1.010   9.150  21.280  0.00  0.00    +0.000 C 
ATOM     13  C   UNL     1       0.483   9.626  19.942  0.00  0.00    +0.000 C 
ATOM     14  C   UNL     1      -0.785  10.022  19.715  0.00  0.00    +0.000 C 
ATOM     15  C   UNL     1       1.487   9.478  18.826  0.00  0.00    +0.000 C 
ATOM     16  O   UNL     1       1.751  10.365  18.017  0.00  0.00    +0.000 OA
ATOM     17  H   UNL     1       2.815   7.945  16.862  0.00  0.00    +0.000 HD
ENDROOT
BRANCH  14  18
ATOM     18  C   UNL     1      -1.281  10.395  18.387  0.00  0.00    +0.000 A 
ATOM     19  C   UNL     1      -1.552  11.730  18.065  0.00  0.00    +0.000 A 
ATOM     20  C   UNL     1      -2.284  12.036  16.915  0.00  0.00    +0.000 A 
ATOM     21  C   UNL     1      -2.682  11.016  16.051  0.00  0.00    +0.000 A 
ATOM     22  C   UNL     1      -2.311   9.697  16.311  0.00  0.00    +0.000 A 
ATOM     23  C   UNL     1      -1.624   9.385  17.483  0.00  0.00    +0.000 A 
ENDBRANCH  14  18
TORSDOF 1
ENDMDL
MODEL 6
REMARK VINA RESULT:      -7.1      0.851      1.422
REMARK  Name = 
REMARK  2 active torsions:
REMARK  status: ('A' for Active; 'I' for Inactive)
REMARK    1  A    between atoms: C_1  and  C_2
REMARK    2  A    between atoms: C_14  and  C_15
REMARK                            x       y       z     vdW  Elec       q    Type
REMARK                         _______ _______ _______ _____ _____    ______ ____
ROOT
ATOM      1  C   UNL     1      -1.064  12.555  18.797  0.00  0.00    +0.000 C 
ATOM      2  C   UNL     1      -0.438  11.304  19.340  0.00  0.00    +0.000 A 
ATOM      3  C   UNL     1      -0.833  10.780  20.575  0.00  0.00    +0.000 A 
ATOM      4  C   UNL     1      -0.251   9.620  21.099  0.00  0.00    +0.000 A 
ATOM      5  C   UNL     1       0.750   8.998  20.345  0.00  0.00    +0.000 A 
ATOM      6  N   UNL     1       1.493   7.868  20.608  0.00  0.00    +0.000 N 
ATOM      7  C   UNL     1       2.311   7.596  19.547  0.00  0.00    +0.000 A 
ATOM      8  C   UNL     1       2.149   8.597  18.607  0.00  0.00    +0.000 A 
ATOM      9  C   UNL     1       1.161   9.487  19.101  0.00  0.00    +0.000 A 
ATOM     10  C   UNL     1       0.556  10.653  18.595  0.00  0.00    +0.000 A 
ATOM     11  C   UNL     1       2.878   8.605  17.301  0.00  0.00    +0.000 C 
ATOM     12  C   UNL     1       3.906   7.454  17.194  0.00  0.00    +0.000 C 
ATOM     13  C   UNL     1       3.464   6.198  17.917  0.00  0.00    +0.000 C 
ATOM     14  C   UNL     1       3.247   5.008  17.322  0.00  0.00    +0.000 C 
ATOM     15  C   UNL     1       3.141   6.438  19.371  0.00  0.00    +0.000 C 
ATOM     16  O   UNL     1       3.553   5.734  20.290  0.00  0.00    +0.000 OA
ATOM     17  H   UNL     1       1.399   7.279  21.426  0.00  0.00    +0.000 HD
ENDROOT
BRANCH  14  18
ATOM     18  C   UNL     1       2.736   3.836  18.040  0.00  0.00    +0.000 A 
ATOM     19  C   UNL     1       3.555   2.728  18.288  0.00  0.00    +0.000 A 
ATOM     20  C   UNL     1       2.988   1.523  18.710  0.00  0.00    +0.000 A 
ATOM     21  C   UNL     1       1.617   1.446  18.954  0.00  0.00    +0.000 A 
ATOM     22  C   UNL     1       0.820   2.582  18.821  0.00  0.00    +0.000 A 
ATOM     23  C   UNL     1       1.375   3.771  18.351  0.00  0.00    +0.000 A 
ENDBRANCH  14  18
TORSDOF 1
ENDMDL
MODEL 7
REMARK VINA RESULT:      -6.9      3.538      7.761
REMARK  Name = 
REMARK  2 active torsions:
REMARK  status: ('A' for Active; 'I' for Inactive)
REMARK    1  A    between atoms: C_1  and  C_2
REMARK    2  A    between atoms: C_14  and  C_15
REMARK                            x       y       z     vdW  Elec       q    Type
REMARK                         _______ _______ _______ _____ _____    ______ ____
ROOT
ATOM      1  C   UNL     1       6.838   3.188  11.764  0.00  0.00    +0.000 C 
ATOM      2  C   UNL     1       6.708   3.916  13.070  0.00  0.00    +0.000 A 
ATOM      3  C   UNL     1       7.452   5.073  13.325  0.00  0.00    +0.000 A 
ATOM      4  C   UNL     1       7.350   5.756  14.542  0.00  0.00    +0.000 A 
ATOM      5  C   UNL     1       6.477   5.240  15.505  0.00  0.00    +0.000 A 
ATOM      6  N   UNL     1       6.183   5.688  16.775  0.00  0.00    +0.000 N 
ATOM      7  C   UNL     1       5.214   4.899  17.329  0.00  0.00    +0.000 A 
ATOM      8  C   UNL     1       4.918   3.884  16.438  0.00  0.00    +0.000 A 
ATOM      9  C   UNL     1       5.709   4.093  15.280  0.00  0.00    +0.000 A 
ATOM     10  C   UNL     1       5.827   3.427  14.046  0.00  0.00    +0.000 A 
ATOM     11  C   UNL     1       3.877   2.846  16.713  0.00  0.00    +0.000 C 
ATOM     12  C   UNL     1       3.283   2.970  18.136  0.00  0.00    +0.000 C 
ATOM     13  C   UNL     1       3.207   4.403  18.621  0.00  0.00    +0.000 C 
ATOM     14  C   UNL     1       2.066   5.045  18.939  0.00  0.00    +0.000 C 
ATOM     15  C   UNL     1       4.539   5.110  18.579  0.00  0.00    +0.000 C 
ATOM     16  O   UNL     1       4.994   5.773  19.509  0.00  0.00    +0.000 OA
ATOM     17  H   UNL     1       6.565   6.519  17.209  0.00  0.00    +0.000 HD
ENDROOT
BRANCH  14  18
ATOM     18  C   UNL     1       2.023   6.459  19.323  0.00  0.00    +0.000 A 
ATOM     19  C   UNL     1       1.732   6.842  20.638  0.00  0.00    +0.000 A 
ATOM     20  C   UNL     1       1.416   8.172  20.923  0.00  0.00    +0.000 A 
ATOM     21  C   UNL     1       1.461   9.131  19.912  0.00  0.00    +0.000 A 
ATOM     22  C   UNL     1       1.866   8.771  18.627  0.00  0.00    +0.000 A 
ATOM     23  C   UNL     1       2.132   7.435  18.329  0.00  0.00    +0.000 A 
ENDBRANCH  14  18
TORSDOF 1
ENDMDL
MODEL 8
REMARK VINA RESULT:      -6.7      2.556      6.917
REMARK  Name = 
REMARK  2 active torsions:
REMARK  status: ('A' for Active; 'I' for Inactive)
REMARK    1  A    between atoms: C_1  and  C_2
REMARK    2  A    between atoms: C_14  and  C_15
REMARK                            x       y       z     vdW  Elec       q    Type
REMARK                         _______ _______ _______ _____ _____    ______ ____
ROOT
ATOM      1  C   UNL     1       3.263   2.627  20.753  0.00  0.00    +0.000 C 
ATOM      2  C   UNL     1       2.961   3.859  19.951  0.00  0.00    +0.000 A 
ATOM      3  C   UNL     1       3.072   3.853  18.557  0.00  0.00    +0.000 A 
ATOM      4  C   UNL     1       2.805   4.998  17.796  0.00  0.00    +0.000 A 
ATOM      5  C   UNL     1       2.424   6.157  18.479  0.00  0.00    +0.000 A 
ATOM      6  N   UNL     1       2.112   7.411  18.002  0.00  0.00    +0.000 N 
ATOM      7  C   UNL     1       1.729   8.216  19.039  0.00  0.00    +0.000 A 
ATOM      8  C   UNL     1       1.855   7.500  20.215  0.00  0.00    +0.000 A 
ATOM      9  C   UNL     1       2.290   6.195  19.871  0.00  0.00    +0.000 A 
ATOM     10  C   UNL     1       2.561   5.030  20.612  0.00  0.00    +0.000 A 
ATOM     11  C   UNL     1       1.496   8.070  21.550  0.00  0.00    +0.000 C 
ATOM     12  C   UNL     1       1.102   9.563  21.467  0.00  0.00    +0.000 C 
ATOM     13  C   UNL     1       0.400   9.917  20.172  0.00  0.00    +0.000 C 
ATOM     14  C   UNL     1      -0.859  10.390  20.088  0.00  0.00    +0.000 C 
ATOM     15  C   UNL     1       1.200   9.549  18.948  0.00  0.00    +0.000 C 
ATOM     16  O   UNL     1       1.389  10.306  17.998  0.00  0.00    +0.000 OA
ATOM     17  H   UNL     1       2.092   7.682  17.027  0.00  0.00    +0.000 HD
ENDROOT
BRANCH  14  18
ATOM     18  C   UNL     1      -1.536  10.641  18.812  0.00  0.00    +0.000 A 
ATOM     19  C   UNL     1      -2.175   9.607  18.118  0.00  0.00    +0.000 A 
ATOM     20  C   UNL     1      -2.561   9.793  16.788  0.00  0.00    +0.000 A 
ATOM     21  C   UNL     1      -2.376  11.033  16.177  0.00  0.00    +0.000 A 
ATOM     22  C   UNL     1      -1.847  12.098  16.905  0.00  0.00    +0.000 A 
ATOM     23  C   UNL     1      -1.415  11.900  18.216  0.00  0.00    +0.000 A 
ENDBRANCH  14  18
TORSDOF 1
ENDMDL
MODEL 9
REMARK VINA RESULT:      -6.7      2.478      3.721
REMARK  Name = 
REMARK  2 active torsions:
REMARK  status: ('A' for Active; 'I' for Inactive)
REMARK    1  A    between atoms: C_1  and  C_2
REMARK    2  A    between atoms: C_14  and  C_15
REMARK                            x       y       z     vdW  Elec       q    Type
REMARK                         _______ _______ _______ _____ _____    ______ ____
ROOT
ATOM      1  C   UNL     1      -0.667  10.447  23.159  0.00  0.00    +0.000 C 
ATOM      2  C   UNL     1       0.083   9.934  21.965  0.00  0.00    +0.000 A 
ATOM      3  C   UNL     1       0.520  10.805  20.962  0.00  0.00    +0.000 A 
ATOM      4  C   UNL     1       1.212  10.339  19.837  0.00  0.00    +0.000 A 
ATOM      5  C   UNL     1       1.451   8.965  19.745  0.00  0.00    +0.000 A 
ATOM      6  N   UNL     1       2.088   8.233  18.766  0.00  0.00    +0.000 N 
ATOM      7  C   UNL     1       2.144   6.918  19.136  0.00  0.00    +0.000 A 
ATOM      8  C   UNL     1       1.479   6.777  20.340  0.00  0.00    +0.000 A 
ATOM      9  C   UNL     1       1.039   8.066  20.735  0.00  0.00    +0.000 A 
ATOM     10  C   UNL     1       0.349   8.561  21.858  0.00  0.00    +0.000 A 
ATOM     11  C   UNL     1       1.366   5.466  21.052  0.00  0.00    +0.000 C 
ATOM     12  C   UNL     1       1.958   4.298  20.230  0.00  0.00    +0.000 C 
ATOM     13  C   UNL     1       3.146   4.710  19.387  0.00  0.00    +0.000 C 
ATOM     14  C   UNL     1       4.391   4.211  19.521  0.00  0.00    +0.000 C 
ATOM     15  C   UNL     1       2.840   5.860  18.459  0.00  0.00    +0.000 C 
ATOM     16  O   UNL     1       3.137   5.877  17.267  0.00  0.00    +0.000 OA
ATOM     17  H   UNL     1       2.519   8.615  17.934  0.00  0.00    +0.000 HD
ENDROOT
BRANCH  14  18
ATOM     18  C   UNL     1       5.536   4.697  18.744  0.00  0.00    +0.000 A 
ATOM     19  C   UNL     1       5.791   4.216  17.455  0.00  0.00    +0.000 A 
ATOM     20  C   UNL     1       7.024   4.466  16.848  0.00  0.00    +0.000 A 
ATOM     21  C   UNL     1       7.971   5.257  17.497  0.00  0.00    +0.000 A 
ATOM     22  C   UNL     1       7.672   5.834  18.731  0.00  0.00    +0.000 A 
ATOM     23  C   UNL     1       6.463   5.543  19.360  0.00  0.00    +0.000 A 
ENDBRANCH  14  18
TORSDOF 1
ENDMDL
