MODEL 1
REMARK VINA RESULT:      -7.6      0.000      0.000
REMARK  Name = 
REMARK  6 active torsions:
REMARK  status: ('A' for Active; 'I' for Inactive)
REMARK    1  A    between atoms: C_1  and  C_2
REMARK    2  A    between atoms: C_5  and  C_6
REMARK    3  A    between atoms: C_7  and  C_8
REMARK    4  A    between atoms: C_8  and  C_9
REMARK    5  A    between atoms: C_15  and  O_16
REMARK    6  A    between atoms: O_16  and  C_17
REMARK                            x       y       z     vdW  Elec       q    Type
REMARK                         _______ _______ _______ _____ _____    ______ ____
ROOT
ATOM      1  C   UNL     1       3.476   4.424  17.381  0.00  0.00    +0.000 C 
ATOM      2  O   UNL     1       3.024   3.625  16.562  0.00  0.00    +0.000 OA
ATOM      3  N   UNL     1       3.101   4.390  18.730  0.00  0.00    +0.000 N 
ATOM      4  C   UNL     1       2.354   3.231  19.215  0.00  0.00    +0.000 C 
ATOM      5  C   UNL     1       1.185   3.655  20.090  0.00  0.00    +0.000 C 
ATOM      6  C   UNL     1       1.666   4.546  21.231  0.00  0.00    +0.000 C 
ATOM      7  C   UNL     1       2.386   5.793  20.703  0.00  0.00    +0.000 C 
ATOM      8  C   UNL     1       3.523   5.371  19.747  0.00  0.00    +0.000 C 
ENDROOT
BRANCH   1   9
ATOM      9  C   UNL     1       4.486   5.498  16.985  0.00  0.00    +0.000 C 
BRANCH   9  16
ATOM     10  C   UNL     1       6.966   5.472  19.112  0.00  0.00    +0.000 C 
ATOM     11  C   UNL     1       6.957   5.016  17.702  0.00  0.00    +0.000 A 
ATOM     12  N   UNL     1       8.088   4.571  17.142  0.00  0.00    +0.000 NA
ATOM     13  O   UNL     1       7.759   4.232  15.847  0.00  0.00    +0.000 OA
ATOM     14  C   UNL     1       6.441   4.482  15.630  0.00  0.00    +0.000 A 
ATOM     15  C   UNL     1       5.947   4.181  14.271  0.00  0.00    +0.000 C 
ATOM     16  C   UNL     1       5.874   4.995  16.778  0.00  0.00    +0.000 A 
ENDBRANCH   9  16
ENDBRANCH   1   9
BRANCH   7  17
ATOM     17  O   UNL     1       1.502   6.642  19.954  0.00  0.00    +0.000 OA
BRANCH  17  18
ATOM     18  C   UNL     1       1.351   7.946  20.337  0.00  0.00    +0.000 A 
ATOM     19  C   UNL     1       1.062   8.347  21.644  0.00  0.00    +0.000 A 
ATOM     20  C   UNL     1       0.825   9.690  21.895  0.00  0.00    +0.000 A 
ATOM     21  N   UNL     1       0.878  10.652  20.953  0.00  0.00    +0.000 NA
ATOM     22  C   UNL     1       1.172  10.247  19.697  0.00  0.00    +0.000 A 
ATOM     23  C   UNL     1       1.409   8.926  19.342  0.00  0.00    +0.000 A 
ATOM     24 CL   UNL     1       1.801   8.549  17.705  0.00  0.00    +0.000 Cl
ENDBRANCH  17  18
ENDBRANCH   7  17
TORSDOF 4
ENDMDL
MODEL 2
REMARK VINA RESULT:      -7.6      0.457      1.668
REMARK  Name = 
REMARK  6 active torsions:
REMARK  status: ('A' for Active; 'I' for Inactive)
REMARK    1  A    between atoms: C_1  and  C_2
REMARK    2  A    between atoms: C_5  and  C_6
REMARK    3  A    between atoms: C_7  and  C_8
REMARK    4  A    between atoms: C_8  and  C_9
REMARK    5  A    between atoms: C_15  and  O_16
REMARK    6  A    between atoms: O_16  and  C_17
REMARK                            x       y       z     vdW  Elec       q    Type
REMARK                         _______ _______ _______ _____ _____    ______ ____
ROOT
ATOM      1  C   UNL     1       3.509   4.394  17.427  0.00  0.00    +0.000 C 
ATOM      2  O   UNL     1       3.080   3.571  16.620  0.00  0.00    +0.000 OA
ATOM      3  N   UNL     1       3.205   4.317  18.792  0.00  0.00    +0.000 N 
ATOM      4  C   UNL     1       2.575   3.099  19.297  0.00  0.00    +0.000 C 
ATOM      5  C   UNL     1       1.421   3.423  20.234  0.00  0.00    +0.000 C 
ATOM      6  C   UNL     1       1.889   4.336  21.362  0.00  0.00    +0.000 C 
ATOM      7  C   UNL     1       2.483   5.640  20.818  0.00  0.00    +0.000 C 
ATOM      8  C   UNL     1       3.600   5.317  19.802  0.00  0.00    +0.000 C 
ENDROOT
BRANCH   1   9
ATOM      9  C   UNL     1       4.413   5.547  16.998  0.00  0.00    +0.000 C 
BRANCH   9  16
ATOM     10  C   UNL     1       5.681   4.314  14.251  0.00  0.00    +0.000 C 
ATOM     11  C   UNL     1       6.364   4.592  15.537  0.00  0.00    +0.000 A 
ATOM     12  N   UNL     1       7.655   4.274  15.684  0.00  0.00    +0.000 NA
ATOM     13  O   UNL     1       7.990   4.647  16.969  0.00  0.00    +0.000 OA
ATOM     14  C   UNL     1       6.903   5.174  17.590  0.00  0.00    +0.000 A 
ATOM     15  C   UNL     1       7.109   5.604  18.988  0.00  0.00    +0.000 C 
ATOM     16  C   UNL     1       5.826   5.157  16.728  0.00  0.00    +0.000 A 
ENDBRANCH   9  16
ENDBRANCH   1   9
BRANCH   7  17
ATOM     17  O   UNL     1       1.501   6.426  20.124  0.00  0.00    +0.000 OA
BRANCH  17  18
ATOM     18  C   UNL     1       1.364   7.750  20.442  0.00  0.00    +0.000 A 
ATOM     19  C   UNL     1       1.015   8.215  21.712  0.00  0.00    +0.000 A 
ATOM     20  C   UNL     1       0.800   9.574  21.892  0.00  0.00    +0.000 A 
ATOM     21  N   UNL     1       0.933  10.491  20.914  0.00  0.00    +0.000 NA
ATOM     22  C   UNL     1       1.285  10.023  19.694  0.00  0.00    +0.000 A 
ATOM     23  C   UNL     1       1.504   8.682  19.410  0.00  0.00    +0.000 A 
ATOM     24 CL   UNL     1       1.977   8.223  17.816  0.00  0.00    +0.000 Cl
ENDBRANCH  17  18
ENDBRANCH   7  17
TORSDOF 4
ENDMDL
MODEL 3
REMARK VINA RESULT:      -7.2      1.271      1.657
REMARK  Name = 
REMARK  6 active torsions:
REMARK  status: ('A' for Active; 'I' for Inactive)
REMARK    1  A    between atoms: C_1  and  C_2
REMARK    2  A    between atoms: C_5  and  C_6
REMARK    3  A    between atoms: C_7  and  C_8
REMARK    4  A    between atoms: C_8  and  C_9
REMARK    5  A    between atoms: C_15  and  O_16
REMARK    6  A    between atoms: O_16  and  C_17
REMARK                            x       y       z     vdW  Elec       q    Type
REMARK                         _______ _______ _______ _____ _____    ______ ____
ROOT
ATOM      1  C   UNL     1       3.497   4.499  17.449  0.00  0.00    +0.000 C 
ATOM      2  O   UNL     1       3.086   3.491  16.877  0.00  0.00    +0.000 OA
ATOM      3  N   UNL     1       3.065   4.845  18.736  0.00  0.00    +0.000 N 
ATOM      4  C   UNL     1       2.308   3.859  19.504  0.00  0.00    +0.000 C 
ATOM      5  C   UNL     1       1.100   4.493  20.176  0.00  0.00    +0.000 C 
ATOM      6  C   UNL     1       1.526   5.681  21.031  0.00  0.00    +0.000 C 
ATOM      7  C   UNL     1       2.257   6.739  20.196  0.00  0.00    +0.000 C 
ATOM      8  C   UNL     1       3.437   6.084  19.445  0.00  0.00    +0.000 C 
ENDROOT
BRANCH   1   9
ATOM      9  C   UNL     1       4.514   5.435  16.801  0.00  0.00    +0.000 C 
BRANCH   9  16
ATOM     10  C   UNL     1       6.752   5.472  19.182  0.00  0.00    +0.000 C 
ATOM     11  C   UNL     1       6.885   4.953  17.800  0.00  0.00    +0.000 A 
ATOM     12  N   UNL     1       8.062   4.469  17.385  0.00  0.00    +0.000 NA
ATOM     13  O   UNL     1       7.867   4.076  16.078  0.00  0.00    +0.000 OA
ATOM     14  C   UNL     1       6.584   4.333  15.709  0.00  0.00    +0.000 A 
ATOM     15  C   UNL     1       6.234   3.978  14.319  0.00  0.00    +0.000 C 
ATOM     16  C   UNL     1       5.908   4.905  16.767  0.00  0.00    +0.000 A 
ENDBRANCH   9  16
ENDBRANCH   1   9
BRANCH   7  17
ATOM     17  O   UNL     1       1.399   7.321  19.202  0.00  0.00    +0.000 OA
BRANCH  17  18
ATOM     18  C   UNL     1       1.425   8.676  19.012  0.00  0.00    +0.000 A 
ATOM     19  C   UNL     1       2.121   9.305  17.976  0.00  0.00    +0.000 A 
ATOM     20  C   UNL     1       2.165  10.691  17.944  0.00  0.00    +0.000 A 
ATOM     21  N   UNL     1       1.551  11.483  18.844  0.00  0.00    +0.000 NA
ATOM     22  C   UNL     1       0.871  10.856  19.832  0.00  0.00    +0.000 A 
ATOM     23  C   UNL     1       0.783   9.476  19.960  0.00  0.00    +0.000 A 
ATOM     24 CL   UNL     1      -0.141   8.806  21.253  0.00  0.00    +0.000 Cl
ENDBRANCH  17  18
ENDBRANCH   7  17
TORSDOF 4
ENDMDL
MODEL 4
REMARK VINA RESULT:      -7.0      1.325      2.337
REMARK  Name = 
REMARK  6 active torsions:
REMARK  status: ('A' for Active; 'I' for Inactive)
REMARK    1  A    between atoms: C_1  and  C_2
REMARK    2  A    between atoms: C_5  and  C_6
REMARK    3  A    between atoms: C_7  and  C_8
REMARK    4  A    between atoms: C_8  and  C_9
REMARK    5  A    between atoms: C_15  and  O_16
REMARK    6  A    between atoms: O_16  and  C_17
REMARK                            x       y       z     vdW  Elec       q    Type
REMARK                         _______ _______ _______ _____ _____    ______ ____
ROOT
ATOM      1  C   UNL     1       3.598   4.635  17.411  0.00  0.00    +0.000 C 
ATOM      2  O   UNL     1       3.223   3.631  16.807  0.00  0.00    +0.000 OA
ATOM      3  N   UNL     1       3.147   4.930  18.704  0.00  0.00    +0.000 N 
ATOM      4  C   UNL     1       2.417   3.899  19.438  0.00  0.00    +0.000 C 
ATOM      5  C   UNL     1       1.185   4.475  20.118  0.00  0.00    +0.000 C 
ATOM      6  C   UNL     1       1.567   5.652  21.010  0.00  0.00    +0.000 C 
ATOM      7  C   UNL     1       2.270   6.755  20.211  0.00  0.00    +0.000 C 
ATOM      8  C   UNL     1       3.474   6.160  19.450  0.00  0.00    +0.000 C 
ENDROOT
BRANCH   1   9
ATOM      9  C   UNL     1       4.590   5.620  16.797  0.00  0.00    +0.000 C 
BRANCH   9  16
ATOM     10  C   UNL     1       6.142   4.214  14.290  0.00  0.00    +0.000 C 
ATOM     11  C   UNL     1       6.654   4.489  15.653  0.00  0.00    +0.000 A 
ATOM     12  N   UNL     1       7.887   4.092  15.990  0.00  0.00    +0.000 NA
ATOM     13  O   UNL     1       8.063   4.484  17.300  0.00  0.00    +0.000 OA
ATOM     14  C   UNL     1       6.939   5.103  17.748  0.00  0.00    +0.000 A 
ATOM     15  C   UNL     1       6.976   5.564  19.150  0.00  0.00    +0.000 C 
ATOM     16  C   UNL     1       5.996   5.128  16.741  0.00  0.00    +0.000 A 
ENDBRANCH   9  16
ENDBRANCH   1   9
BRANCH   7  17
ATOM     17  O   UNL     1       1.400   7.338  19.227  0.00  0.00    +0.000 OA
BRANCH  17  18
ATOM     18  C   UNL     1       1.415   8.694  19.047  0.00  0.00    +0.000 A 
ATOM     19  C   UNL     1       2.092   9.336  18.007  0.00  0.00    +0.000 A 
ATOM     20  C   UNL     1       2.126  10.722  17.985  0.00  0.00    +0.000 A 
ATOM     21  N   UNL     1       1.519  11.503  18.899  0.00  0.00    +0.000 NA
ATOM     22  C   UNL     1       0.856  10.864  19.891  0.00  0.00    +0.000 A 
ATOM     23  C   UNL     1       0.780   9.483  20.009  0.00  0.00    +0.000 A 
ATOM     24 CL   UNL     1      -0.123   8.796  21.309  0.00  0.00    +0.000 Cl
ENDBRANCH  17  18
ENDBRANCH   7  17
TORSDOF 4
ENDMDL
MODEL 5
REMARK VINA RESULT:      -6.8      1.847      6.745
REMARK  Name = 
REMARK  6 active torsions:
REMARK  status: ('A' for Active; 'I' for Inactive)
REMARK    1  A    between atoms: C_1  and  C_2
REMARK    2  A    between atoms: C_5  and  C_6
REMARK    3  A    between atoms: C_7  and  C_8
REMARK    4  A    between atoms: C_8  and  C_9
REMARK    5  A    between atoms: C_15  and  O_16
REMARK    6  A    between atoms: O_16  and  C_17
REMARK                            x       y       z     vdW  Elec       q    Type
REMARK                         _______ _______ _______ _____ _____    ______ ____
ROOT
ATOM      1  C   UNL     1       2.192   5.780  20.259  0.00  0.00    +0.000 C 
ATOM      2  O   UNL     1       1.972   5.542  21.445  0.00  0.00    +0.000 OA
ATOM      3  N   UNL     1       1.964   4.826  19.259  0.00  0.00    +0.000 N 
ATOM      4  C   UNL     1       1.219   3.618  19.608  0.00  0.00    +0.000 C 
ATOM      5  C   UNL     1       1.884   2.375  19.038  0.00  0.00    +0.000 C 
ATOM      6  C   UNL     1       2.076   2.515  17.531  0.00  0.00    +0.000 C 
ATOM      7  C   UNL     1       2.919   3.748  17.186  0.00  0.00    +0.000 C 
ATOM      8  C   UNL     1       2.294   5.003  17.833  0.00  0.00    +0.000 C 
ENDROOT
BRANCH   1   9
ATOM      9  C   UNL     1       2.716   7.137  19.793  0.00  0.00    +0.000 C 
BRANCH   9  16
ATOM     10  C   UNL     1       1.424   8.794  17.292  0.00  0.00    +0.000 C 
ATOM     11  C   UNL     1       1.175   8.973  18.742  0.00  0.00    +0.000 A 
ATOM     12  N   UNL     1       0.367   9.955  19.159  0.00  0.00    +0.000 NA
ATOM     13  O   UNL     1       0.344   9.863  20.535  0.00  0.00    +0.000 OA
ATOM     14  C   UNL     1       1.141   8.839  20.939  0.00  0.00    +0.000 A 
ATOM     15  C   UNL     1       1.227   8.631  22.398  0.00  0.00    +0.000 C 
ATOM     16  C   UNL     1       1.709   8.236  19.836  0.00  0.00    +0.000 A 
ENDBRANCH   9  16
ENDBRANCH   1   9
BRANCH   7  17
ATOM     17  O   UNL     1       4.258   3.638  17.694  0.00  0.00    +0.000 OA
BRANCH  17  18
ATOM     18  C   UNL     1       5.277   4.255  17.020  0.00  0.00    +0.000 A 
ATOM     19  C   UNL     1       5.540   4.067  15.661  0.00  0.00    +0.000 A 
ATOM     20  C   UNL     1       6.664   4.661  15.108  0.00  0.00    +0.000 A 
ATOM     21  N   UNL     1       7.520   5.439  15.799  0.00  0.00    +0.000 NA
ATOM     22  C   UNL     1       7.242   5.620  17.110  0.00  0.00    +0.000 A 
ATOM     23  C   UNL     1       6.152   5.055  17.759  0.00  0.00    +0.000 A 
ATOM     24 CL   UNL     1       5.898   5.391  19.432  0.00  0.00    +0.000 Cl
ENDBRANCH  17  18
ENDBRANCH   7  17
TORSDOF 4
ENDMDL
MODEL 6
REMARK VINA RESULT:      -6.7      1.270      1.658
REMARK  Name = 
REMARK  6 active torsions:
REMARK  status: ('A' for Active; 'I' for Inactive)
REMARK    1  A    between atoms: C_1  and  C_2
REMARK    2  A    between atoms: C_5  and  C_6
REMARK    3  A    between atoms: C_7  and  C_8
REMARK    4  A    between atoms: C_8  and  C_9
REMARK    5  A    between atoms: C_15  and  O_16
REMARK    6  A    between atoms: O_16  and  C_17
REMARK                            x       y       z     vdW  Elec       q    Type
REMARK                         _______ _______ _______ _____ _____    ______ ____
ROOT
ATOM      1  C   UNL     1       3.516   3.904  17.526  0.00  0.00    +0.000 C 
ATOM      2  O   UNL     1       3.142   2.932  16.873  0.00  0.00    +0.000 OA
ATOM      3  N   UNL     1       3.270   4.008  18.901  0.00  0.00    +0.000 N 
ATOM      4  C   UNL     1       2.784   2.828  19.612  0.00  0.00    +0.000 C 
ATOM      5  C   UNL     1       1.638   3.180  20.548  0.00  0.00    +0.000 C 
ATOM      6  C   UNL     1       2.052   4.294  21.504  0.00  0.00    +0.000 C 
ATOM      7  C   UNL     1       2.493   5.550  20.743  0.00  0.00    +0.000 C 
ATOM      8  C   UNL     1       3.599   5.183  19.730  0.00  0.00    +0.000 C 
ENDROOT
BRANCH   1   9
ATOM      9  C   UNL     1       4.283   5.058  16.886  0.00  0.00    +0.000 C 
BRANCH   9  16
ATOM     10  C   UNL     1       6.790   5.325  18.964  0.00  0.00    +0.000 C 
ATOM     11  C   UNL     1       6.815   4.925  17.537  0.00  0.00    +0.000 A 
ATOM     12  N   UNL     1       7.986   4.676  16.939  0.00  0.00    +0.000 NA
ATOM     13  O   UNL     1       7.679   4.339  15.638  0.00  0.00    +0.000 OA
ATOM     14  C   UNL     1       6.334   4.397  15.455  0.00  0.00    +0.000 A 
ATOM     15  C   UNL     1       5.858   4.076  14.094  0.00  0.00    +0.000 C 
ATOM     16  C   UNL     1       5.725   4.777  16.633  0.00  0.00    +0.000 A 
ENDBRANCH   9  16
ENDBRANCH   1   9
BRANCH   7  17
ATOM     17  O   UNL     1       1.413   6.126  19.992  0.00  0.00    +0.000 OA
BRANCH  17  18
ATOM     18  C   UNL     1       1.584   7.355  19.416  0.00  0.00    +0.000 A 
ATOM     19  C   UNL     1       2.260   7.564  18.211  0.00  0.00    +0.000 A 
ATOM     20  C   UNL     1       2.466   8.865  17.776  0.00  0.00    +0.000 A 
ATOM     21  N   UNL     1       2.029   9.956  18.435  0.00  0.00    +0.000 NA
ATOM     22  C   UNL     1       1.365   9.733  19.592  0.00  0.00    +0.000 A 
ATOM     23  C   UNL     1       1.125   8.471  20.120  0.00  0.00    +0.000 A 
ATOM     24 CL   UNL     1       0.240   8.327  21.593  0.00  0.00    +0.000 Cl
ENDBRANCH  17  18
ENDBRANCH   7  17
TORSDOF 4
ENDMDL
MODEL 7
REMARK VINA RESULT:      -6.7      1.613      1.832
REMARK  Name = 
REMARK  6 active torsions:
REMARK  status: ('A' for Active; 'I' for Inactive)
REMARK    1  A    between atoms: C_1  and  C_2
REMARK    2  A    between atoms: C_5  and  C_6
REMARK    3  A    between atoms: C_7  and  C_8
REMARK    4  A    between atoms: C_8  and  C_9
REMARK    5  A    between atoms: C_15  and  O_16
REMARK    6  A    between atoms: O_16  and  C_17
REMARK                            x       y       z     vdW  Elec       q    Type
REMARK                         _______ _______ _______ _____ _____    ______ ____
ROOT
ATOM      1  C   UNL     1       4.868   3.890  17.080  0.00  0.00    +0.000 C 
ATOM      2  O   UNL     1       4.701   3.666  15.882  0.00  0.00    +0.000 OA
ATOM      3  N   UNL     1       3.803   3.878  17.989  0.00  0.00    +0.000 N 
ATOM      4  C   UNL     1       2.516   3.344  17.547  0.00  0.00    +0.000 C 
ATOM      5  C   UNL     1       1.369   4.243  17.979  0.00  0.00    +0.000 C 
ATOM      6  C   UNL     1       1.406   4.471  19.486  0.00  0.00    +0.000 C 
ATOM      7  C   UNL     1       2.735   5.096  19.926  0.00  0.00    +0.000 C 
ATOM      8  C   UNL     1       3.910   4.231  19.417  0.00  0.00    +0.000 C 
ENDROOT
BRANCH   1   9
ATOM      9  C   UNL     1       6.250   4.184  17.658  0.00  0.00    +0.000 C 
BRANCH   9  16
ATOM     10  C   UNL     1       8.349   5.821  19.553  0.00  0.00    +0.000 C 
ATOM     11  C   UNL     1       7.568   6.322  18.397  0.00  0.00    +0.000 A 
ATOM     12  N   UNL     1       7.641   7.614  18.058  0.00  0.00    +0.000 NA
ATOM     13  O   UNL     1       6.812   7.764  16.966  0.00  0.00    +0.000 OA
ATOM     14  C   UNL     1       6.239   6.571  16.660  0.00  0.00    +0.000 A 
ATOM     15  C   UNL     1       5.306   6.583  15.515  0.00  0.00    +0.000 C 
ATOM     16  C   UNL     1       6.676   5.609  17.548  0.00  0.00    +0.000 A 
ENDBRANCH   9  16
ENDBRANCH   1   9
BRANCH   7  17
ATOM     17  O   UNL     1       2.915   6.411  19.375  0.00  0.00    +0.000 OA
BRANCH  17  18
ATOM     18  C   UNL     1       2.129   7.434  19.828  0.00  0.00    +0.000 A 
ATOM     19  C   UNL     1       1.513   7.448  21.082  0.00  0.00    +0.000 A 
ATOM     20  C   UNL     1       0.652   8.490  21.394  0.00  0.00    +0.000 A 
ATOM     21  N   UNL     1       0.384   9.517  20.564  0.00  0.00    +0.000 NA
ATOM     22  C   UNL     1       1.000   9.493  19.360  0.00  0.00    +0.000 A 
ATOM     23  C   UNL     1       1.864   8.487  18.949  0.00  0.00    +0.000 A 
ATOM     24 CL   UNL     1       2.606   8.594  17.395  0.00  0.00    +0.000 Cl
ENDBRANCH  17  18
ENDBRANCH   7  17
TORSDOF 4
ENDMDL
MODEL 8
REMARK VINA RESULT:      -6.6      2.116      6.443
REMARK  Name = 
REMARK  6 active torsions:
REMARK  status: ('A' for Active; 'I' for Inactive)
REMARK    1  A    between atoms: C_1  and  C_2
REMARK    2  A    between atoms: C_5  and  C_6
REMARK    3  A    between atoms: C_7  and  C_8
REMARK    4  A    between atoms: C_8  and  C_9
REMARK    5  A    between atoms: C_15  and  O_16
REMARK    6  A    between atoms: O_16  and  C_17
REMARK                            x       y       z     vdW  Elec       q    Type
REMARK                         _______ _______ _______ _____ _____    ______ ____
ROOT
ATOM      1  C   UNL     1       2.032   5.629  20.231  0.00  0.00    +0.000 C 
ATOM      2  O   UNL     1       1.496   5.324  21.294  0.00  0.00    +0.000 OA
ATOM      3  N   UNL     1       2.020   4.769  19.125  0.00  0.00    +0.000 N 
ATOM      4  C   UNL     1       1.141   3.602  19.160  0.00  0.00    +0.000 C 
ATOM      5  C   UNL     1       1.860   2.355  18.670  0.00  0.00    +0.000 C 
ATOM      6  C   UNL     1       2.448   2.587  17.282  0.00  0.00    +0.000 C 
ATOM      7  C   UNL     1       3.422   3.772  17.278  0.00  0.00    +0.000 C 
ATOM      8  C   UNL     1       2.723   5.022  17.853  0.00  0.00    +0.000 C 
ENDROOT
BRANCH   1   9
ATOM      9  C   UNL     1       2.737   6.969  20.040  0.00  0.00    +0.000 C 
BRANCH   9  16
ATOM     10  C   UNL     1       2.235   8.669  17.295  0.00  0.00    +0.000 C 
ATOM     11  C   UNL     1       1.631   8.878  18.631  0.00  0.00    +0.000 A 
ATOM     12  N   UNL     1       0.801   9.910  18.829  0.00  0.00    +0.000 NA
ATOM     13  O   UNL     1       0.417   9.836  20.151  0.00  0.00    +0.000 OA
ATOM     14  C   UNL     1       1.021   8.772  20.744  0.00  0.00    +0.000 A 
ATOM     15  C   UNL     1       0.715   8.578  22.175  0.00  0.00    +0.000 C 
ATOM     16  C   UNL     1       1.820   8.125  19.824  0.00  0.00    +0.000 A 
ENDBRANCH   9  16
ENDBRANCH   1   9
BRANCH   7  17
ATOM     17  O   UNL     1       4.573   3.520  18.101  0.00  0.00    +0.000 OA
BRANCH  17  18
ATOM     18  C   UNL     1       5.644   4.367  18.022  0.00  0.00    +0.000 A 
ATOM     19  C   UNL     1       6.099   5.149  19.087  0.00  0.00    +0.000 A 
ATOM     20  C   UNL     1       7.129   6.052  18.862  0.00  0.00    +0.000 A 
ATOM     21  N   UNL     1       7.744   6.209  17.674  0.00  0.00    +0.000 NA
ATOM     22  C   UNL     1       7.298   5.434  16.659  0.00  0.00    +0.000 A 
ATOM     23  C   UNL     1       6.264   4.516  16.779  0.00  0.00    +0.000 A 
ATOM     24 CL   UNL     1       5.812   3.569  15.409  0.00  0.00    +0.000 Cl
ENDBRANCH  17  18
ENDBRANCH   7  17
TORSDOF 4
ENDMDL
MODEL 9
REMARK VINA RESULT:      -6.6      1.408      1.516
REMARK  Name = 
REMARK  6 active torsions:
REMARK  status: ('A' for Active; 'I' for Inactive)
REMARK    1  A    between atoms: C_1  and  C_2
REMARK    2  A    between atoms: C_5  and  C_6
REMARK    3  A    between atoms: C_7  and  C_8
REMARK    4  A    between atoms: C_8  and  C_9
REMARK    5  A    between atoms: C_15  and  O_16
REMARK    6  A    between atoms: O_16  and  C_17
REMARK                            x       y       z     vdW  Elec       q    Type
REMARK                         _______ _______ _______ _____ _____    ______ ____
ROOT
ATOM      1  C   UNL     1       3.939   3.398  17.721  0.00  0.00    +0.000 C 
ATOM      2  O   UNL     1       3.491   2.713  16.803  0.00  0.00    +0.000 OA
ATOM      3  N   UNL     1       3.225   3.596  18.910  0.00  0.00    +0.000 N 
ATOM      4  C   UNL     1       2.044   2.771  19.158  0.00  0.00    +0.000 C 
ATOM      5  C   UNL     1       0.883   3.609  19.671  0.00  0.00    +0.000 C 
ATOM      6  C   UNL     1       1.300   4.399  20.907  0.00  0.00    +0.000 C 
ATOM      7  C   UNL     1       2.496   5.312  20.612  0.00  0.00    +0.000 C 
ATOM      8  C   UNL     1       3.650   4.480  20.011  0.00  0.00    +0.000 C 
ENDROOT
BRANCH   1   9
ATOM      9  C   UNL     1       5.307   4.068  17.633  0.00  0.00    +0.000 C 
BRANCH   9  16
ATOM     10  C   UNL     1       4.794   7.291  17.787  0.00  0.00    +0.000 C 
ATOM     11  C   UNL     1       5.177   6.474  16.611  0.00  0.00    +0.000 A 
ATOM     12  N   UNL     1       5.296   7.055  15.411  0.00  0.00    +0.000 NA
ATOM     13  O   UNL     1       5.652   6.048  14.539  0.00  0.00    +0.000 OA
ATOM     14  C   UNL     1       5.736   4.870  15.211  0.00  0.00    +0.000 A 
ATOM     15  C   UNL     1       6.094   3.692  14.396  0.00  0.00    +0.000 C 
ATOM     16  C   UNL     1       5.433   5.076  16.541  0.00  0.00    +0.000 A 
ENDBRANCH   9  16
ENDBRANCH   1   9
BRANCH   7  17
ATOM     17  O   UNL     1       2.168   6.328  19.649  0.00  0.00    +0.000 OA
BRANCH  17  18
ATOM     18  C   UNL     1       1.794   7.567  20.092  0.00  0.00    +0.000 A 
ATOM     19  C   UNL     1       1.590   7.886  21.436  0.00  0.00    +0.000 A 
ATOM     20  C   UNL     1       1.108   9.146  21.760  0.00  0.00    +0.000 A 
ATOM     21  N   UNL     1       0.845  10.105  20.852  0.00  0.00    +0.000 NA
ATOM     22  C   UNL     1       1.062   9.783  19.556  0.00  0.00    +0.000 A 
ATOM     23  C   UNL     1       1.525   8.545  19.131  0.00  0.00    +0.000 A 
ATOM     24 CL   UNL     1       1.786   8.274  17.447  0.00  0.00    +0.000 Cl
ENDBRANCH  17  18
ENDBRANCH   7  17
TORSDOF 4
ENDMDL
