MODEL 1
REMARK VINA RESULT:      -8.4      0.000      0.000
REMARK  Name = 
REMARK  7 active torsions:
REMARK  status: ('A' for Active; 'I' for Inactive)
REMARK    1  A    between atoms: C_5  and  C_6
REMARK    2  A    between atoms: C_6  and  O_7
REMARK    3  A    between atoms: C_6  and  C_16
REMARK    4  A    between atoms: O_7  and  C_8
REMARK    5  A    between atoms: C_8  and  C_9
REMARK    6  A    between atoms: C_9  and  C_10
REMARK    7  A    between atoms: C_10  and  C_11
REMARK                            x       y       z     vdW  Elec       q    Type
REMARK                         _______ _______ _______ _____ _____    ______ ____
ROOT
ATOM      1  C   UNL     1       6.290   5.707  17.507  0.00  0.00    +0.000 C 
ENDROOT
BRANCH   1   2
ATOM      2  C   UNL     1       5.023   5.446  18.308  0.00  0.00    +0.000 A 
ATOM      3  C   UNL     1       3.987   6.391  18.305  0.00  0.00    +0.000 A 
ATOM      4  C   UNL     1       2.799   6.145  18.996  0.00  0.00    +0.000 A 
ATOM      5  C   UNL     1       2.621   4.954  19.715  0.00  0.00    +0.000 A 
ATOM      6  C   UNL     1       1.442   4.706  20.435  0.00  0.00    +0.000 A 
ATOM      7  C   UNL     1       1.278   3.517  21.146  0.00  0.00    +0.000 A 
ATOM      8  C   UNL     1       2.284   2.555  21.134  0.00  0.00    +0.000 A 
ATOM      9  C   UNL     1       3.460   2.785  20.418  0.00  0.00    +0.000 A 
ATOM     10  C   UNL     1       3.647   3.985  19.713  0.00  0.00    +0.000 A 
ATOM     11  C   UNL     1       4.834   4.241  19.005  0.00  0.00    +0.000 A 
ENDBRANCH   1   2
BRANCH   1  16
ATOM     12 BR   UNL     1       6.179   3.226  11.793  0.00  0.00    +0.000 Br
ATOM     13  C   UNL     1       6.214   3.957  13.537  0.00  0.00    +0.000 A 
ATOM     14  C   UNL     1       7.349   4.625  13.985  0.00  0.00    +0.000 A 
ATOM     15  C   UNL     1       7.368   5.182  15.270  0.00  0.00    +0.000 A 
ATOM     16  C   UNL     1       6.247   5.084  16.112  0.00  0.00    +0.000 A 
ATOM     17  C   UNL     1       5.118   4.390  15.644  0.00  0.00    +0.000 A 
ATOM     18  C   UNL     1       5.100   3.827  14.363  0.00  0.00    +0.000 A 
ENDBRANCH   1  16
BRANCH   1  19
ATOM     19  O   UNL     1       6.545   7.116  17.399  0.00  0.00    +0.000 OA
BRANCH  19  20
ATOM     20  C   UNL     1       7.813   7.508  17.930  0.00  0.00    +0.000 C 
BRANCH  20  21
ATOM     21  C   UNL     1       7.938   9.024  17.871  0.00  0.00    +0.000 C 
BRANCH  21  22
ATOM     22  C   UNL     1       8.969   9.542  18.875  0.00  0.00    +0.000 C 
BRANCH  22  23
ATOM     23  C   UNL     1       9.418  10.922  18.555  0.00  0.00    +0.000 A 
ATOM     24  C   UNL     1      10.571  11.569  18.946  0.00  0.00    +0.000 A 
ATOM     25  N   UNL     1      10.502  12.806  18.367  0.00  0.00    +0.000 N 
ATOM     26  C   UNL     1       9.335  12.865  17.664  0.00  0.00    +0.000 A 
ATOM     27  N   UNL     1       8.655  11.746  17.762  0.00  0.00    +0.000 NA
ATOM     28  H   UNL     1      11.189  13.541  18.439  0.00  0.00    +0.000 HD
ENDBRANCH  22  23
ENDBRANCH  21  22
ENDBRANCH  20  21
ENDBRANCH  19  20
ENDBRANCH   1  19
TORSDOF 7
ENDMDL
MODEL 2
REMARK VINA RESULT:      -8.3      5.109      8.191
REMARK  Name = 
REMARK  7 active torsions:
REMARK  status: ('A' for Active; 'I' for Inactive)
REMARK    1  A    between atoms: C_5  and  C_6
REMARK    2  A    between atoms: C_6  and  O_7
REMARK    3  A    between atoms: C_6  and  C_16
REMARK    4  A    between atoms: O_7  and  C_8
REMARK    5  A    between atoms: C_8  and  C_9
REMARK    6  A    between atoms: C_9  and  C_10
REMARK    7  A    between atoms: C_10  and  C_11
REMARK                            x       y       z     vdW  Elec       q    Type
REMARK                         _______ _______ _______ _____ _____    ______ ____
ROOT
ATOM      1  C   UNL     1       2.625   6.014  19.617  0.00  0.00    +0.000 C 
ENDROOT
BRANCH   1   2
ATOM      2  C   UNL     1       3.868   5.704  18.795  0.00  0.00    +0.000 A 
ATOM      3  C   UNL     1       5.123   5.656  19.418  0.00  0.00    +0.000 A 
ATOM      4  C   UNL     1       6.266   5.327  18.687  0.00  0.00    +0.000 A 
ATOM      5  C   UNL     1       6.184   5.048  17.315  0.00  0.00    +0.000 A 
ATOM      6  C   UNL     1       7.330   4.740  16.564  0.00  0.00    +0.000 A 
ATOM      7  C   UNL     1       7.234   4.464  15.200  0.00  0.00    +0.000 A 
ATOM      8  C   UNL     1       5.991   4.477  14.573  0.00  0.00    +0.000 A 
ATOM      9  C   UNL     1       4.842   4.776  15.307  0.00  0.00    +0.000 A 
ATOM     10  C   UNL     1       4.925   5.073  16.678  0.00  0.00    +0.000 A 
ATOM     11  C   UNL     1       3.781   5.397  17.427  0.00  0.00    +0.000 A 
ENDBRANCH   1   2
BRANCH   1  16
ATOM     12 BR   UNL     1       0.700  11.885  18.818  0.00  0.00    +0.000 Br
ATOM     13  C   UNL     1       1.261  10.096  19.062  0.00  0.00    +0.000 A 
ATOM     14  C   UNL     1       1.802   9.388  17.993  0.00  0.00    +0.000 A 
ATOM     15  C   UNL     1       2.234   8.068  18.179  0.00  0.00    +0.000 A 
ATOM     16  C   UNL     1       2.139   7.451  19.438  0.00  0.00    +0.000 A 
ATOM     17  C   UNL     1       1.574   8.180  20.499  0.00  0.00    +0.000 A 
ATOM     18  C   UNL     1       1.135   9.496  20.313  0.00  0.00    +0.000 A 
ENDBRANCH   1  16
BRANCH   1  19
ATOM     19  O   UNL     1       1.562   5.102  19.298  0.00  0.00    +0.000 OA
BRANCH  19  20
ATOM     20  C   UNL     1       0.769   4.734  20.428  0.00  0.00    +0.000 C 
BRANCH  20  21
ATOM     21  C   UNL     1       1.268   3.407  20.984  0.00  0.00    +0.000 C 
BRANCH  21  22
ATOM     22  C   UNL     1       1.233   2.306  19.923  0.00  0.00    +0.000 C 
BRANCH  22  23
ATOM     23  C   UNL     1       2.557   2.109  19.278  0.00  0.00    +0.000 A 
ATOM     24  C   UNL     1       2.843   1.833  17.958  0.00  0.00    +0.000 A 
ATOM     25  N   UNL     1       4.208   1.769  17.892  0.00  0.00    +0.000 N 
ATOM     26  C   UNL     1       4.690   2.000  19.147  0.00  0.00    +0.000 A 
ATOM     27  N   UNL     1       3.719   2.204  20.007  0.00  0.00    +0.000 NA
ATOM     28  H   UNL     1       4.761   1.588  17.068  0.00  0.00    +0.000 HD
ENDBRANCH  22  23
ENDBRANCH  21  22
ENDBRANCH  20  21
ENDBRANCH  19  20
ENDBRANCH   1  19
TORSDOF 7
ENDMDL
MODEL 3
REMARK VINA RESULT:      -8.2      0.542      1.197
REMARK  Name = 
REMARK  7 active torsions:
REMARK  status: ('A' for Active; 'I' for Inactive)
REMARK    1  A    between atoms: C_5  and  C_6
REMARK    2  A    between atoms: C_6  and  O_7
REMARK    3  A    between atoms: C_6  and  C_16
REMARK    4  A    between atoms: O_7  and  C_8
REMARK    5  A    between atoms: C_8  and  C_9
REMARK    6  A    between atoms: C_9  and  C_10
REMARK    7  A    between atoms: C_10  and  C_11
REMARK                            x       y       z     vdW  Elec       q    Type
REMARK                         _______ _______ _______ _____ _____    ______ ____
ROOT
ATOM      1  C   UNL     1       6.161   5.763  17.554  0.00  0.00    +0.000 C 
ENDROOT
BRANCH   1   2
ATOM      2  C   UNL     1       4.881   5.450  18.314  0.00  0.00    +0.000 A 
ATOM      3  C   UNL     1       3.795   6.335  18.249  0.00  0.00    +0.000 A 
ATOM      4  C   UNL     1       2.598   6.039  18.902  0.00  0.00    +0.000 A 
ATOM      5  C   UNL     1       2.459   4.857  19.644  0.00  0.00    +0.000 A 
ATOM      6  C   UNL     1       1.268   4.560  20.326  0.00  0.00    +0.000 A 
ATOM      7  C   UNL     1       1.144   3.381  21.061  0.00  0.00    +0.000 A 
ATOM      8  C   UNL     1       2.201   2.476  21.110  0.00  0.00    +0.000 A 
ATOM      9  C   UNL     1       3.389   2.755  20.433  0.00  0.00    +0.000 A 
ATOM     10  C   UNL     1       3.536   3.947  19.704  0.00  0.00    +0.000 A 
ATOM     11  C   UNL     1       4.733   4.253  19.034  0.00  0.00    +0.000 A 
ENDBRANCH   1   2
BRANCH   1  16
ATOM     12 BR   UNL     1       6.208   3.166  11.891  0.00  0.00    +0.000 Br
ATOM     13  C   UNL     1       6.194   3.976  13.599  0.00  0.00    +0.000 A 
ATOM     14  C   UNL     1       5.037   3.945  14.371  0.00  0.00    +0.000 A 
ATOM     15  C   UNL     1       5.033   4.529  15.644  0.00  0.00    +0.000 A 
ATOM     16  C   UNL     1       6.189   5.139  16.159  0.00  0.00    +0.000 A 
ATOM     17  C   UNL     1       7.342   5.173  15.354  0.00  0.00    +0.000 A 
ATOM     18  C   UNL     1       7.345   4.596  14.079  0.00  0.00    +0.000 A 
ENDBRANCH   1  16
BRANCH   1  19
ATOM     19  O   UNL     1       6.362   7.182  17.452  0.00  0.00    +0.000 OA
BRANCH  19  20
ATOM     20  C   UNL     1       7.731   7.573  17.570  0.00  0.00    +0.000 C 
BRANCH  20  21
ATOM     21  C   UNL     1       7.807   9.074  17.814  0.00  0.00    +0.000 C 
BRANCH  21  22
ATOM     22  C   UNL     1       8.916   9.426  18.807  0.00  0.00    +0.000 C 
BRANCH  22  23
ATOM     23  C   UNL     1       9.312  10.856  18.720  0.00  0.00    +0.000 A 
ATOM     24  C   UNL     1       8.870  11.824  17.844  0.00  0.00    +0.000 A 
ATOM     25  N   UNL     1       9.533  12.964  18.205  0.00  0.00    +0.000 N 
ATOM     26  C   UNL     1      10.338  12.653  19.262  0.00  0.00    +0.000 A 
ATOM     27  N   UNL     1      10.231  11.387  19.593  0.00  0.00    +0.000 NA
ATOM     28  H   UNL     1       9.443  13.872  17.774  0.00  0.00    +0.000 HD
ENDBRANCH  22  23
ENDBRANCH  21  22
ENDBRANCH  20  21
ENDBRANCH  19  20
ENDBRANCH   1  19
TORSDOF 7
ENDMDL
MODEL 4
REMARK VINA RESULT:      -8.2      4.784      8.206
REMARK  Name = 
REMARK  7 active torsions:
REMARK  status: ('A' for Active; 'I' for Inactive)
REMARK    1  A    between atoms: C_5  and  C_6
REMARK    2  A    between atoms: C_6  and  O_7
REMARK    3  A    between atoms: C_6  and  C_16
REMARK    4  A    between atoms: O_7  and  C_8
REMARK    5  A    between atoms: C_8  and  C_9
REMARK    6  A    between atoms: C_9  and  C_10
REMARK    7  A    between atoms: C_10  and  C_11
REMARK                            x       y       z     vdW  Elec       q    Type
REMARK                         _______ _______ _______ _____ _____    ______ ____
ROOT
ATOM      1  C   UNL     1       2.941   6.269  19.316  0.00  0.00    +0.000 C 
ENDROOT
BRANCH   1   2
ATOM      2  C   UNL     1       4.040   6.088  18.280  0.00  0.00    +0.000 A 
ATOM      3  C   UNL     1       5.209   6.858  18.359  0.00  0.00    +0.000 A 
ATOM      4  C   UNL     1       6.246   6.670  17.443  0.00  0.00    +0.000 A 
ATOM      5  C   UNL     1       6.136   5.716  16.421  0.00  0.00    +0.000 A 
ATOM      6  C   UNL     1       7.161   5.535  15.479  0.00  0.00    +0.000 A 
ATOM      7  C   UNL     1       7.039   4.582  14.468  0.00  0.00    +0.000 A 
ATOM      8  C   UNL     1       5.898   3.788  14.394  0.00  0.00    +0.000 A 
ATOM      9  C   UNL     1       4.872   3.952  15.326  0.00  0.00    +0.000 A 
ATOM     10  C   UNL     1       4.973   4.920  16.340  0.00  0.00    +0.000 A 
ATOM     11  C   UNL     1       3.941   5.113  17.273  0.00  0.00    +0.000 A 
ENDBRANCH   1   2
BRANCH   1  16
ATOM     12 BR   UNL     1      -0.063  11.707  18.848  0.00  0.00    +0.000 Br
ATOM     13  C   UNL     1       0.870  10.068  18.987  0.00  0.00    +0.000 A 
ATOM     14  C   UNL     1       0.981   9.437  20.222  0.00  0.00    +0.000 A 
ATOM     15  C   UNL     1       1.657   8.214  20.321  0.00  0.00    +0.000 A 
ATOM     16  C   UNL     1       2.216   7.607  19.184  0.00  0.00    +0.000 A 
ATOM     17  C   UNL     1       2.105   8.271  17.949  0.00  0.00    +0.000 A 
ATOM     18  C   UNL     1       1.437   9.497  17.850  0.00  0.00    +0.000 A 
ENDBRANCH   1  16
BRANCH   1  19
ATOM     19  O   UNL     1       1.989   5.195  19.244  0.00  0.00    +0.000 OA
BRANCH  19  20
ATOM     20  C   UNL     1       1.319   4.944  20.482  0.00  0.00    +0.000 C 
BRANCH  20  21
ATOM     21  C   UNL     1       0.691   3.558  20.443  0.00  0.00    +0.000 C 
BRANCH  21  22
ATOM     22  C   UNL     1       1.635   2.498  21.012  0.00  0.00    +0.000 C 
BRANCH  22  23
ATOM     23  C   UNL     1       2.800   2.250  20.123  0.00  0.00    +0.000 A 
ATOM     24  C   UNL     1       4.140   2.450  20.377  0.00  0.00    +0.000 A 
ATOM     25  N   UNL     1       4.785   2.048  19.240  0.00  0.00    +0.000 N 
ATOM     26  C   UNL     1       3.834   1.631  18.355  0.00  0.00    +0.000 A 
ATOM     27  N   UNL     1       2.625   1.746  18.856  0.00  0.00    +0.000 NA
ATOM     28  H   UNL     1       5.781   2.053  19.082  0.00  0.00    +0.000 HD
ENDBRANCH  22  23
ENDBRANCH  21  22
ENDBRANCH  20  21
ENDBRANCH  19  20
ENDBRANCH   1  19
TORSDOF 7
ENDMDL
MODEL 5
REMARK VINA RESULT:      -8.0      4.518      7.347
REMARK  Name = 
REMARK  7 active torsions:
REMARK  status: ('A' for Active; 'I' for Inactive)
REMARK    1  A    between atoms: C_5  and  C_6
REMARK    2  A    between atoms: C_6  and  O_7
REMARK    3  A    between atoms: C_6  and  C_16
REMARK    4  A    between atoms: O_7  and  C_8
REMARK    5  A    between atoms: C_8  and  C_9
REMARK    6  A    between atoms: C_9  and  C_10
REMARK    7  A    between atoms: C_10  and  C_11
REMARK                            x       y       z     vdW  Elec       q    Type
REMARK                         _______ _______ _______ _____ _____    ______ ____
ROOT
ATOM      1  C   UNL     1       2.577   5.980  19.095  0.00  0.00    +0.000 C 
ENDROOT
BRANCH   1   2
ATOM      2  C   UNL     1       2.129   7.434  19.047  0.00  0.00    +0.000 A 
ATOM      3  C   UNL     1       2.198   8.147  17.842  0.00  0.00    +0.000 A 
ATOM      4  C   UNL     1       1.747   9.466  17.772  0.00  0.00    +0.000 A 
ATOM      5  C   UNL     1       1.226  10.108  18.905  0.00  0.00    +0.000 A 
ATOM      6  C   UNL     1       0.792  11.442  18.853  0.00  0.00    +0.000 A 
ATOM      7  C   UNL     1       0.276  12.068  19.988  0.00  0.00    +0.000 A 
ATOM      8  C   UNL     1       0.172  11.364  21.184  0.00  0.00    +0.000 A 
ATOM      9  C   UNL     1       0.594  10.035  21.250  0.00  0.00    +0.000 A 
ATOM     10  C   UNL     1       1.133   9.397  20.121  0.00  0.00    +0.000 A 
ATOM     11  C   UNL     1       1.582   8.067  20.176  0.00  0.00    +0.000 A 
ENDBRANCH   1   2
BRANCH   1  16
ATOM     12 BR   UNL     1       6.999   4.747  14.884  0.00  0.00    +0.000 Br
ATOM     13  C   UNL     1       5.663   5.101  16.173  0.00  0.00    +0.000 A 
ATOM     14  C   UNL     1       5.861   6.099  17.121  0.00  0.00    +0.000 A 
ATOM     15  C   UNL     1       4.863   6.373  18.065  0.00  0.00    +0.000 A 
ATOM     16  C   UNL     1       3.654   5.658  18.060  0.00  0.00    +0.000 A 
ATOM     17  C   UNL     1       3.482   4.642  17.103  0.00  0.00    +0.000 A 
ATOM     18  C   UNL     1       4.482   4.362  16.164  0.00  0.00    +0.000 A 
ENDBRANCH   1  16
BRANCH   1  19
ATOM     19  O   UNL     1       3.049   5.634  20.407  0.00  0.00    +0.000 OA
BRANCH  19  20
ATOM     20  C   UNL     1       2.030   5.101  21.256  0.00  0.00    +0.000 C 
BRANCH  20  21
ATOM     21  C   UNL     1       1.121   4.190  20.442  0.00  0.00    +0.000 C 
BRANCH  21  22
ATOM     22  C   UNL     1       1.418   2.714  20.712  0.00  0.00    +0.000 C 
BRANCH  22  23
ATOM     23  C   UNL     1       2.606   2.236  19.959  0.00  0.00    +0.000 A 
ATOM     24  C   UNL     1       3.930   2.232  20.342  0.00  0.00    +0.000 A 
ATOM     25  N   UNL     1       4.606   1.671  19.295  0.00  0.00    +0.000 N 
ATOM     26  C   UNL     1       3.689   1.363  18.333  0.00  0.00    +0.000 A 
ATOM     27  N   UNL     1       2.473   1.696  18.701  0.00  0.00    +0.000 NA
ATOM     28  H   UNL     1       5.600   1.508  19.241  0.00  0.00    +0.000 HD
ENDBRANCH  22  23
ENDBRANCH  21  22
ENDBRANCH  20  21
ENDBRANCH  19  20
ENDBRANCH   1  19
TORSDOF 7
ENDMDL
MODEL 6
REMARK VINA RESULT:      -8.0      4.542      7.441
REMARK  Name = 
REMARK  7 active torsions:
REMARK  status: ('A' for Active; 'I' for Inactive)
REMARK    1  A    between atoms: C_5  and  C_6
REMARK    2  A    between atoms: C_6  and  O_7
REMARK    3  A    between atoms: C_6  and  C_16
REMARK    4  A    between atoms: O_7  and  C_8
REMARK    5  A    between atoms: C_8  and  C_9
REMARK    6  A    between atoms: C_9  and  C_10
REMARK    7  A    between atoms: C_10  and  C_11
REMARK                            x       y       z     vdW  Elec       q    Type
REMARK                         _______ _______ _______ _____ _____    ______ ____
ROOT
ATOM      1  C   UNL     1       2.481   6.153  18.937  0.00  0.00    +0.000 C 
ENDROOT
BRANCH   1   2
ATOM      2  C   UNL     1       2.053   7.613  18.951  0.00  0.00    +0.000 A 
ATOM      3  C   UNL     1       2.086   8.362  17.766  0.00  0.00    +0.000 A 
ATOM      4  C   UNL     1       1.652   9.689  17.753  0.00  0.00    +0.000 A 
ATOM      5  C   UNL     1       1.184  10.302  18.924  0.00  0.00    +0.000 A 
ATOM      6  C   UNL     1       0.768  11.642  18.930  0.00  0.00    +0.000 A 
ATOM      7  C   UNL     1       0.304  12.240  20.102  0.00  0.00    +0.000 A 
ATOM      8  C   UNL     1       0.235  11.500  21.280  0.00  0.00    +0.000 A 
ATOM      9  C   UNL     1       0.640  10.164  21.289  0.00  0.00    +0.000 A 
ATOM     10  C   UNL     1       1.126   9.555  20.121  0.00  0.00    +0.000 A 
ATOM     11  C   UNL     1       1.558   8.217  20.118  0.00  0.00    +0.000 A 
ENDBRANCH   1   2
BRANCH   1  16
ATOM     12 BR   UNL     1       6.893   4.884  14.725  0.00  0.00    +0.000 Br
ATOM     13  C   UNL     1       5.543   5.284  15.987  0.00  0.00    +0.000 A 
ATOM     14  C   UNL     1       4.574   4.334  16.289  0.00  0.00    +0.000 A 
ATOM     15  C   UNL     1       3.585   4.624  17.238  0.00  0.00    +0.000 A 
ATOM     16  C   UNL     1       3.565   5.863  17.900  0.00  0.00    +0.000 A 
ATOM     17  C   UNL     1       4.546   6.814  17.567  0.00  0.00    +0.000 A 
ATOM     18  C   UNL     1       5.530   6.528  16.614  0.00  0.00    +0.000 A 
ENDBRANCH   1  16
BRANCH   1  19
ATOM     19  O   UNL     1       2.934   5.741  20.237  0.00  0.00    +0.000 OA
BRANCH  19  20
ATOM     20  C   UNL     1       1.910   5.136  21.031  0.00  0.00    +0.000 C 
BRANCH  20  21
ATOM     21  C   UNL     1       1.017   4.284  20.139  0.00  0.00    +0.000 C 
BRANCH  21  22
ATOM     22  C   UNL     1       1.209   2.792  20.414  0.00  0.00    +0.000 C 
BRANCH  22  23
ATOM     23  C   UNL     1       2.469   2.271  19.824  0.00  0.00    +0.000 A 
ATOM     24  C   UNL     1       2.657   1.611  18.629  0.00  0.00    +0.000 A 
ATOM     25  N   UNL     1       4.001   1.371  18.559  0.00  0.00    +0.000 N 
ATOM     26  C   UNL     1       4.568   1.880  19.690  0.00  0.00    +0.000 A 
ATOM     27  N   UNL     1       3.669   2.425  20.477  0.00  0.00    +0.000 NA
ATOM     28  H   UNL     1       4.489   0.906  17.807  0.00  0.00    +0.000 HD
ENDBRANCH  22  23
ENDBRANCH  21  22
ENDBRANCH  20  21
ENDBRANCH  19  20
ENDBRANCH   1  19
TORSDOF 7
ENDMDL
MODEL 7
REMARK VINA RESULT:      -7.9      4.311      6.541
REMARK  Name = 
REMARK  7 active torsions:
REMARK  status: ('A' for Active; 'I' for Inactive)
REMARK    1  A    between atoms: C_5  and  C_6
REMARK    2  A    between atoms: C_6  and  O_7
REMARK    3  A    between atoms: C_6  and  C_16
REMARK    4  A    between atoms: O_7  and  C_8
REMARK    5  A    between atoms: C_8  and  C_9
REMARK    6  A    between atoms: C_9  and  C_10
REMARK    7  A    between atoms: C_10  and  C_11
REMARK                            x       y       z     vdW  Elec       q    Type
REMARK                         _______ _______ _______ _____ _____    ______ ____
ROOT
ATOM      1  C   UNL     1       2.630   7.918  17.464  0.00  0.00    +0.000 C 
ENDROOT
BRANCH   1   2
ATOM      2  C   UNL     1       2.342   6.762  18.410  0.00  0.00    +0.000 A 
ATOM      3  C   UNL     1       2.284   6.988  19.793  0.00  0.00    +0.000 A 
ATOM      4  C   UNL     1       1.975   5.947  20.670  0.00  0.00    +0.000 A 
ATOM      5  C   UNL     1       1.725   4.654  20.189  0.00  0.00    +0.000 A 
ATOM      6  C   UNL     1       1.437   3.593  21.062  0.00  0.00    +0.000 A 
ATOM      7  C   UNL     1       1.190   2.311  20.570  0.00  0.00    +0.000 A 
ATOM      8  C   UNL     1       1.213   2.077  19.198  0.00  0.00    +0.000 A 
ATOM      9  C   UNL     1       1.492   3.122  18.316  0.00  0.00    +0.000 A 
ATOM     10  C   UNL     1       1.760   4.414  18.798  0.00  0.00    +0.000 A 
ATOM     11  C   UNL     1       2.064   5.472  17.925  0.00  0.00    +0.000 A 
ENDBRANCH   1   2
BRANCH   1  16
ATOM     12 BR   UNL     1      -0.438  13.112  19.020  0.00  0.00    +0.000 Br
ATOM     13  C   UNL     1       0.502  11.535  18.570  0.00  0.00    +0.000 A 
ATOM     14  C   UNL     1      -0.191  10.342  18.394  0.00  0.00    +0.000 A 
ATOM     15  C   UNL     1       0.503   9.177  18.043  0.00  0.00    +0.000 A 
ATOM     16  C   UNL     1       1.895   9.200  17.855  0.00  0.00    +0.000 A 
ATOM     17  C   UNL     1       2.577  10.413  18.055  0.00  0.00    +0.000 A 
ATOM     18  C   UNL     1       1.885  11.576  18.412  0.00  0.00    +0.000 A 
ENDBRANCH   1  16
BRANCH   1  19
ATOM     19  O   UNL     1       4.041   8.175  17.386  0.00  0.00    +0.000 OA
BRANCH  19  20
ATOM     20  C   UNL     1       4.808   7.031  17.003  0.00  0.00    +0.000 C 
BRANCH  20  21
ATOM     21  C   UNL     1       6.284   7.307  17.253  0.00  0.00    +0.000 C 
BRANCH  21  22
ATOM     22  C   UNL     1       7.100   6.013  17.281  0.00  0.00    +0.000 C 
BRANCH  22  23
ATOM     23  C   UNL     1       6.881   5.187  16.065  0.00  0.00    +0.000 A 
ATOM     24  C   UNL     1       6.183   4.005  15.935  0.00  0.00    +0.000 A 
ATOM     25  N   UNL     1       6.274   3.678  14.611  0.00  0.00    +0.000 N 
ATOM     26  C   UNL     1       7.010   4.649  13.998  0.00  0.00    +0.000 A 
ATOM     27  N   UNL     1       7.396   5.572  14.849  0.00  0.00    +0.000 NA
ATOM     28  H   UNL     1       5.869   2.869  14.164  0.00  0.00    +0.000 HD
ENDBRANCH  22  23
ENDBRANCH  21  22
ENDBRANCH  20  21
ENDBRANCH  19  20
ENDBRANCH   1  19
TORSDOF 7
ENDMDL
MODEL 8
REMARK VINA RESULT:      -7.9      4.999      8.224
REMARK  Name = 
REMARK  7 active torsions:
REMARK  status: ('A' for Active; 'I' for Inactive)
REMARK    1  A    between atoms: C_5  and  C_6
REMARK    2  A    between atoms: C_6  and  O_7
REMARK    3  A    between atoms: C_6  and  C_16
REMARK    4  A    between atoms: O_7  and  C_8
REMARK    5  A    between atoms: C_8  and  C_9
REMARK    6  A    between atoms: C_9  and  C_10
REMARK    7  A    between atoms: C_10  and  C_11
REMARK                            x       y       z     vdW  Elec       q    Type
REMARK                         _______ _______ _______ _____ _____    ______ ____
ROOT
ATOM      1  C   UNL     1       2.804   6.173  19.751  0.00  0.00    +0.000 C 
ENDROOT
BRANCH   1   2
ATOM      2  C   UNL     1       3.530   5.607  18.540  0.00  0.00    +0.000 A 
ATOM      3  C   UNL     1       2.848   4.769  17.645  0.00  0.00    +0.000 A 
ATOM      4  C   UNL     1       3.486   4.280  16.504  0.00  0.00    +0.000 A 
ATOM      5  C   UNL     1       4.823   4.607  16.234  0.00  0.00    +0.000 A 
ATOM      6  C   UNL     1       5.484   4.102  15.103  0.00  0.00    +0.000 A 
ATOM      7  C   UNL     1       6.814   4.436  14.846  0.00  0.00    +0.000 A 
ATOM      8  C   UNL     1       7.495   5.291  15.708  0.00  0.00    +0.000 A 
ATOM      9  C   UNL     1       6.850   5.807  16.833  0.00  0.00    +0.000 A 
ATOM     10  C   UNL     1       5.517   5.465  17.115  0.00  0.00    +0.000 A 
ATOM     11  C   UNL     1       4.860   5.958  18.255  0.00  0.00    +0.000 A 
ENDBRANCH   1   2
BRANCH   1  16
ATOM     12 BR   UNL     1       0.111  11.690  18.685  0.00  0.00    +0.000 Br
ATOM     13  C   UNL     1       0.950  10.026  19.008  0.00  0.00    +0.000 A 
ATOM     14  C   UNL     1       0.867   9.441  20.267  0.00  0.00    +0.000 A 
ATOM     15  C   UNL     1       1.473   8.200  20.501  0.00  0.00    +0.000 A 
ATOM     16  C   UNL     1       2.158   7.530  19.473  0.00  0.00    +0.000 A 
ATOM     17  C   UNL     1       2.243   8.148  18.213  0.00  0.00    +0.000 A 
ATOM     18  C   UNL     1       1.644   9.391  17.980  0.00  0.00    +0.000 A 
ENDBRANCH   1  16
BRANCH   1  19
ATOM     19  O   UNL     1       1.809   5.253  20.227  0.00  0.00    +0.000 OA
BRANCH  19  20
ATOM     20  C   UNL     1       2.064   4.773  21.549  0.00  0.00    +0.000 C 
BRANCH  20  21
ATOM     21  C   UNL     1       1.610   3.323  21.654  0.00  0.00    +0.000 C 
BRANCH  21  22
ATOM     22  C   UNL     1       1.459   2.681  20.275  0.00  0.00    +0.000 C 
BRANCH  22  23
ATOM     23  C   UNL     1       2.750   2.159  19.755  0.00  0.00    +0.000 A 
ATOM     24  C   UNL     1       4.008   2.254  20.311  0.00  0.00    +0.000 A 
ATOM     25  N   UNL     1       4.834   1.595  19.443  0.00  0.00    +0.000 N 
ATOM     26  C   UNL     1       4.066   1.137  18.414  0.00  0.00    +0.000 A 
ATOM     27  N   UNL     1       2.804   1.466  18.569  0.00  0.00    +0.000 NA
ATOM     28  H   UNL     1       5.830   1.466  19.545  0.00  0.00    +0.000 HD
ENDBRANCH  22  23
ENDBRANCH  21  22
ENDBRANCH  20  21
ENDBRANCH  19  20
ENDBRANCH   1  19
TORSDOF 7
ENDMDL
MODEL 9
REMARK VINA RESULT:      -7.9      4.849      7.704
REMARK  Name = 
REMARK  7 active torsions:
REMARK  status: ('A' for Active; 'I' for Inactive)
REMARK    1  A    between atoms: C_5  and  C_6
REMARK    2  A    between atoms: C_6  and  O_7
REMARK    3  A    between atoms: C_6  and  C_16
REMARK    4  A    between atoms: O_7  and  C_8
REMARK    5  A    between atoms: C_8  and  C_9
REMARK    6  A    between atoms: C_9  and  C_10
REMARK    7  A    between atoms: C_10  and  C_11
REMARK                            x       y       z     vdW  Elec       q    Type
REMARK                         _______ _______ _______ _____ _____    ______ ____
ROOT
ATOM      1  C   UNL     1       2.099   6.355  19.261  0.00  0.00    +0.000 C 
ENDROOT
BRANCH   1   2
ATOM      2  C   UNL     1       1.866   7.856  19.172  0.00  0.00    +0.000 A 
ATOM      3  C   UNL     1       2.159   8.540  17.984  0.00  0.00    +0.000 A 
ATOM      4  C   UNL     1       1.906   9.908  17.872  0.00  0.00    +0.000 A 
ATOM      5  C   UNL     1       1.364  10.628  18.946  0.00  0.00    +0.000 A 
ATOM      6  C   UNL     1       1.129  12.009  18.854  0.00  0.00    +0.000 A 
ATOM      7  C   UNL     1       0.590  12.713  19.931  0.00  0.00    +0.000 A 
ATOM      8  C   UNL     1       0.265  12.043  21.108  0.00  0.00    +0.000 A 
ATOM      9  C   UNL     1       0.488  10.669  21.213  0.00  0.00    +0.000 A 
ATOM     10  C   UNL     1       1.047   9.950  20.143  0.00  0.00    +0.000 A 
ATOM     11  C   UNL     1       1.298   8.571  20.240  0.00  0.00    +0.000 A 
ENDBRANCH   1   2
BRANCH   1  16
ATOM     12 BR   UNL     1       7.620   4.620  16.953  0.00  0.00    +0.000 Br
ATOM     13  C   UNL     1       5.955   5.166  17.662  0.00  0.00    +0.000 A 
ATOM     14  C   UNL     1       4.956   5.625  16.810  0.00  0.00    +0.000 A 
ATOM     15  C   UNL     1       3.715   6.013  17.334  0.00  0.00    +0.000 A 
ATOM     16  C   UNL     1       3.462   5.934  18.714  0.00  0.00    +0.000 A 
ATOM     17  C   UNL     1       4.493   5.483  19.558  0.00  0.00    +0.000 A 
ATOM     18  C   UNL     1       5.734   5.102  19.036  0.00  0.00    +0.000 A 
ENDBRANCH   1  16
BRANCH   1  19
ATOM     19  O   UNL     1       1.960   5.895  20.615  0.00  0.00    +0.000 OA
BRANCH  19  20
ATOM     20  C   UNL     1       1.054   4.798  20.753  0.00  0.00    +0.000 C 
BRANCH  20  21
ATOM     21  C   UNL     1       1.810   3.583  21.271  0.00  0.00    +0.000 C 
BRANCH  21  22
ATOM     22  C   UNL     1       1.530   2.343  20.420  0.00  0.00    +0.000 C 
BRANCH  22  23
ATOM     23  C   UNL     1       2.362   2.309  19.190  0.00  0.00    +0.000 A 
ATOM     24  C   UNL     1       3.688   1.958  19.052  0.00  0.00    +0.000 A 
ATOM     25  N   UNL     1       3.955   2.080  17.717  0.00  0.00    +0.000 N 
ATOM     26  C   UNL     1       2.808   2.495  17.106  0.00  0.00    +0.000 A 
ATOM     27  N   UNL     1       1.830   2.648  17.969  0.00  0.00    +0.000 NA
ATOM     28  H   UNL     1       4.836   1.895  17.262  0.00  0.00    +0.000 HD
ENDBRANCH  22  23
ENDBRANCH  21  22
ENDBRANCH  20  21
ENDBRANCH  19  20
ENDBRANCH   1  19
TORSDOF 7
ENDMDL
