MODEL 1
REMARK VINA RESULT:      -7.4      0.000      0.000
REMARK  Name = 
REMARK  11 active torsions:
REMARK  status: ('A' for Active; 'I' for Inactive)
REMARK    1  A    between atoms: C_1  and  C_2
REMARK    2  A    between atoms: C_5  and  O_6
REMARK    3  A    between atoms: O_6  and  P_7
REMARK    4  A    between atoms: P_7  and  N_9
REMARK    5  A    between atoms: P_7  and  O_24
REMARK    6  A    between atoms: N_9  and  C_10
REMARK    7  A    between atoms: C_11  and  C_12
REMARK    8  A    between atoms: N_13  and  C_14
REMARK    9  A    between atoms: N_15  and  C_16
REMARK   10  A    between atoms: O_24  and  C_25
REMARK   11  A    between atoms: C_28  and  C_29
REMARK                            x       y       z     vdW  Elec       q    Type
REMARK                         _______ _______ _______ _____ _____    ______ ____
ROOT
ATOM      1  P   UNL     1       0.982  11.397  19.180  0.00  0.00    +0.000 P 
ATOM      2  O   UNL     1       2.158  11.924  18.400  0.00  0.00    +0.000 OA
ENDROOT
BRANCH   1   3
ATOM      3  N   UNL     1       0.435   9.863  18.898  0.00  0.00    +0.000 N 
ATOM      4  H   UNL     1       0.121   9.770  17.932  0.00  0.00    +0.000 HD
BRANCH   3   5
ATOM      5  C   UNL     1       1.256   8.795  19.176  0.00  0.00    +0.000 A 
ATOM      6  C   UNL     1       1.466   7.978  20.213  0.00  0.00    +0.000 A 
ATOM      7  C   UNL     1       0.640   7.975  21.464  0.00  0.00    +0.000 C 
ATOM      8  N   UNL     1       2.471   7.017  19.973  0.00  0.00    +0.000 N 
ATOM      9  C   UNL     1       2.516   5.801  20.772  0.00  0.00    +0.000 C 
ATOM     10  N   UNL     1       2.769   7.087  18.563  0.00  0.00    +0.000 N 
ATOM     11  C   UNL     1       2.110   8.232  18.075  0.00  0.00    +0.000 A 
ATOM     12  O   UNL     1       2.118   8.802  16.992  0.00  0.00    +0.000 OA
BRANCH  10  13
ATOM     13  C   UNL     1       3.725   6.328  17.794  0.00  0.00    +0.000 A 
ATOM     14  C   UNL     1       4.920   6.947  17.352  0.00  0.00    +0.000 A 
ATOM     15  C   UNL     1       5.910   6.285  16.623  0.00  0.00    +0.000 A 
ATOM     16  C   UNL     1       5.741   4.951  16.272  0.00  0.00    +0.000 A 
ATOM     17  C   UNL     1       4.572   4.312  16.661  0.00  0.00    +0.000 A 
ATOM     18  C   UNL     1       3.586   4.990  17.409  0.00  0.00    +0.000 A 
ENDBRANCH  10  13
ENDBRANCH   3   5
ENDBRANCH   1   3
BRANCH   1  19
ATOM     19  O   UNL     1       1.264  11.420  20.786  0.00  0.00    +0.000 OA
BRANCH  19  24
ATOM     20  C   UNL     1      -3.213  13.371  23.551  0.00  0.00    +0.000 C 
ATOM     21  C   UNL     1      -1.870  12.889  23.088  0.00  0.00    +0.000 A 
ATOM     22  C   UNL     1      -0.945  13.790  22.550  0.00  0.00    +0.000 A 
ATOM     23  C   UNL     1       0.167  13.323  21.847  0.00  0.00    +0.000 A 
ATOM     24  C   UNL     1       0.353  11.952  21.669  0.00  0.00    +0.000 A 
ATOM     25  C   UNL     1      -0.471  11.052  22.340  0.00  0.00    +0.000 A 
ATOM     26  C   UNL     1      -1.589  11.519  23.037  0.00  0.00    +0.000 A 
ENDBRANCH  19  24
ENDBRANCH   1  19
BRANCH   1  27
ATOM     27  O   UNL     1      -0.304  12.364  19.030  0.00  0.00    +0.000 OA
BRANCH  27  28
ATOM     28  C   UNL     1      -1.565  12.017  18.629  0.00  0.00    +0.000 A 
ATOM     29  C   UNL     1      -1.903  11.498  17.383  0.00  0.00    +0.000 A 
ATOM     30  C   UNL     1      -3.254  11.335  17.040  0.00  0.00    +0.000 A 
ATOM     31  C   UNL     1      -4.271  11.683  17.938  0.00  0.00    +0.000 A 
ATOM     32  C   UNL     1      -5.715  11.679  17.528  0.00  0.00    +0.000 C 
ATOM     33  C   UNL     1      -3.917  12.102  19.224  0.00  0.00    +0.000 A 
ATOM     34  C   UNL     1      -2.573  12.265  19.564  0.00  0.00    +0.000 A 
ENDBRANCH  27  28
ENDBRANCH   1  27
TORSDOF 7
ENDMDL
MODEL 2
REMARK VINA RESULT:      -7.2      2.949      9.067
REMARK  Name = 
REMARK  11 active torsions:
REMARK  status: ('A' for Active; 'I' for Inactive)
REMARK    1  A    between atoms: C_1  and  C_2
REMARK    2  A    between atoms: C_5  and  O_6
REMARK    3  A    between atoms: O_6  and  P_7
REMARK    4  A    between atoms: P_7  and  N_9
REMARK    5  A    between atoms: P_7  and  O_24
REMARK    6  A    between atoms: N_9  and  C_10
REMARK    7  A    between atoms: C_11  and  C_12
REMARK    8  A    between atoms: N_13  and  C_14
REMARK    9  A    between atoms: N_15  and  C_16
REMARK   10  A    between atoms: O_24  and  C_25
REMARK   11  A    between atoms: C_28  and  C_29
REMARK                            x       y       z     vdW  Elec       q    Type
REMARK                         _______ _______ _______ _____ _____    ______ ____
ROOT
ATOM      1  P   UNL     1      -0.263  12.209  19.768  0.00  0.00    +0.000 P 
ATOM      2  O   UNL     1      -0.194  12.926  18.446  0.00  0.00    +0.000 OA
ENDROOT
BRANCH   1   3
ATOM      3  N   UNL     1      -0.557  13.069  21.149  0.00  0.00    +0.000 N 
ATOM      4  H   UNL     1       0.215  13.705  21.344  0.00  0.00    +0.000 HD
BRANCH   3   5
ATOM      5  C   UNL     1      -1.727  13.786  21.258  0.00  0.00    +0.000 A 
ATOM      6  C   UNL     1      -2.183  14.967  20.829  0.00  0.00    +0.000 A 
ATOM      7  C   UNL     1      -1.438  15.867  19.890  0.00  0.00    +0.000 C 
ATOM      8  N   UNL     1      -3.503  15.242  21.246  0.00  0.00    +0.000 N 
ATOM      9  C   UNL     1      -4.301  16.221  20.525  0.00  0.00    +0.000 C 
ATOM     10  N   UNL     1      -4.015  14.013  21.803  0.00  0.00    +0.000 N 
ATOM     11  C   UNL     1      -2.915  13.138  21.911  0.00  0.00    +0.000 A 
ATOM     12  O   UNL     1      -2.776  12.029  22.409  0.00  0.00    +0.000 OA
BRANCH  10  13
ATOM     13  C   UNL     1      -5.308  13.742  22.380  0.00  0.00    +0.000 A 
ATOM     14  C   UNL     1      -6.194  12.848  21.729  0.00  0.00    +0.000 A 
ATOM     15  C   UNL     1      -7.454  12.510  22.227  0.00  0.00    +0.000 A 
ATOM     16  C   UNL     1      -7.911  13.078  23.410  0.00  0.00    +0.000 A 
ATOM     17  C   UNL     1      -7.087  13.980  24.068  0.00  0.00    +0.000 A 
ATOM     18  C   UNL     1      -5.810  14.302  23.561  0.00  0.00    +0.000 A 
ENDBRANCH  10  13
ENDBRANCH   3   5
ENDBRANCH   1   3
BRANCH   1  19
ATOM     19  O   UNL     1      -1.418  11.059  19.772  0.00  0.00    +0.000 OA
BRANCH  19  24
ATOM     20  C   UNL     1      -3.706  10.590  14.669  0.00  0.00    +0.000 C 
ATOM     21  C   UNL     1      -3.321  10.513  16.117  0.00  0.00    +0.000 A 
ATOM     22  C   UNL     1      -3.873  11.406  17.041  0.00  0.00    +0.000 A 
ATOM     23  C   UNL     1      -3.309  11.546  18.310  0.00  0.00    +0.000 A 
ATOM     24  C   UNL     1      -2.181  10.802  18.657  0.00  0.00    +0.000 A 
ATOM     25  C   UNL     1      -1.730   9.796  17.805  0.00  0.00    +0.000 A 
ATOM     26  C   UNL     1      -2.290   9.662  16.531  0.00  0.00    +0.000 A 
ENDBRANCH  19  24
ENDBRANCH   1  19
BRANCH   1  27
ATOM     27  O   UNL     1       1.084  11.363  20.049  0.00  0.00    +0.000 OA
BRANCH  27  28
ATOM     28  C   UNL     1       1.369  10.089  19.637  0.00  0.00    +0.000 A 
ATOM     29  C   UNL     1       1.370   8.958  20.446  0.00  0.00    +0.000 A 
ATOM     30  C   UNL     1       1.837   7.737  19.936  0.00  0.00    +0.000 A 
ATOM     31  C   UNL     1       2.298   7.638  18.617  0.00  0.00    +0.000 A 
ATOM     32  C   UNL     1       2.959   6.390  18.109  0.00  0.00    +0.000 C 
ATOM     33  C   UNL     1       2.191   8.755  17.783  0.00  0.00    +0.000 A 
ATOM     34  C   UNL     1       1.729   9.970  18.292  0.00  0.00    +0.000 A 
ENDBRANCH  27  28
ENDBRANCH   1  27
TORSDOF 7
ENDMDL
MODEL 3
REMARK VINA RESULT:      -7.2      2.105      7.860
REMARK  Name = 
REMARK  11 active torsions:
REMARK  status: ('A' for Active; 'I' for Inactive)
REMARK    1  A    between atoms: C_1  and  C_2
REMARK    2  A    between atoms: C_5  and  O_6
REMARK    3  A    between atoms: O_6  and  P_7
REMARK    4  A    between atoms: P_7  and  N_9
REMARK    5  A    between atoms: P_7  and  O_24
REMARK    6  A    between atoms: N_9  and  C_10
REMARK    7  A    between atoms: C_11  and  C_12
REMARK    8  A    between atoms: N_13  and  C_14
REMARK    9  A    between atoms: N_15  and  C_16
REMARK   10  A    between atoms: O_24  and  C_25
REMARK   11  A    between atoms: C_28  and  C_29
REMARK                            x       y       z     vdW  Elec       q    Type
REMARK                         _______ _______ _______ _____ _____    ______ ____
ROOT
ATOM      1  P   UNL     1       0.703   9.772  19.729  0.00  0.00    +0.000 P 
ATOM      2  O   UNL     1      -0.292   8.881  20.423  0.00  0.00    +0.000 OA
ENDROOT
BRANCH   1   3
ATOM      3  N   UNL     1       1.498  10.937  20.590  0.00  0.00    +0.000 N 
ATOM      4  H   UNL     1       2.385  11.167  20.143  0.00  0.00    +0.000 HD
BRANCH   3   5
ATOM      5  C   UNL     1       0.853  12.120  20.873  0.00  0.00    +0.000 A 
ATOM      6  C   UNL     1       0.718  13.315  20.289  0.00  0.00    +0.000 A 
ATOM      7  C   UNL     1       1.233  13.645  18.920  0.00  0.00    +0.000 C 
ATOM      8  N   UNL     1      -0.072  14.216  21.034  0.00  0.00    +0.000 N 
ATOM      9  C   UNL     1      -0.690  15.354  20.372  0.00  0.00    +0.000 C 
ATOM     10  N   UNL     1      -0.687  13.441  22.084  0.00  0.00    +0.000 N 
ATOM     11  C   UNL     1      -0.060  12.179  22.065  0.00  0.00    +0.000 A 
ATOM     12  O   UNL     1      -0.127  11.203  22.800  0.00  0.00    +0.000 OA
BRANCH  10  13
ATOM     13  C   UNL     1      -1.582  13.870  23.130  0.00  0.00    +0.000 A 
ATOM     14  C   UNL     1      -1.163  14.863  24.049  0.00  0.00    +0.000 A 
ATOM     15  C   UNL     1      -1.969  15.355  25.077  0.00  0.00    +0.000 A 
ATOM     16  C   UNL     1      -3.253  14.852  25.256  0.00  0.00    +0.000 A 
ATOM     17  C   UNL     1      -3.696  13.859  24.395  0.00  0.00    +0.000 A 
ATOM     18  C   UNL     1      -2.875  13.381  23.351  0.00  0.00    +0.000 A 
ENDBRANCH  10  13
ENDBRANCH   3   5
ENDBRANCH   1   3
BRANCH   1  19
ATOM     19  O   UNL     1       1.904   8.912  19.038  0.00  0.00    +0.000 OA
BRANCH  19  24
ATOM     20  C   UNL     1       1.475   3.345  19.606  0.00  0.00    +0.000 C 
ATOM     21  C   UNL     1       1.890   4.785  19.536  0.00  0.00    +0.000 A 
ATOM     22  C   UNL     1       1.789   5.604  20.665  0.00  0.00    +0.000 A 
ATOM     23  C   UNL     1       1.880   6.991  20.541  0.00  0.00    +0.000 A 
ATOM     24  C   UNL     1       2.059   7.568  19.283  0.00  0.00    +0.000 A 
ATOM     25  C   UNL     1       2.324   6.754  18.184  0.00  0.00    +0.000 A 
ATOM     26  C   UNL     1       2.225   5.365  18.307  0.00  0.00    +0.000 A 
ENDBRANCH  19  24
ENDBRANCH   1  19
BRANCH   1  27
ATOM     27  O   UNL     1       0.035  10.528  18.466  0.00  0.00    +0.000 OA
BRANCH  27  28
ATOM     28  C   UNL     1      -1.293  10.597  18.144  0.00  0.00    +0.000 A 
ATOM     29  C   UNL     1      -1.906   9.926  17.091  0.00  0.00    +0.000 A 
ATOM     30  C   UNL     1      -3.243  10.207  16.769  0.00  0.00    +0.000 A 
ATOM     31  C   UNL     1      -3.973  11.154  17.498  0.00  0.00    +0.000 A 
ATOM     32  C   UNL     1      -5.341  11.593  17.063  0.00  0.00    +0.000 C 
ATOM     33  C   UNL     1      -3.380  11.742  18.619  0.00  0.00    +0.000 A 
ATOM     34  C   UNL     1      -2.050  11.463  18.938  0.00  0.00    +0.000 A 
ENDBRANCH  27  28
ENDBRANCH   1  27
TORSDOF 7
ENDMDL
MODEL 4
REMARK VINA RESULT:      -7.1      2.124      3.766
REMARK  Name = 
REMARK  11 active torsions:
REMARK  status: ('A' for Active; 'I' for Inactive)
REMARK    1  A    between atoms: C_1  and  C_2
REMARK    2  A    between atoms: C_5  and  O_6
REMARK    3  A    between atoms: O_6  and  P_7
REMARK    4  A    between atoms: P_7  and  N_9
REMARK    5  A    between atoms: P_7  and  O_24
REMARK    6  A    between atoms: N_9  and  C_10
REMARK    7  A    between atoms: C_11  and  C_12
REMARK    8  A    between atoms: N_13  and  C_14
REMARK    9  A    between atoms: N_15  and  C_16
REMARK   10  A    between atoms: O_24  and  C_25
REMARK   11  A    between atoms: C_28  and  C_29
REMARK                            x       y       z     vdW  Elec       q    Type
REMARK                         _______ _______ _______ _____ _____    ______ ____
ROOT
ATOM      1  P   UNL     1      -0.662  10.984  18.691  0.00  0.00    +0.000 P 
ATOM      2  O   UNL     1      -1.161  10.010  17.656  0.00  0.00    +0.000 OA
ENDROOT
BRANCH   1   3
ATOM      3  N   UNL     1       0.833  10.768  19.363  0.00  0.00    +0.000 N 
ATOM      4  H   UNL     1       0.901  11.270  20.248  0.00  0.00    +0.000 HD
BRANCH   3   5
ATOM      5  C   UNL     1       1.296   9.489  19.572  0.00  0.00    +0.000 A 
ATOM      6  C   UNL     1       1.187   8.562  20.529  0.00  0.00    +0.000 A 
ATOM      7  C   UNL     1       0.300   8.692  21.730  0.00  0.00    +0.000 C 
ATOM      8  N   UNL     1       1.898   7.377  20.243  0.00  0.00    +0.000 N 
ATOM      9  C   UNL     1       1.537   6.137  20.914  0.00  0.00    +0.000 C 
ATOM     10  N   UNL     1       2.311   7.476  18.864  0.00  0.00    +0.000 N 
ATOM     11  C   UNL     1       2.041   8.799  18.463  0.00  0.00    +0.000 A 
ATOM     12  O   UNL     1       2.292   9.431  17.446  0.00  0.00    +0.000 OA
BRANCH  10  13
ATOM     13  C   UNL     1       3.072   6.542  18.071  0.00  0.00    +0.000 A 
ATOM     14  C   UNL     1       4.242   6.980  17.401  0.00  0.00    +0.000 A 
ATOM     15  C   UNL     1       5.050   6.142  16.631  0.00  0.00    +0.000 A 
ATOM     16  C   UNL     1       4.711   4.803  16.469  0.00  0.00    +0.000 A 
ATOM     17  C   UNL     1       3.558   4.338  17.085  0.00  0.00    +0.000 A 
ATOM     18  C   UNL     1       2.758   5.193  17.872  0.00  0.00    +0.000 A 
ENDBRANCH  10  13
ENDBRANCH   3   5
ENDBRANCH   1   3
BRANCH   1  19
ATOM     19  O   UNL     1      -0.611  12.508  18.112  0.00  0.00    +0.000 OA
BRANCH  19  24
ATOM     20  C   UNL     1       3.143  16.650  18.598  0.00  0.00    +0.000 C 
ATOM     21  C   UNL     1       2.258  15.447  18.744  0.00  0.00    +0.000 A 
ATOM     22  C   UNL     1       2.658  14.212  18.225  0.00  0.00    +0.000 A 
ATOM     23  C   UNL     1       1.735  13.175  18.084  0.00  0.00    +0.000 A 
ATOM     24  C   UNL     1       0.403  13.372  18.450  0.00  0.00    +0.000 A 
ATOM     25  C   UNL     1       0.038  14.539  19.117  0.00  0.00    +0.000 A 
ATOM     26  C   UNL     1       0.961  15.581  19.251  0.00  0.00    +0.000 A 
ENDBRANCH  19  24
ENDBRANCH   1  19
BRANCH   1  27
ATOM     27  O   UNL     1      -1.693  11.107  19.929  0.00  0.00    +0.000 OA
BRANCH  27  28
ATOM     28  C   UNL     1      -1.711  12.065  20.907  0.00  0.00    +0.000 A 
ATOM     29  C   UNL     1      -0.757  12.217  21.907  0.00  0.00    +0.000 A 
ATOM     30  C   UNL     1      -0.976  13.137  22.945  0.00  0.00    +0.000 A 
ATOM     31  C   UNL     1      -2.142  13.911  22.984  0.00  0.00    +0.000 A 
ATOM     32  C   UNL     1      -2.474  14.770  24.170  0.00  0.00    +0.000 C 
ATOM     33  C   UNL     1      -3.042  13.826  21.916  0.00  0.00    +0.000 A 
ATOM     34  C   UNL     1      -2.824  12.910  20.886  0.00  0.00    +0.000 A 
ENDBRANCH  27  28
ENDBRANCH   1  27
TORSDOF 7
ENDMDL
MODEL 5
REMARK VINA RESULT:      -7.1      6.398      7.691
REMARK  Name = 
REMARK  11 active torsions:
REMARK  status: ('A' for Active; 'I' for Inactive)
REMARK    1  A    between atoms: C_1  and  C_2
REMARK    2  A    between atoms: C_5  and  O_6
REMARK    3  A    between atoms: O_6  and  P_7
REMARK    4  A    between atoms: P_7  and  N_9
REMARK    5  A    between atoms: P_7  and  O_24
REMARK    6  A    between atoms: N_9  and  C_10
REMARK    7  A    between atoms: C_11  and  C_12
REMARK    8  A    between atoms: N_13  and  C_14
REMARK    9  A    between atoms: N_15  and  C_16
REMARK   10  A    between atoms: O_24  and  C_25
REMARK   11  A    between atoms: C_28  and  C_29
REMARK                            x       y       z     vdW  Elec       q    Type
REMARK                         _______ _______ _______ _____ _____    ______ ____
ROOT
ATOM      1  P   UNL     1       3.951  15.102  18.428  0.00  0.00    +0.000 P 
ATOM      2  O   UNL     1       4.044  14.630  19.856  0.00  0.00    +0.000 OA
ENDROOT
BRANCH   1   3
ATOM      3  N   UNL     1       5.280  15.010  17.450  0.00  0.00    +0.000 N 
ATOM      4  H   UNL     1       5.214  15.691  16.695  0.00  0.00    +0.000 HD
BRANCH   3   5
ATOM      5  C   UNL     1       6.533  15.124  18.006  0.00  0.00    +0.000 A 
ATOM      6  C   UNL     1       7.187  16.025  18.747  0.00  0.00    +0.000 A 
ATOM      7  C   UNL     1       6.559  17.259  19.320  0.00  0.00    +0.000 C 
ATOM      8  N   UNL     1       8.511  15.643  19.052  0.00  0.00    +0.000 N 
ATOM      9  C   UNL     1       9.196  16.248  20.184  0.00  0.00    +0.000 C 
ATOM     10  N   UNL     1       8.634  14.261  18.658  0.00  0.00    +0.000 N 
ATOM     11  C   UNL     1       7.471  13.951  17.927  0.00  0.00    +0.000 A 
ATOM     12  O   UNL     1       7.123  12.968  17.287  0.00  0.00    +0.000 OA
BRANCH  10  13
ATOM     13  C   UNL     1       9.779  13.387  18.742  0.00  0.00    +0.000 A 
ATOM     14  C   UNL     1      10.144  12.827  19.991  0.00  0.00    +0.000 A 
ATOM     15  C   UNL     1      11.221  11.955  20.162  0.00  0.00    +0.000 A 
ATOM     16  C   UNL     1      12.017  11.610  19.075  0.00  0.00    +0.000 A 
ATOM     17  C   UNL     1      11.711  12.156  17.837  0.00  0.00    +0.000 A 
ATOM     18  C   UNL     1      10.611  13.026  17.676  0.00  0.00    +0.000 A 
ENDBRANCH  10  13
ENDBRANCH   3   5
ENDBRANCH   1   3
BRANCH   1  19
ATOM     19  O   UNL     1       2.801  14.296  17.600  0.00  0.00    +0.000 OA
BRANCH  19  24
ATOM     20  C   UNL     1      -0.892  10.328  19.051  0.00  0.00    +0.000 C 
ATOM     21  C   UNL     1       0.162  11.392  18.971  0.00  0.00    +0.000 A 
ATOM     22  C   UNL     1      -0.186  12.740  19.104  0.00  0.00    +0.000 A 
ATOM     23  C   UNL     1       0.715  13.740  18.735  0.00  0.00    +0.000 A 
ATOM     24  C   UNL     1       1.965  13.397  18.219  0.00  0.00    +0.000 A 
ATOM     25  C   UNL     1       2.377  12.067  18.239  0.00  0.00    +0.000 A 
ATOM     26  C   UNL     1       1.472  11.064  18.601  0.00  0.00    +0.000 A 
ENDBRANCH  19  24
ENDBRANCH   1  19
BRANCH   1  27
ATOM     27  O   UNL     1       3.443  16.634  18.346  0.00  0.00    +0.000 OA
BRANCH  27  28
ATOM     28  C   UNL     1       2.176  17.104  18.563  0.00  0.00    +0.000 A 
ATOM     29  C   UNL     1       1.496  17.067  19.776  0.00  0.00    +0.000 A 
ATOM     30  C   UNL     1       0.143  17.435  19.827  0.00  0.00    +0.000 A 
ATOM     31  C   UNL     1      -0.535  17.845  18.672  0.00  0.00    +0.000 A 
ATOM     32  C   UNL     1      -2.018  18.075  18.673  0.00  0.00    +0.000 C 
ATOM     33  C   UNL     1       0.187  17.980  17.482  0.00  0.00    +0.000 A 
ATOM     34  C   UNL     1       1.533  17.613  17.432  0.00  0.00    +0.000 A 
ENDBRANCH  27  28
ENDBRANCH   1  27
TORSDOF 7
ENDMDL
MODEL 6
REMARK VINA RESULT:      -7.0      2.101      7.949
REMARK  Name = 
REMARK  11 active torsions:
REMARK  status: ('A' for Active; 'I' for Inactive)
REMARK    1  A    between atoms: C_1  and  C_2
REMARK    2  A    between atoms: C_5  and  O_6
REMARK    3  A    between atoms: O_6  and  P_7
REMARK    4  A    between atoms: P_7  and  N_9
REMARK    5  A    between atoms: P_7  and  O_24
REMARK    6  A    between atoms: N_9  and  C_10
REMARK    7  A    between atoms: C_11  and  C_12
REMARK    8  A    between atoms: N_13  and  C_14
REMARK    9  A    between atoms: N_15  and  C_16
REMARK   10  A    between atoms: O_24  and  C_25
REMARK   11  A    between atoms: C_28  and  C_29
REMARK                            x       y       z     vdW  Elec       q    Type
REMARK                         _______ _______ _______ _____ _____    ______ ____
ROOT
ATOM      1  P   UNL     1       0.672   9.858  19.734  0.00  0.00    +0.000 P 
ATOM      2  O   UNL     1      -0.302   8.956  20.444  0.00  0.00    +0.000 OA
ENDROOT
BRANCH   1   3
ATOM      3  N   UNL     1       1.470  11.029  20.584  0.00  0.00    +0.000 N 
ATOM      4  H   UNL     1       2.369  11.234  20.149  0.00  0.00    +0.000 HD
BRANCH   3   5
ATOM      5  C   UNL     1       0.841  12.228  20.829  0.00  0.00    +0.000 A 
ATOM      6  C   UNL     1       0.751  13.417  20.225  0.00  0.00    +0.000 A 
ATOM      7  C   UNL     1       1.318  13.718  18.870  0.00  0.00    +0.000 C 
ATOM      8  N   UNL     1      -0.045  14.344  20.930  0.00  0.00    +0.000 N 
ATOM      9  C   UNL     1      -0.617  15.486  20.233  0.00  0.00    +0.000 C 
ATOM     10  N   UNL     1      -0.711  13.597  21.969  0.00  0.00    +0.000 N 
ATOM     11  C   UNL     1      -0.110  12.323  21.989  0.00  0.00    +0.000 A 
ATOM     12  O   UNL     1      -0.222  11.358  22.734  0.00  0.00    +0.000 OA
BRANCH  10  13
ATOM     13  C   UNL     1      -1.632  14.059  22.978  0.00  0.00    +0.000 A 
ATOM     14  C   UNL     1      -3.020  13.814  22.828  0.00  0.00    +0.000 A 
ATOM     15  C   UNL     1      -3.979  14.205  23.764  0.00  0.00    +0.000 A 
ATOM     16  C   UNL     1      -3.596  14.894  24.908  0.00  0.00    +0.000 A 
ATOM     17  C   UNL     1      -2.249  15.179  25.084  0.00  0.00    +0.000 A 
ATOM     18  C   UNL     1      -1.288  14.767  24.136  0.00  0.00    +0.000 A 
ENDBRANCH  10  13
ENDBRANCH   3   5
ENDBRANCH   1   3
BRANCH   1  19
ATOM     19  O   UNL     1       1.868   9.012  19.019  0.00  0.00    +0.000 OA
BRANCH  19  24
ATOM     20  C   UNL     1       1.541   3.438  19.583  0.00  0.00    +0.000 C 
ATOM     21  C   UNL     1       1.929   4.885  19.517  0.00  0.00    +0.000 A 
ATOM     22  C   UNL     1       1.802   5.701  20.645  0.00  0.00    +0.000 A 
ATOM     23  C   UNL     1       1.867   7.090  20.522  0.00  0.00    +0.000 A 
ATOM     24  C   UNL     1       2.047   7.671  19.265  0.00  0.00    +0.000 A 
ATOM     25  C   UNL     1       2.337   6.863  18.169  0.00  0.00    +0.000 A 
ATOM     26  C   UNL     1       2.264   5.472  18.291  0.00  0.00    +0.000 A 
ENDBRANCH  19  24
ENDBRANCH   1  19
BRANCH   1  27
ATOM     27  O   UNL     1      -0.027  10.611  18.486  0.00  0.00    +0.000 OA
BRANCH  27  28
ATOM     28  C   UNL     1      -1.361  10.855  18.301  0.00  0.00    +0.000 A 
ATOM     29  C   UNL     1      -2.103  11.832  18.954  0.00  0.00    +0.000 A 
ATOM     30  C   UNL     1      -3.497  11.873  18.793  0.00  0.00    +0.000 A 
ATOM     31  C   UNL     1      -4.153  10.943  17.976  0.00  0.00    +0.000 A 
ATOM     32  C   UNL     1      -5.651  10.862  17.928  0.00  0.00    +0.000 C 
ATOM     33  C   UNL     1      -3.385  10.035  17.242  0.00  0.00    +0.000 A 
ATOM     34  C   UNL     1      -1.999   9.994  17.404  0.00  0.00    +0.000 A 
ENDBRANCH  27  28
ENDBRANCH   1  27
TORSDOF 7
ENDMDL
MODEL 7
REMARK VINA RESULT:      -7.0      0.585      1.058
REMARK  Name = 
REMARK  11 active torsions:
REMARK  status: ('A' for Active; 'I' for Inactive)
REMARK    1  A    between atoms: C_1  and  C_2
REMARK    2  A    between atoms: C_5  and  O_6
REMARK    3  A    between atoms: O_6  and  P_7
REMARK    4  A    between atoms: P_7  and  N_9
REMARK    5  A    between atoms: P_7  and  O_24
REMARK    6  A    between atoms: N_9  and  C_10
REMARK    7  A    between atoms: C_11  and  C_12
REMARK    8  A    between atoms: N_13  and  C_14
REMARK    9  A    between atoms: N_15  and  C_16
REMARK   10  A    between atoms: O_24  and  C_25
REMARK   11  A    between atoms: C_28  and  C_29
REMARK                            x       y       z     vdW  Elec       q    Type
REMARK                         _______ _______ _______ _____ _____    ______ ____
ROOT
ATOM      1  P   UNL     1       0.804  11.483  19.271  0.00  0.00    +0.000 P 
ATOM      2  O   UNL     1       2.069  11.982  18.626  0.00  0.00    +0.000 OA
ENDROOT
BRANCH   1   3
ATOM      3  N   UNL     1       0.282   9.944  18.964  0.00  0.00    +0.000 N 
ATOM      4  H   UNL     1      -0.014   9.856  17.993  0.00  0.00    +0.000 HD
BRANCH   3   5
ATOM      5  C   UNL     1       1.113   8.885  19.246  0.00  0.00    +0.000 A 
ATOM      6  C   UNL     1       1.338   8.079  20.289  0.00  0.00    +0.000 A 
ATOM      7  C   UNL     1       0.523   8.083  21.547  0.00  0.00    +0.000 C 
ATOM      8  N   UNL     1       2.348   7.123  20.049  0.00  0.00    +0.000 N 
ATOM      9  C   UNL     1       2.408   5.915  20.859  0.00  0.00    +0.000 C 
ATOM     10  N   UNL     1       2.632   7.181  18.636  0.00  0.00    +0.000 N 
ATOM     11  C   UNL     1       1.961   8.317  18.142  0.00  0.00    +0.000 A 
ATOM     12  O   UNL     1       1.956   8.876  17.054  0.00  0.00    +0.000 OA
BRANCH  10  13
ATOM     13  C   UNL     1       3.586   6.421  17.865  0.00  0.00    +0.000 A 
ATOM     14  C   UNL     1       4.735   7.064  17.340  0.00  0.00    +0.000 A 
ATOM     15  C   UNL     1       5.720   6.404  16.604  0.00  0.00    +0.000 A 
ATOM     16  C   UNL     1       5.594   5.047  16.329  0.00  0.00    +0.000 A 
ATOM     17  C   UNL     1       4.471   4.383  16.802  0.00  0.00    +0.000 A 
ATOM     18  C   UNL     1       3.489   5.060  17.557  0.00  0.00    +0.000 A 
ENDBRANCH  10  13
ENDBRANCH   3   5
ENDBRANCH   1   3
BRANCH   1  19
ATOM     19  O   UNL     1       0.890  11.547  20.898  0.00  0.00    +0.000 OA
BRANCH  19  24
ATOM     20  C   UNL     1      -1.445  15.047  24.612  0.00  0.00    +0.000 C 
ATOM     21  C   UNL     1      -1.067  14.190  23.440  0.00  0.00    +0.000 A 
ATOM     22  C   UNL     1      -1.521  12.870  23.357  0.00  0.00    +0.000 A 
ATOM     23  C   UNL     1      -0.943  11.982  22.449  0.00  0.00    +0.000 A 
ATOM     24  C   UNL     1       0.102  12.407  21.627  0.00  0.00    +0.000 A 
ATOM     25  C   UNL     1       0.443  13.757  21.589  0.00  0.00    +0.000 A 
ATOM     26  C   UNL     1      -0.130  14.645  22.504  0.00  0.00    +0.000 A 
ENDBRANCH  19  24
ENDBRANCH   1  19
BRANCH   1  27
ATOM     27  O   UNL     1      -0.447  12.451  18.942  0.00  0.00    +0.000 OA
BRANCH  27  28
ATOM     28  C   UNL     1      -1.715  12.082  18.582  0.00  0.00    +0.000 A 
ATOM     29  C   UNL     1      -2.083  11.544  17.354  0.00  0.00    +0.000 A 
ATOM     30  C   UNL     1      -3.441  11.358  17.053  0.00  0.00    +0.000 A 
ATOM     31  C   UNL     1      -4.435  11.703  17.978  0.00  0.00    +0.000 A 
ATOM     32  C   UNL     1      -5.891  11.675  17.611  0.00  0.00    +0.000 C 
ATOM     33  C   UNL     1      -4.049  12.142  19.248  0.00  0.00    +0.000 A 
ATOM     34  C   UNL     1      -2.697  12.328  19.545  0.00  0.00    +0.000 A 
ENDBRANCH  27  28
ENDBRANCH   1  27
TORSDOF 7
ENDMDL
MODEL 8
REMARK VINA RESULT:      -6.9      2.102      3.880
REMARK  Name = 
REMARK  11 active torsions:
REMARK  status: ('A' for Active; 'I' for Inactive)
REMARK    1  A    between atoms: C_1  and  C_2
REMARK    2  A    between atoms: C_5  and  O_6
REMARK    3  A    between atoms: O_6  and  P_7
REMARK    4  A    between atoms: P_7  and  N_9
REMARK    5  A    between atoms: P_7  and  O_24
REMARK    6  A    between atoms: N_9  and  C_10
REMARK    7  A    between atoms: C_11  and  C_12
REMARK    8  A    between atoms: N_13  and  C_14
REMARK    9  A    between atoms: N_15  and  C_16
REMARK   10  A    between atoms: O_24  and  C_25
REMARK   11  A    between atoms: C_28  and  C_29
REMARK                            x       y       z     vdW  Elec       q    Type
REMARK                         _______ _______ _______ _____ _____    ______ ____
ROOT
ATOM      1  P   UNL     1       0.813  11.415  20.142  0.00  0.00    +0.000 P 
ATOM      2  O   UNL     1       1.237  11.226  21.574  0.00  0.00    +0.000 OA
ENDROOT
BRANCH   1   3
ATOM      3  N   UNL     1       0.479  10.093  19.207  0.00  0.00    +0.000 N 
ATOM      4  H   UNL     1       0.539  10.332  18.218  0.00  0.00    +0.000 HD
BRANCH   3   5
ATOM      5  C   UNL     1       1.195   8.935  19.402  0.00  0.00    +0.000 A 
ATOM      6  C   UNL     1       1.294   8.005  20.357  0.00  0.00    +0.000 A 
ATOM      7  C   UNL     1       0.423   7.953  21.576  0.00  0.00    +0.000 C 
ATOM      8  N   UNL     1       2.224   6.987  20.053  0.00  0.00    +0.000 N 
ATOM      9  C   UNL     1       2.134   5.701  20.726  0.00  0.00    +0.000 C 
ATOM     10  N   UNL     1       2.581   7.168  18.667  0.00  0.00    +0.000 N 
ATOM     11  C   UNL     1       2.041   8.409  18.276  0.00  0.00    +0.000 A 
ATOM     12  O   UNL     1       2.139   9.078  17.257  0.00  0.00    +0.000 OA
BRANCH  10  13
ATOM     13  C   UNL     1       3.498   6.406  17.855  0.00  0.00    +0.000 A 
ATOM     14  C   UNL     1       3.261   5.027  17.633  0.00  0.00    +0.000 A 
ATOM     15  C   UNL     1       4.082   4.219  16.844  0.00  0.00    +0.000 A 
ATOM     16  C   UNL     1       5.216   4.754  16.244  0.00  0.00    +0.000 A 
ATOM     17  C   UNL     1       5.502   6.095  16.456  0.00  0.00    +0.000 A 
ATOM     18  C   UNL     1       4.656   6.903  17.246  0.00  0.00    +0.000 A 
ENDBRANCH  10  13
ENDBRANCH   3   5
ENDBRANCH   1   3
BRANCH   1  19
ATOM     19  O   UNL     1      -0.535  12.325  20.026  0.00  0.00    +0.000 OA
BRANCH  19  24
ATOM     20  C   UNL     1      -1.428  15.123  24.808  0.00  0.00    +0.000 C 
ATOM     21  C   UNL     1      -1.478  14.476  23.455  0.00  0.00    +0.000 A 
ATOM     22  C   UNL     1      -1.975  13.177  23.313  0.00  0.00    +0.000 A 
ATOM     23  C   UNL     1      -1.751  12.461  22.137  0.00  0.00    +0.000 A 
ATOM     24  C   UNL     1      -1.017  13.037  21.099  0.00  0.00    +0.000 A 
ATOM     25  C   UNL     1      -0.664  14.383  21.170  0.00  0.00    +0.000 A 
ATOM     26  C   UNL     1      -0.882  15.097  22.352  0.00  0.00    +0.000 A 
ENDBRANCH  19  24
ENDBRANCH   1  19
BRANCH   1  27
ATOM     27  O   UNL     1       1.899  12.281  19.316  0.00  0.00    +0.000 OA
BRANCH  27  28
ATOM     28  C   UNL     1       2.313  13.561  19.571  0.00  0.00    +0.000 A 
ATOM     29  C   UNL     1       3.005  13.977  20.703  0.00  0.00    +0.000 A 
ATOM     30  C   UNL     1       3.229  15.345  20.920  0.00  0.00    +0.000 A 
ATOM     31  C   UNL     1       2.768  16.302  20.006  0.00  0.00    +0.000 A 
ATOM     32  C   UNL     1       2.844  17.771  20.304  0.00  0.00    +0.000 C 
ATOM     33  C   UNL     1       2.168  15.865  18.821  0.00  0.00    +0.000 A 
ATOM     34  C   UNL     1       1.945  14.503  18.608  0.00  0.00    +0.000 A 
ENDBRANCH  27  28
ENDBRANCH   1  27
TORSDOF 7
ENDMDL
MODEL 9
REMARK VINA RESULT:      -6.9      1.475      4.343
REMARK  Name = 
REMARK  11 active torsions:
REMARK  status: ('A' for Active; 'I' for Inactive)
REMARK    1  A    between atoms: C_1  and  C_2
REMARK    2  A    between atoms: C_5  and  O_6
REMARK    3  A    between atoms: O_6  and  P_7
REMARK    4  A    between atoms: P_7  and  N_9
REMARK    5  A    between atoms: P_7  and  O_24
REMARK    6  A    between atoms: N_9  and  C_10
REMARK    7  A    between atoms: C_11  and  C_12
REMARK    8  A    between atoms: N_13  and  C_14
REMARK    9  A    between atoms: N_15  and  C_16
REMARK   10  A    between atoms: O_24  and  C_25
REMARK   11  A    between atoms: C_28  and  C_29
REMARK                            x       y       z     vdW  Elec       q    Type
REMARK                         _______ _______ _______ _____ _____    ______ ____
ROOT
ATOM      1  P   UNL     1      -0.672  10.615  19.572  0.00  0.00    +0.000 P 
ATOM      2  O   UNL     1      -1.575   9.437  19.820  0.00  0.00    +0.000 OA
ENDROOT
BRANCH   1   3
ATOM      3  N   UNL     1       0.946  10.370  19.336  0.00  0.00    +0.000 N 
ATOM      4  H   UNL     1       1.491  11.032  19.888  0.00  0.00    +0.000 HD
BRANCH   3   5
ATOM      5  C   UNL     1       1.473   9.117  19.547  0.00  0.00    +0.000 A 
ATOM      6  C   UNL     1       1.493   8.229  20.546  0.00  0.00    +0.000 A 
ATOM      7  C   UNL     1       0.728   8.384  21.826  0.00  0.00    +0.000 C 
ATOM      8  N   UNL     1       2.212   7.055  20.237  0.00  0.00    +0.000 N 
ATOM      9  C   UNL     1       1.965   5.835  20.991  0.00  0.00    +0.000 C 
ATOM     10  N   UNL     1       2.480   7.106  18.821  0.00  0.00    +0.000 N 
ATOM     11  C   UNL     1       2.125   8.402  18.397  0.00  0.00    +0.000 A 
ATOM     12  O   UNL     1       2.250   8.997  17.335  0.00  0.00    +0.000 OA
BRANCH  10  13
ATOM     13  C   UNL     1       3.189   6.163  17.991  0.00  0.00    +0.000 A 
ATOM     14  C   UNL     1       2.675   4.853  17.821  0.00  0.00    +0.000 A 
ATOM     15  C   UNL     1       3.281   3.883  17.020  0.00  0.00    +0.000 A 
ATOM     16  C   UNL     1       4.467   4.171  16.355  0.00  0.00    +0.000 A 
ATOM     17  C   UNL     1       5.020   5.434  16.514  0.00  0.00    +0.000 A 
ATOM     18  C   UNL     1       4.390   6.409  17.316  0.00  0.00    +0.000 A 
ENDBRANCH  10  13
ENDBRANCH   3   5
ENDBRANCH   1   3
BRANCH   1  19
ATOM     19  O   UNL     1      -1.132  11.464  18.258  0.00  0.00    +0.000 OA
BRANCH  19  24
ATOM     20  C   UNL     1      -4.300  10.003  13.862  0.00  0.00    +0.000 C 
ATOM     21  C   UNL     1      -3.635  10.190  15.194  0.00  0.00    +0.000 A 
ATOM     22  C   UNL     1      -4.093  11.171  16.078  0.00  0.00    +0.000 A 
ATOM     23  C   UNL     1      -3.313  11.557  17.169  0.00  0.00    +0.000 A 
ATOM     24  C   UNL     1      -2.063  10.971  17.374  0.00  0.00    +0.000 A 
ATOM     25  C   UNL     1      -1.677   9.883  16.596  0.00  0.00    +0.000 A 
ATOM     26  C   UNL     1      -2.455   9.502  15.498  0.00  0.00    +0.000 A 
ENDBRANCH  19  24
ENDBRANCH   1  19
BRANCH   1  27
ATOM     27  O   UNL     1      -0.788  11.706  20.759  0.00  0.00    +0.000 OA
BRANCH  27  28
ATOM     28  C   UNL     1      -1.924  12.124  21.398  0.00  0.00    +0.000 A 
ATOM     29  C   UNL     1      -2.972  12.823  20.809  0.00  0.00    +0.000 A 
ATOM     30  C   UNL     1      -4.005  13.335  21.610  0.00  0.00    +0.000 A 
ATOM     31  C   UNL     1      -3.999  13.145  22.998  0.00  0.00    +0.000 A 
ATOM     32  C   UNL     1      -4.997  13.829  23.887  0.00  0.00    +0.000 C 
ATOM     33  C   UNL     1      -2.997  12.351  23.563  0.00  0.00    +0.000 A 
ATOM     34  C   UNL     1      -1.969  11.844  22.766  0.00  0.00    +0.000 A 
ENDBRANCH  27  28
ENDBRANCH   1  27
TORSDOF 7
ENDMDL
