MODEL 1
REMARK VINA RESULT:      -7.8      0.000      0.000
REMARK  Name = 
REMARK  3 active torsions:
REMARK  status: ('A' for Active; 'I' for Inactive)
REMARK    1  A    between atoms: C_2  and  C_18
REMARK    2  A    between atoms: C_9  and  O_10
REMARK    3  A    between atoms: O_10  and  C_11
REMARK                            x       y       z     vdW  Elec       q    Type
REMARK                         _______ _______ _______ _____ _____    ______ ____
ROOT
ATOM      1  O   UNL     1       7.876  10.184  17.531  0.00  0.00    +0.000 OA
ATOM      2  C   UNL     1       8.681   9.730  18.339  0.00  0.00    +0.000 C 
ATOM      3  N   UNL     1       8.747   8.432  18.803  0.00  0.00    +0.000 N 
ATOM      4  C   UNL     1       7.920   7.474  18.277  0.00  0.00    +0.000 A 
ATOM      5  N   UNL     1       7.220   7.549  17.177  0.00  0.00    +0.000 NA
ATOM      6  C   UNL     1       6.465   6.410  17.021  0.00  0.00    +0.000 A 
ATOM      7  C   UNL     1       5.596   6.144  15.946  0.00  0.00    +0.000 A 
ATOM      8  C   UNL     1       4.842   4.966  15.929  0.00  0.00    +0.000 A 
ATOM      9  C   UNL     1       4.909   4.071  16.992  0.00  0.00    +0.000 A 
ATOM     10  C   UNL     1       5.820   4.288  18.040  0.00  0.00    +0.000 A 
ATOM     11  C   UNL     1       6.592   5.464  18.039  0.00  0.00    +0.000 A 
ATOM     12  S   UNL     1       7.790   6.022  19.159  0.00  0.00    +0.000 S 
ATOM     13  H   UNL     1       9.351   8.204  19.576  0.00  0.00    +0.000 HD
ENDROOT
BRANCH   2  14
ATOM     14  C   UNL     1       9.666  10.672  18.929  0.00  0.00    +0.000 A 
ATOM     15  C   UNL     1       9.594  10.951  20.291  0.00  0.00    +0.000 A 
ATOM     16  N   UNL     1      10.422  11.837  20.898  0.00  0.00    +0.000 NA
ATOM     17  C   UNL     1      11.311  12.443  20.080  0.00  0.00    +0.000 A 
ATOM     18  C   UNL     1      11.389  12.158  18.722  0.00  0.00    +0.000 A 
ATOM     19  N   UNL     1      10.584  11.255  18.108  0.00  0.00    +0.000 NA
ENDBRANCH   2  14
BRANCH   9  20
ATOM     20  O   UNL     1       4.191   2.916  17.096  0.00  0.00    +0.000 OA
BRANCH  20  21
ATOM     21  C   UNL     1       2.940   2.915  17.777  0.00  0.00    +0.000 C 
ATOM     22  F   UNL     1       3.031   2.841  19.121  0.00  0.00    +0.000 F 
ATOM     23  F   UNL     1       2.259   4.034  17.450  0.00  0.00    +0.000 F 
ATOM     24  F   UNL     1       2.224   1.849  17.354  0.00  0.00    +0.000 F 
ENDBRANCH  20  21
ENDBRANCH   9  20
TORSDOF 3
ENDMDL
MODEL 2
REMARK VINA RESULT:      -7.8      0.595      1.244
REMARK  Name = 
REMARK  3 active torsions:
REMARK  status: ('A' for Active; 'I' for Inactive)
REMARK    1  A    between atoms: C_2  and  C_18
REMARK    2  A    between atoms: C_9  and  O_10
REMARK    3  A    between atoms: O_10  and  C_11
REMARK                            x       y       z     vdW  Elec       q    Type
REMARK                         _______ _______ _______ _____ _____    ______ ____
ROOT
ATOM      1  O   UNL     1       7.814  10.185  17.528  0.00  0.00    +0.000 OA
ATOM      2  C   UNL     1       8.638   9.748  18.326  0.00  0.00    +0.000 C 
ATOM      3  N   UNL     1       8.735   8.451  18.790  0.00  0.00    +0.000 N 
ATOM      4  C   UNL     1       7.922   7.477  18.273  0.00  0.00    +0.000 A 
ATOM      5  N   UNL     1       7.207   7.537  17.182  0.00  0.00    +0.000 NA
ATOM      6  C   UNL     1       6.473   6.383  17.035  0.00  0.00    +0.000 A 
ATOM      7  C   UNL     1       5.598   6.099  15.970  0.00  0.00    +0.000 A 
ATOM      8  C   UNL     1       4.867   4.906  15.962  0.00  0.00    +0.000 A 
ATOM      9  C   UNL     1       4.965   4.013  17.025  0.00  0.00    +0.000 A 
ATOM     10  C   UNL     1       5.884   4.249  18.062  0.00  0.00    +0.000 A 
ATOM     11  C   UNL     1       6.632   5.440  18.051  0.00  0.00    +0.000 A 
ATOM     12  S   UNL     1       7.831   6.023  19.158  0.00  0.00    +0.000 S 
ATOM     13  H   UNL     1       9.353   8.236  19.556  0.00  0.00    +0.000 HD
ENDROOT
BRANCH   2  14
ATOM     14  C   UNL     1       9.610  10.709  18.904  0.00  0.00    +0.000 A 
ATOM     15  C   UNL     1      10.530  11.323  18.058  0.00  0.00    +0.000 A 
ATOM     16  N   UNL     1      11.483  12.174  18.511  0.00  0.00    +0.000 NA
ATOM     17  C   UNL     1      11.487  12.368  19.849  0.00  0.00    +0.000 A 
ATOM     18  C   UNL     1      10.564  11.762  20.693  0.00  0.00    +0.000 A 
ATOM     19  N   UNL     1       9.590  10.930  20.249  0.00  0.00    +0.000 NA
ENDBRANCH   2  14
BRANCH   9  20
ATOM     20  O   UNL     1       4.272   2.843  17.137  0.00  0.00    +0.000 OA
BRANCH  20  21
ATOM     21  C   UNL     1       3.095   2.789  17.937  0.00  0.00    +0.000 C 
ATOM     22  F   UNL     1       2.476   3.975  18.107  0.00  0.00    +0.000 F 
ATOM     23  F   UNL     1       2.223   1.920  17.382  0.00  0.00    +0.000 F 
ATOM     24  F   UNL     1       3.431   2.323  19.161  0.00  0.00    +0.000 F 
ENDBRANCH  20  21
ENDBRANCH   9  20
TORSDOF 3
ENDMDL
MODEL 3
REMARK VINA RESULT:      -7.3      5.835      7.114
REMARK  Name = 
REMARK  3 active torsions:
REMARK  status: ('A' for Active; 'I' for Inactive)
REMARK    1  A    between atoms: C_2  and  C_18
REMARK    2  A    between atoms: C_9  and  O_10
REMARK    3  A    between atoms: O_10  and  C_11
REMARK                            x       y       z     vdW  Elec       q    Type
REMARK                         _______ _______ _______ _____ _____    ______ ____
ROOT
ATOM      1  O   UNL     1       1.284   6.921  21.203  0.00  0.00    +0.000 OA
ATOM      2  C   UNL     1       1.313   8.006  20.629  0.00  0.00    +0.000 C 
ATOM      3  N   UNL     1       1.965   8.302  19.450  0.00  0.00    +0.000 N 
ATOM      4  C   UNL     1       2.584   7.307  18.741  0.00  0.00    +0.000 A 
ATOM      5  N   UNL     1       2.432   6.018  18.887  0.00  0.00    +0.000 NA
ATOM      6  C   UNL     1       3.275   5.344  18.034  0.00  0.00    +0.000 A 
ATOM      7  C   UNL     1       3.374   3.945  17.915  0.00  0.00    +0.000 A 
ATOM      8  C   UNL     1       4.312   3.380  17.044  0.00  0.00    +0.000 A 
ATOM      9  C   UNL     1       5.182   4.191  16.322  0.00  0.00    +0.000 A 
ATOM     10  C   UNL     1       5.051   5.590  16.377  0.00  0.00    +0.000 A 
ATOM     11  C   UNL     1       4.091   6.150  17.239  0.00  0.00    +0.000 A 
ATOM     12  S   UNL     1       3.678   7.807  17.534  0.00  0.00    +0.000 S 
ATOM     13  H   UNL     1       2.047   9.260  19.147  0.00  0.00    +0.000 HD
ENDROOT
BRANCH   2  14
ATOM     14  C   UNL     1       0.619   9.145  21.282  0.00  0.00    +0.000 A 
ATOM     15  C   UNL     1       0.595   9.207  22.673  0.00  0.00    +0.000 A 
ATOM     16  N   UNL     1      -0.059  10.185  23.347  0.00  0.00    +0.000 NA
ATOM     17  C   UNL     1      -0.701  11.085  22.569  0.00  0.00    +0.000 A 
ATOM     18  C   UNL     1      -0.670  11.028  21.181  0.00  0.00    +0.000 A 
ATOM     19  N   UNL     1       0.002  10.070  20.495  0.00  0.00    +0.000 NA
ENDBRANCH   2  14
BRANCH   9  20
ATOM     20  O   UNL     1       6.155   3.747  15.476  0.00  0.00    +0.000 OA
BRANCH  20  21
ATOM     21  C   UNL     1       6.074   4.041  14.084  0.00  0.00    +0.000 C 
ATOM     22  F   UNL     1       6.528   3.061  13.276  0.00  0.00    +0.000 F 
ATOM     23  F   UNL     1       4.791   4.309  13.763  0.00  0.00    +0.000 F 
ATOM     24  F   UNL     1       6.809   5.149  13.839  0.00  0.00    +0.000 F 
ENDBRANCH  20  21
ENDBRANCH   9  20
TORSDOF 3
ENDMDL
MODEL 4
REMARK VINA RESULT:      -7.3      6.750      7.650
REMARK  Name = 
REMARK  3 active torsions:
REMARK  status: ('A' for Active; 'I' for Inactive)
REMARK    1  A    between atoms: C_2  and  C_18
REMARK    2  A    between atoms: C_9  and  O_10
REMARK    3  A    between atoms: O_10  and  C_11
REMARK                            x       y       z     vdW  Elec       q    Type
REMARK                         _______ _______ _______ _____ _____    ______ ____
ROOT
ATOM      1  O   UNL     1       1.318   8.691  22.136  0.00  0.00    +0.000 OA
ATOM      2  C   UNL     1       0.802   9.349  21.237  0.00  0.00    +0.000 C 
ATOM      3  N   UNL     1       1.024   9.216  19.881  0.00  0.00    +0.000 N 
ATOM      4  C   UNL     1       1.816   8.201  19.413  0.00  0.00    +0.000 A 
ATOM      5  N   UNL     1       2.211   7.140  20.063  0.00  0.00    +0.000 NA
ATOM      6  C   UNL     1       3.049   6.388  19.273  0.00  0.00    +0.000 A 
ATOM      7  C   UNL     1       3.656   5.174  19.646  0.00  0.00    +0.000 A 
ATOM      8  C   UNL     1       4.533   4.529  18.767  0.00  0.00    +0.000 A 
ATOM      9  C   UNL     1       4.846   5.102  17.539  0.00  0.00    +0.000 A 
ATOM     10  C   UNL     1       4.198   6.278  17.123  0.00  0.00    +0.000 A 
ATOM     11  C   UNL     1       3.300   6.908  18.003  0.00  0.00    +0.000 A 
ATOM     12  S   UNL     1       2.349   8.342  17.801  0.00  0.00    +0.000 S 
ATOM     13  H   UNL     1       0.662   9.907  19.243  0.00  0.00    +0.000 HD
ENDROOT
BRANCH   2  14
ATOM     14  C   UNL     1      -0.125  10.440  21.631  0.00  0.00    +0.000 A 
ATOM     15  C   UNL     1      -0.600  10.476  22.939  0.00  0.00    +0.000 A 
ATOM     16  N   UNL     1      -1.488  11.408  23.366  0.00  0.00    +0.000 NA
ATOM     17  C   UNL     1      -1.892  12.288  22.424  0.00  0.00    +0.000 A 
ATOM     18  C   UNL     1      -1.411  12.257  21.120  0.00  0.00    +0.000 A 
ATOM     19  N   UNL     1      -0.504  11.347  20.687  0.00  0.00    +0.000 NA
ENDBRANCH   2  14
BRANCH   9  20
ATOM     20  O   UNL     1       5.713   4.580  16.624  0.00  0.00    +0.000 OA
BRANCH  20  21
ATOM     21  C   UNL     1       7.108   4.848  16.735  0.00  0.00    +0.000 C 
ATOM     22  F   UNL     1       7.722   4.222  17.759  0.00  0.00    +0.000 F 
ATOM     23  F   UNL     1       7.718   4.496  15.582  0.00  0.00    +0.000 F 
ATOM     24  F   UNL     1       7.275   6.179  16.908  0.00  0.00    +0.000 F 
ENDBRANCH  20  21
ENDBRANCH   9  20
TORSDOF 3
ENDMDL
MODEL 5
REMARK VINA RESULT:      -7.3      6.886      7.804
REMARK  Name = 
REMARK  3 active torsions:
REMARK  status: ('A' for Active; 'I' for Inactive)
REMARK    1  A    between atoms: C_2  and  C_18
REMARK    2  A    between atoms: C_9  and  O_10
REMARK    3  A    between atoms: O_10  and  C_11
REMARK                            x       y       z     vdW  Elec       q    Type
REMARK                         _______ _______ _______ _____ _____    ______ ____
ROOT
ATOM      1  O   UNL     1       0.998   8.904  22.128  0.00  0.00    +0.000 OA
ATOM      2  C   UNL     1       0.574   9.575  21.191  0.00  0.00    +0.000 C 
ATOM      3  N   UNL     1       0.900   9.435  19.857  0.00  0.00    +0.000 N 
ATOM      4  C   UNL     1       1.700   8.398  19.453  0.00  0.00    +0.000 A 
ATOM      5  N   UNL     1       2.011   7.326  20.132  0.00  0.00    +0.000 NA
ATOM      6  C   UNL     1       2.889   6.550  19.411  0.00  0.00    +0.000 A 
ATOM      7  C   UNL     1       3.430   5.321  19.830  0.00  0.00    +0.000 A 
ATOM      8  C   UNL     1       4.356   4.651  19.023  0.00  0.00    +0.000 A 
ATOM      9  C   UNL     1       4.783   5.213  17.825  0.00  0.00    +0.000 A 
ATOM     10  C   UNL     1       4.203   6.406  17.360  0.00  0.00    +0.000 A 
ATOM     11  C   UNL     1       3.256   7.062  18.166  0.00  0.00    +0.000 A 
ATOM     12  S   UNL     1       2.364   8.522  17.889  0.00  0.00    +0.000 S 
ATOM     13  H   UNL     1       0.611  10.134  19.192  0.00  0.00    +0.000 HD
ENDROOT
BRANCH   2  14
ATOM     14  C   UNL     1      -0.350  10.692  21.510  0.00  0.00    +0.000 A 
ATOM     15  C   UNL     1      -1.044  11.306  20.471  0.00  0.00    +0.000 A 
ATOM     16  N   UNL     1      -1.869  12.364  20.670  0.00  0.00    +0.000 NA
ATOM     17  C   UNL     1      -1.953  12.791  21.949  0.00  0.00    +0.000 A 
ATOM     18  C   UNL     1      -1.267  12.173  22.988  0.00  0.00    +0.000 A 
ATOM     19  N   UNL     1      -0.460  11.098  22.806  0.00  0.00    +0.000 NA
ENDBRANCH   2  14
BRANCH   9  20
ATOM     20  O   UNL     1       5.706   4.666  16.983  0.00  0.00    +0.000 OA
BRANCH  20  21
ATOM     21  C   UNL     1       7.044   5.157  16.980  0.00  0.00    +0.000 C 
ATOM     22  F   UNL     1       7.332   6.010  17.984  0.00  0.00    +0.000 F 
ATOM     23  F   UNL     1       7.898   4.112  17.039  0.00  0.00    +0.000 F 
ATOM     24  F   UNL     1       7.257   5.808  15.814  0.00  0.00    +0.000 F 
ENDBRANCH  20  21
ENDBRANCH   9  20
TORSDOF 3
ENDMDL
MODEL 6
REMARK VINA RESULT:      -7.1      5.611      6.931
REMARK  Name = 
REMARK  3 active torsions:
REMARK  status: ('A' for Active; 'I' for Inactive)
REMARK    1  A    between atoms: C_2  and  C_18
REMARK    2  A    between atoms: C_9  and  O_10
REMARK    3  A    between atoms: O_10  and  C_11
REMARK                            x       y       z     vdW  Elec       q    Type
REMARK                         _______ _______ _______ _____ _____    ______ ____
ROOT
ATOM      1  O   UNL     1       1.847   9.447  18.651  0.00  0.00    +0.000 OA
ATOM      2  C   UNL     1       1.660   8.692  19.600  0.00  0.00    +0.000 C 
ATOM      3  N   UNL     1       2.103   7.391  19.725  0.00  0.00    +0.000 N 
ATOM      4  C   UNL     1       2.926   6.854  18.769  0.00  0.00    +0.000 A 
ATOM      5  N   UNL     1       3.588   7.493  17.843  0.00  0.00    +0.000 NA
ATOM      6  C   UNL     1       4.250   6.599  17.035  0.00  0.00    +0.000 A 
ATOM      7  C   UNL     1       5.068   6.935  15.940  0.00  0.00    +0.000 A 
ATOM      8  C   UNL     1       5.646   5.926  15.161  0.00  0.00    +0.000 A 
ATOM      9  C   UNL     1       5.383   4.587  15.434  0.00  0.00    +0.000 A 
ATOM     10  C   UNL     1       4.625   4.234  16.564  0.00  0.00    +0.000 A 
ATOM     11  C   UNL     1       4.066   5.253  17.355  0.00  0.00    +0.000 A 
ATOM     12  S   UNL     1       3.101   5.159  18.791  0.00  0.00    +0.000 S 
ATOM     13  H   UNL     1       1.765   6.814  20.478  0.00  0.00    +0.000 HD
ENDROOT
BRANCH   2  14
ATOM     14  C   UNL     1       0.829   9.196  20.723  0.00  0.00    +0.000 A 
ATOM     15  C   UNL     1       0.834  10.561  21.001  0.00  0.00    +0.000 A 
ATOM     16  N   UNL     1       0.144  11.095  22.039  0.00  0.00    +0.000 NA
ATOM     17  C   UNL     1      -0.533  10.204  22.796  0.00  0.00    +0.000 A 
ATOM     18  C   UNL     1      -0.545   8.843  22.514  0.00  0.00    +0.000 A 
ATOM     19  N   UNL     1       0.119   8.299  21.464  0.00  0.00    +0.000 NA
ENDBRANCH   2  14
BRANCH   9  20
ATOM     20  O   UNL     1       5.862   3.529  14.720  0.00  0.00    +0.000 OA
BRANCH  20  21
ATOM     21  C   UNL     1       5.946   3.610  13.300  0.00  0.00    +0.000 C 
ATOM     22  F   UNL     1       6.875   4.472  12.840  0.00  0.00    +0.000 F 
ATOM     23  F   UNL     1       6.209   2.382  12.803  0.00  0.00    +0.000 F 
ATOM     24  F   UNL     1       4.745   4.007  12.823  0.00  0.00    +0.000 F 
ENDBRANCH  20  21
ENDBRANCH   9  20
TORSDOF 3
ENDMDL
MODEL 7
REMARK VINA RESULT:      -7.1      6.801      7.725
REMARK  Name = 
REMARK  3 active torsions:
REMARK  status: ('A' for Active; 'I' for Inactive)
REMARK    1  A    between atoms: C_2  and  C_18
REMARK    2  A    between atoms: C_9  and  O_10
REMARK    3  A    between atoms: O_10  and  C_11
REMARK                            x       y       z     vdW  Elec       q    Type
REMARK                         _______ _______ _______ _____ _____    ______ ____
ROOT
ATOM      1  O   UNL     1       1.043   8.878  22.180  0.00  0.00    +0.000 OA
ATOM      2  C   UNL     1       0.541   9.540  21.276  0.00  0.00    +0.000 C 
ATOM      3  N   UNL     1       0.821   9.448  19.928  0.00  0.00    +0.000 N 
ATOM      4  C   UNL     1       1.665   8.471  19.469  0.00  0.00    +0.000 A 
ATOM      5  N   UNL     1       2.068   7.407  20.110  0.00  0.00    +0.000 NA
ATOM      6  C   UNL     1       2.962   6.701  19.338  0.00  0.00    +0.000 A 
ATOM      7  C   UNL     1       3.592   5.499  19.707  0.00  0.00    +0.000 A 
ATOM      8  C   UNL     1       4.524   4.904  18.850  0.00  0.00    +0.000 A 
ATOM      9  C   UNL     1       4.868   5.516  17.649  0.00  0.00    +0.000 A 
ATOM     10  C   UNL     1       4.199   6.681  17.234  0.00  0.00    +0.000 A 
ATOM     11  C   UNL     1       3.246   7.260  18.091  0.00  0.00    +0.000 A 
ATOM     12  S   UNL     1       2.257   8.668  17.884  0.00  0.00    +0.000 S 
ATOM     13  H   UNL     1       0.464  10.142  19.291  0.00  0.00    +0.000 HD
ENDROOT
BRANCH   2  14
ATOM     14  C   UNL     1      -0.436  10.591  21.657  0.00  0.00    +0.000 A 
ATOM     15  C   UNL     1      -1.016  11.363  20.653  0.00  0.00    +0.000 A 
ATOM     16  N   UNL     1      -1.878  12.375  20.919  0.00  0.00    +0.000 NA
ATOM     17  C   UNL     1      -2.119  12.592  22.231  0.00  0.00    +0.000 A 
ATOM     18  C   UNL     1      -1.546  11.817  23.233  0.00  0.00    +0.000 A 
ATOM     19  N   UNL     1      -0.703  10.785  22.979  0.00  0.00    +0.000 NA
ENDBRANCH   2  14
BRANCH   9  20
ATOM     20  O   UNL     1       5.788   5.045  16.759  0.00  0.00    +0.000 OA
BRANCH  20  21
ATOM     21  C   UNL     1       5.364   4.259  15.649  0.00  0.00    +0.000 C 
ATOM     22  F   UNL     1       6.204   3.257  15.317  0.00  0.00    +0.000 F 
ATOM     23  F   UNL     1       4.149   3.736  15.916  0.00  0.00    +0.000 F 
ATOM     24  F   UNL     1       5.246   5.069  14.573  0.00  0.00    +0.000 F 
ENDBRANCH  20  21
ENDBRANCH   9  20
TORSDOF 3
ENDMDL
MODEL 8
REMARK VINA RESULT:      -7.0      5.852      7.205
REMARK  Name = 
REMARK  3 active torsions:
REMARK  status: ('A' for Active; 'I' for Inactive)
REMARK    1  A    between atoms: C_2  and  C_18
REMARK    2  A    between atoms: C_9  and  O_10
REMARK    3  A    between atoms: O_10  and  C_11
REMARK                            x       y       z     vdW  Elec       q    Type
REMARK                         _______ _______ _______ _____ _____    ______ ____
ROOT
ATOM      1  O   UNL     1       1.218   6.862  21.236  0.00  0.00    +0.000 OA
ATOM      2  C   UNL     1       1.216   7.946  20.661  0.00  0.00    +0.000 C 
ATOM      3  N   UNL     1       1.864   8.261  19.484  0.00  0.00    +0.000 N 
ATOM      4  C   UNL     1       2.517   7.284  18.779  0.00  0.00    +0.000 A 
ATOM      5  N   UNL     1       2.404   5.991  18.926  0.00  0.00    +0.000 NA
ATOM      6  C   UNL     1       3.271   5.343  18.078  0.00  0.00    +0.000 A 
ATOM      7  C   UNL     1       3.413   3.948  17.961  0.00  0.00    +0.000 A 
ATOM      8  C   UNL     1       4.372   3.411  17.095  0.00  0.00    +0.000 A 
ATOM      9  C   UNL     1       5.219   4.247  16.376  0.00  0.00    +0.000 A 
ATOM     10  C   UNL     1       5.046   5.641  16.429  0.00  0.00    +0.000 A 
ATOM     11  C   UNL     1       4.065   6.173  17.285  0.00  0.00    +0.000 A 
ATOM     12  S   UNL     1       3.600   7.817  17.577  0.00  0.00    +0.000 S 
ATOM     13  H   UNL     1       1.918   9.220  19.181  0.00  0.00    +0.000 HD
ENDROOT
BRANCH   2  14
ATOM     14  C   UNL     1       0.485   9.065  21.308  0.00  0.00    +0.000 A 
ATOM     15  C   UNL     1       0.194  10.200  20.557  0.00  0.00    +0.000 A 
ATOM     16  N   UNL     1      -0.425  11.285  21.085  0.00  0.00    +0.000 NA
ATOM     17  C   UNL     1      -0.722  11.190  22.400  0.00  0.00    +0.000 A 
ATOM     18  C   UNL     1      -0.439  10.054  23.149  0.00  0.00    +0.000 A 
ATOM     19  N   UNL     1       0.155   8.952  22.626  0.00  0.00    +0.000 NA
ENDBRANCH   2  14
BRANCH   9  20
ATOM     20  O   UNL     1       6.210   3.831  15.535  0.00  0.00    +0.000 OA
BRANCH  20  21
ATOM     21  C   UNL     1       6.115   4.101  14.139  0.00  0.00    +0.000 C 
ATOM     22  F   UNL     1       4.857   4.262  13.682  0.00  0.00    +0.000 F 
ATOM     23  F   UNL     1       6.827   5.213  13.855  0.00  0.00    +0.000 F 
ATOM     24  F   UNL     1       6.667   3.066  13.467  0.00  0.00    +0.000 F 
ENDBRANCH  20  21
ENDBRANCH   9  20
TORSDOF 3
ENDMDL
MODEL 9
REMARK VINA RESULT:      -6.9      6.594      8.490
REMARK  Name = 
REMARK  3 active torsions:
REMARK  status: ('A' for Active; 'I' for Inactive)
REMARK    1  A    between atoms: C_2  and  C_18
REMARK    2  A    between atoms: C_9  and  O_10
REMARK    3  A    between atoms: O_10  and  C_11
REMARK                            x       y       z     vdW  Elec       q    Type
REMARK                         _______ _______ _______ _____ _____    ______ ____
ROOT
ATOM      1  O   UNL     1       3.676   5.172  18.589  0.00  0.00    +0.000 OA
ATOM      2  C   UNL     1       4.108   5.938  17.733  0.00  0.00    +0.000 C 
ATOM      3  N   UNL     1       3.725   7.248  17.523  0.00  0.00    +0.000 N 
ATOM      4  C   UNL     1       2.846   7.850  18.384  0.00  0.00    +0.000 A 
ATOM      5  N   UNL     1       2.490   7.437  19.571  0.00  0.00    +0.000 NA
ATOM      6  C   UNL     1       1.538   8.279  20.098  0.00  0.00    +0.000 A 
ATOM      7  C   UNL     1       0.935   8.144  21.361  0.00  0.00    +0.000 A 
ATOM      8  C   UNL     1      -0.062   9.041  21.761  0.00  0.00    +0.000 A 
ATOM      9  C   UNL     1      -0.495  10.044  20.900  0.00  0.00    +0.000 A 
ATOM     10  C   UNL     1       0.144  10.234  19.662  0.00  0.00    +0.000 A 
ATOM     11  C   UNL     1       1.161   9.342  19.276  0.00  0.00    +0.000 A 
ATOM     12  S   UNL     1       2.134   9.301  17.844  0.00  0.00    +0.000 S 
ATOM     13  H   UNL     1       4.035   7.736  16.699  0.00  0.00    +0.000 HD
ENDROOT
BRANCH   2  14
ATOM     14  C   UNL     1       5.114   5.405  16.780  0.00  0.00    +0.000 A 
ATOM     15  C   UNL     1       6.284   6.129  16.566  0.00  0.00    +0.000 A 
ATOM     16  N   UNL     1       7.230   5.738  15.676  0.00  0.00    +0.000 NA
ATOM     17  C   UNL     1       6.945   4.604  14.999  0.00  0.00    +0.000 A 
ATOM     18  C   UNL     1       5.782   3.877  15.219  0.00  0.00    +0.000 A 
ATOM     19  N   UNL     1       4.840   4.242  16.124  0.00  0.00    +0.000 NA
ENDBRANCH   2  14
BRANCH   9  20
ATOM     20  O   UNL     1      -1.482  10.945  21.172  0.00  0.00    +0.000 OA
BRANCH  20  21
ATOM     21  C   UNL     1      -1.402  11.753  22.342  0.00  0.00    +0.000 C 
ATOM     22  F   UNL     1      -2.306  12.753  22.398  0.00  0.00    +0.000 F 
ATOM     23  F   UNL     1      -1.555  10.970  23.431  0.00  0.00    +0.000 F 
ATOM     24  F   UNL     1      -0.171  12.310  22.394  0.00  0.00    +0.000 F 
ENDBRANCH  20  21
ENDBRANCH   9  20
TORSDOF 3
ENDMDL
