MODEL 1
REMARK VINA RESULT:      -7.4      0.000      0.000
REMARK  Name = 
REMARK  5 active torsions:
REMARK  status: ('A' for Active; 'I' for Inactive)
REMARK    1  A    between atoms: C_1  and  C_2
REMARK    2  A    between atoms: C_7  and  N_8
REMARK    3  A    between atoms: C_9  and  S_10
REMARK    4  A    between atoms: N_14  and  C_15
REMARK    5  A    between atoms: C_15  and  C_16
REMARK                            x       y       z     vdW  Elec       q    Type
REMARK                         _______ _______ _______ _____ _____    ______ ____
ROOT
ATOM      1  N   UNL     1       2.360   7.335  19.371  0.00  0.00    +0.000 NA
ATOM      2  C   UNL     1       2.549   6.066  19.589  0.00  0.00    +0.000 C 
ATOM      3  N   UNL     1       3.568   5.383  18.902  0.00  0.00    +0.000 N 
ATOM      4  C   UNL     1       4.554   6.224  18.186  0.00  0.00    +0.000 C 
ATOM      5  C   UNL     1       5.759   5.440  17.627  0.00  0.00    +0.000 C 
ATOM      6  N   UNL     1       5.431   4.243  16.833  0.00  0.00    +0.000 NA
ATOM      7  C   UNL     1       4.573   3.385  17.669  0.00  0.00    +0.000 C 
ATOM      8  C   UNL     1       3.338   4.035  18.344  0.00  0.00    +0.000 C 
ENDROOT
BRANCH   1  15
ATOM      9  C   UNL     1       0.865   9.721  17.986  0.00  0.00    +0.000 C 
ATOM     10  C   UNL     1       0.920   9.419  19.454  0.00  0.00    +0.000 A 
ATOM     11  C   UNL     1       0.290  10.355  20.310  0.00  0.00    +0.000 A 
ATOM     12  C   UNL     1       0.338  10.232  21.697  0.00  0.00    +0.000 A 
ATOM     13  C   UNL     1       0.989   9.144  22.256  0.00  0.00    +0.000 A 
ATOM     14  C   UNL     1       1.571   8.188  21.419  0.00  0.00    +0.000 A 
ATOM     15  C   UNL     1       1.552   8.290  20.012  0.00  0.00    +0.000 A 
ENDBRANCH   1  15
BRANCH   2  16
ATOM     16  S   UNL     1       1.673   5.122  20.785  0.00  0.00    +0.000 S 
ATOM     17  H   UNL     1       2.640   4.235  21.031  0.00  0.00    +0.000 HD
ENDBRANCH   2  16
BRANCH   6  18
ATOM     18  C   UNL     1       4.810   4.551  15.534  0.00  0.00    +0.000 C 
BRANCH  18  19
ATOM     19  C   UNL     1       5.709   4.346  14.319  0.00  0.00    +0.000 A 
ATOM     20  C   UNL     1       5.344   3.536  13.228  0.00  0.00    +0.000 A 
ATOM     21  C   UNL     1       6.167   3.426  12.101  0.00  0.00    +0.000 A 
ATOM     22  C   UNL     1       7.360   4.144  12.035  0.00  0.00    +0.000 A 
ATOM     23  C   UNL     1       7.732   4.976  13.098  0.00  0.00    +0.000 A 
ATOM     24  C   UNL     1       6.907   5.075  14.221  0.00  0.00    +0.000 A 
ENDBRANCH  18  19
ENDBRANCH   6  18
TORSDOF 4
ENDMDL
MODEL 2
REMARK VINA RESULT:      -7.2      0.062      1.008
REMARK  Name = 
REMARK  5 active torsions:
REMARK  status: ('A' for Active; 'I' for Inactive)
REMARK    1  A    between atoms: C_1  and  C_2
REMARK    2  A    between atoms: C_7  and  N_8
REMARK    3  A    between atoms: C_9  and  S_10
REMARK    4  A    between atoms: N_14  and  C_15
REMARK    5  A    between atoms: C_15  and  C_16
REMARK                            x       y       z     vdW  Elec       q    Type
REMARK                         _______ _______ _______ _____ _____    ______ ____
ROOT
ATOM      1  N   UNL     1       2.382   7.303  19.367  0.00  0.00    +0.000 NA
ATOM      2  C   UNL     1       2.585   6.041  19.608  0.00  0.00    +0.000 C 
ATOM      3  N   UNL     1       3.592   5.349  18.912  0.00  0.00    +0.000 N 
ATOM      4  C   UNL     1       4.554   6.180  18.154  0.00  0.00    +0.000 C 
ATOM      5  C   UNL     1       5.751   5.393  17.582  0.00  0.00    +0.000 C 
ATOM      6  N   UNL     1       5.412   4.176  16.823  0.00  0.00    +0.000 NA
ATOM      7  C   UNL     1       4.581   3.331  17.699  0.00  0.00    +0.000 C 
ATOM      8  C   UNL     1       3.358   3.987  18.390  0.00  0.00    +0.000 C 
ENDROOT
BRANCH   1  15
ATOM      9  C   UNL     1       0.938   9.722  17.984  0.00  0.00    +0.000 C 
ATOM     10  C   UNL     1       0.975   9.409  19.450  0.00  0.00    +0.000 A 
ATOM     11  C   UNL     1       0.351  10.350  20.306  0.00  0.00    +0.000 A 
ATOM     12  C   UNL     1       0.383  10.216  21.692  0.00  0.00    +0.000 A 
ATOM     13  C   UNL     1       1.011   9.116  22.250  0.00  0.00    +0.000 A 
ATOM     14  C   UNL     1       1.586   8.156  21.413  0.00  0.00    +0.000 A 
ATOM     15  C   UNL     1       1.582   8.266  20.006  0.00  0.00    +0.000 A 
ENDBRANCH   1  15
BRANCH   2  16
ATOM     16  S   UNL     1       1.745   5.118  20.846  0.00  0.00    +0.000 S 
ATOM     17  H   UNL     1       2.832   4.635  21.453  0.00  0.00    +0.000 HD
ENDBRANCH   2  16
BRANCH   6  18
ATOM     18  C   UNL     1       4.758   4.450  15.534  0.00  0.00    +0.000 C 
BRANCH  18  19
ATOM     19  C   UNL     1       5.677   4.410  14.317  0.00  0.00    +0.000 A 
ATOM     20  C   UNL     1       6.909   5.086  14.270  0.00  0.00    +0.000 A 
ATOM     21  C   UNL     1       7.757   4.971  13.161  0.00  0.00    +0.000 A 
ATOM     22  C   UNL     1       7.397   4.155  12.090  0.00  0.00    +0.000 A 
ATOM     23  C   UNL     1       6.187   3.451  12.126  0.00  0.00    +0.000 A 
ATOM     24  C   UNL     1       5.346   3.578  13.234  0.00  0.00    +0.000 A 
ENDBRANCH  18  19
ENDBRANCH   6  18
TORSDOF 4
ENDMDL
MODEL 3
REMARK VINA RESULT:      -6.9      4.275      6.560
REMARK  Name = 
REMARK  5 active torsions:
REMARK  status: ('A' for Active; 'I' for Inactive)
REMARK    1  A    between atoms: C_1  and  C_2
REMARK    2  A    between atoms: C_7  and  N_8
REMARK    3  A    between atoms: C_9  and  S_10
REMARK    4  A    between atoms: N_14  and  C_15
REMARK    5  A    between atoms: C_15  and  C_16
REMARK                            x       y       z     vdW  Elec       q    Type
REMARK                         _______ _______ _______ _____ _____    ______ ____
ROOT
ATOM      1  N   UNL     1       4.319   4.897  19.414  0.00  0.00    +0.000 NA
ATOM      2  C   UNL     1       4.781   4.856  18.198  0.00  0.00    +0.000 C 
ATOM      3  N   UNL     1       5.953   5.561  17.871  0.00  0.00    +0.000 N 
ATOM      4  C   UNL     1       6.751   6.070  19.010  0.00  0.00    +0.000 C 
ATOM      5  C   UNL     1       8.122   6.650  18.607  0.00  0.00    +0.000 C 
ATOM      6  N   UNL     1       8.102   7.635  17.510  0.00  0.00    +0.000 NA
ATOM      7  C   UNL     1       7.428   7.000  16.363  0.00  0.00    +0.000 C 
ATOM      8  C   UNL     1       6.054   6.327  16.613  0.00  0.00    +0.000 C 
ENDROOT
BRANCH   1  15
ATOM      9  C   UNL     1       4.480   1.930  20.422  0.00  0.00    +0.000 C 
ATOM     10  C   UNL     1       3.284   2.833  20.459  0.00  0.00    +0.000 A 
ATOM     11  C   UNL     1       2.080   2.258  20.933  0.00  0.00    +0.000 A 
ATOM     12  C   UNL     1       0.881   2.967  20.944  0.00  0.00    +0.000 A 
ATOM     13  C   UNL     1       0.871   4.283  20.513  0.00  0.00    +0.000 A 
ATOM     14  C   UNL     1       2.064   4.876  20.090  0.00  0.00    +0.000 A 
ATOM     15  C   UNL     1       3.292   4.183  20.055  0.00  0.00    +0.000 A 
ENDBRANCH   1  15
BRANCH   2  16
ATOM     16  S   UNL     1       4.095   3.880  16.907  0.00  0.00    +0.000 S 
ATOM     17  H   UNL     1       4.082   4.834  15.973  0.00  0.00    +0.000 HD
ENDBRANCH   2  16
BRANCH   6  18
ATOM     18  C   UNL     1       7.479   8.915  17.880  0.00  0.00    +0.000 C 
BRANCH  18  19
ATOM     19  C   UNL     1       8.453  10.035  18.232  0.00  0.00    +0.000 A 
ATOM     20  C   UNL     1       8.505  11.249  17.525  0.00  0.00    +0.000 A 
ATOM     21  C   UNL     1       9.367  12.280  17.919  0.00  0.00    +0.000 A 
ATOM     22  C   UNL     1      10.174  12.123  19.044  0.00  0.00    +0.000 A 
ATOM     23  C   UNL     1      10.120  10.932  19.779  0.00  0.00    +0.000 A 
ATOM     24  C   UNL     1       9.261   9.908  19.375  0.00  0.00    +0.000 A 
ENDBRANCH  18  19
ENDBRANCH   6  18
TORSDOF 4
ENDMDL
MODEL 4
REMARK VINA RESULT:      -6.9      4.263      6.554
REMARK  Name = 
REMARK  5 active torsions:
REMARK  status: ('A' for Active; 'I' for Inactive)
REMARK    1  A    between atoms: C_1  and  C_2
REMARK    2  A    between atoms: C_7  and  N_8
REMARK    3  A    between atoms: C_9  and  S_10
REMARK    4  A    between atoms: N_14  and  C_15
REMARK    5  A    between atoms: C_15  and  C_16
REMARK                            x       y       z     vdW  Elec       q    Type
REMARK                         _______ _______ _______ _____ _____    ______ ____
ROOT
ATOM      1  N   UNL     1       4.315   4.893  19.390  0.00  0.00    +0.000 NA
ATOM      2  C   UNL     1       4.786   4.842  18.178  0.00  0.00    +0.000 C 
ATOM      3  N   UNL     1       5.949   5.559  17.849  0.00  0.00    +0.000 N 
ATOM      4  C   UNL     1       6.731   6.097  18.985  0.00  0.00    +0.000 C 
ATOM      5  C   UNL     1       8.097   6.691  18.583  0.00  0.00    +0.000 C 
ATOM      6  N   UNL     1       8.070   7.660  17.472  0.00  0.00    +0.000 NA
ATOM      7  C   UNL     1       7.414   6.998  16.330  0.00  0.00    +0.000 C 
ATOM      8  C   UNL     1       6.048   6.309  16.580  0.00  0.00    +0.000 C 
ENDROOT
BRANCH   1  15
ATOM      9  C   UNL     1       4.510   1.939  20.432  0.00  0.00    +0.000 C 
ATOM     10  C   UNL     1       3.302   2.828  20.453  0.00  0.00    +0.000 A 
ATOM     11  C   UNL     1       2.103   2.242  20.928  0.00  0.00    +0.000 A 
ATOM     12  C   UNL     1       0.895   2.935  20.925  0.00  0.00    +0.000 A 
ATOM     13  C   UNL     1       0.870   4.246  20.479  0.00  0.00    +0.000 A 
ATOM     14  C   UNL     1       2.057   4.850  20.055  0.00  0.00    +0.000 A 
ATOM     15  C   UNL     1       3.294   4.172  20.034  0.00  0.00    +0.000 A 
ENDBRANCH   1  15
BRANCH   2  16
ATOM     16  S   UNL     1       4.124   3.837  16.896  0.00  0.00    +0.000 S 
ATOM     17  H   UNL     1       3.376   4.782  16.320  0.00  0.00    +0.000 HD
ENDBRANCH   2  16
BRANCH   6  18
ATOM     18  C   UNL     1       7.425   8.936  17.820  0.00  0.00    +0.000 C 
BRANCH  18  19
ATOM     19  C   UNL     1       8.375  10.050  18.246  0.00  0.00    +0.000 A 
ATOM     20  C   UNL     1       9.316   9.895  19.279  0.00  0.00    +0.000 A 
ATOM     21  C   UNL     1      10.218  10.918  19.597  0.00  0.00    +0.000 A 
ATOM     22  C   UNL     1      10.209  12.106  18.868  0.00  0.00    +0.000 A 
ATOM     23  C   UNL     1       9.298  12.274  17.819  0.00  0.00    +0.000 A 
ATOM     24  C   UNL     1       8.399  11.249  17.513  0.00  0.00    +0.000 A 
ENDBRANCH  18  19
ENDBRANCH   6  18
TORSDOF 4
ENDMDL
MODEL 5
REMARK VINA RESULT:      -6.8      3.046      4.634
REMARK  Name = 
REMARK  5 active torsions:
REMARK  status: ('A' for Active; 'I' for Inactive)
REMARK    1  A    between atoms: C_1  and  C_2
REMARK    2  A    between atoms: C_7  and  N_8
REMARK    3  A    between atoms: C_9  and  S_10
REMARK    4  A    between atoms: N_14  and  C_15
REMARK    5  A    between atoms: C_15  and  C_16
REMARK                            x       y       z     vdW  Elec       q    Type
REMARK                         _______ _______ _______ _____ _____    ______ ____
ROOT
ATOM      1  N   UNL     1       0.989   9.277  18.223  0.00  0.00    +0.000 NA
ATOM      2  C   UNL     1       1.535   8.628  19.211  0.00  0.00    +0.000 C 
ATOM      3  N   UNL     1       2.634   7.786  18.970  0.00  0.00    +0.000 N 
ATOM      4  C   UNL     1       3.285   7.918  17.646  0.00  0.00    +0.000 C 
ATOM      5  C   UNL     1       4.602   7.126  17.511  0.00  0.00    +0.000 C 
ATOM      6  N   UNL     1       4.541   5.710  17.916  0.00  0.00    +0.000 NA
ATOM      7  C   UNL     1       4.029   5.671  19.297  0.00  0.00    +0.000 C 
ATOM      8  C   UNL     1       2.731   6.458  19.611  0.00  0.00    +0.000 C 
ENDROOT
BRANCH   1  15
ATOM      9  C   UNL     1       1.354  12.238  19.197  0.00  0.00    +0.000 C 
ATOM     10  C   UNL     1       0.098  11.606  18.677  0.00  0.00    +0.000 A 
ATOM     11  C   UNL     1      -1.065  12.415  18.699  0.00  0.00    +0.000 A 
ATOM     12  C   UNL     1      -2.310  11.921  18.317  0.00  0.00    +0.000 A 
ATOM     13  C   UNL     1      -2.411  10.615  17.870  0.00  0.00    +0.000 A 
ATOM     14  C   UNL     1      -1.262   9.823  17.797  0.00  0.00    +0.000 A 
ATOM     15  C   UNL     1       0.013  10.287  18.188  0.00  0.00    +0.000 A 
ENDBRANCH   1  15
BRANCH   2  16
ATOM     16  S   UNL     1       1.062   8.799  20.895  0.00  0.00    +0.000 S 
ATOM     17  H   UNL     1      -0.010   9.566  20.685  0.00  0.00    +0.000 HD
ENDBRANCH   2  16
BRANCH   6  18
ATOM     18  C   UNL     1       3.744   4.872  17.005  0.00  0.00    +0.000 C 
BRANCH  18  19
ATOM     19  C   UNL     1       3.034   3.693  17.661  0.00  0.00    +0.000 A 
ATOM     20  C   UNL     1       3.719   2.560  18.137  0.00  0.00    +0.000 A 
ATOM     21  C   UNL     1       3.040   1.526  18.794  0.00  0.00    +0.000 A 
ATOM     22  C   UNL     1       1.666   1.621  19.009  0.00  0.00    +0.000 A 
ATOM     23  C   UNL     1       0.967   2.750  18.567  0.00  0.00    +0.000 A 
ATOM     24  C   UNL     1       1.653   3.773  17.907  0.00  0.00    +0.000 A 
ENDBRANCH  18  19
ENDBRANCH   6  18
TORSDOF 4
ENDMDL
MODEL 6
REMARK VINA RESULT:      -6.8      2.434      8.675
REMARK  Name = 
REMARK  5 active torsions:
REMARK  status: ('A' for Active; 'I' for Inactive)
REMARK    1  A    between atoms: C_1  and  C_2
REMARK    2  A    between atoms: C_7  and  N_8
REMARK    3  A    between atoms: C_9  and  S_10
REMARK    4  A    between atoms: N_14  and  C_15
REMARK    5  A    between atoms: C_15  and  C_16
REMARK                            x       y       z     vdW  Elec       q    Type
REMARK                         _______ _______ _______ _____ _____    ______ ____
ROOT
ATOM      1  N   UNL     1       4.156   6.696  17.779  0.00  0.00    +0.000 NA
ATOM      2  C   UNL     1       3.229   6.528  18.677  0.00  0.00    +0.000 C 
ATOM      3  N   UNL     1       2.254   7.522  18.871  0.00  0.00    +0.000 N 
ATOM      4  C   UNL     1       2.175   8.574  17.832  0.00  0.00    +0.000 C 
ATOM      5  C   UNL     1       0.962   9.515  17.982  0.00  0.00    +0.000 C 
ATOM      6  N   UNL     1       0.767  10.099  19.321  0.00  0.00    +0.000 NA
ATOM      7  C   UNL     1       0.703   8.982  20.280  0.00  0.00    +0.000 C 
ATOM      8  C   UNL     1       1.829   7.918  20.229  0.00  0.00    +0.000 C 
ENDROOT
BRANCH   1  15
ATOM      9  C   UNL     1       6.694   5.659  19.305  0.00  0.00    +0.000 C 
ATOM     10  C   UNL     1       6.327   5.394  17.875  0.00  0.00    +0.000 A 
ATOM     11  C   UNL     1       7.268   4.657  17.115  0.00  0.00    +0.000 A 
ATOM     12  C   UNL     1       7.083   4.411  15.756  0.00  0.00    +0.000 A 
ATOM     13  C   UNL     1       5.931   4.868  15.137  0.00  0.00    +0.000 A 
ATOM     14  C   UNL     1       4.974   5.554  15.890  0.00  0.00    +0.000 A 
ATOM     15  C   UNL     1       5.135   5.830  17.264  0.00  0.00    +0.000 A 
ENDBRANCH   1  15
BRANCH   2  16
ATOM     16  S   UNL     1       3.026   5.067  19.634  0.00  0.00    +0.000 S 
ATOM     17  H   UNL     1       4.069   5.258  20.444  0.00  0.00    +0.000 HD
ENDBRANCH   2  16
BRANCH   6  18
ATOM     18  C   UNL     1       1.796  11.086  19.687  0.00  0.00    +0.000 C 
BRANCH  18  19
ATOM     19  C   UNL     1       1.421  12.542  19.429  0.00  0.00    +0.000 A 
ATOM     20  C   UNL     1       2.341  13.494  18.954  0.00  0.00    +0.000 A 
ATOM     21  C   UNL     1       1.943  14.804  18.665  0.00  0.00    +0.000 A 
ATOM     22  C   UNL     1       0.610  15.179  18.822  0.00  0.00    +0.000 A 
ATOM     23  C   UNL     1      -0.330  14.242  19.269  0.00  0.00    +0.000 A 
ATOM     24  C   UNL     1       0.078  12.938  19.560  0.00  0.00    +0.000 A 
ENDBRANCH  18  19
ENDBRANCH   6  18
TORSDOF 4
ENDMDL
MODEL 7
REMARK VINA RESULT:      -6.8      3.090      4.640
REMARK  Name = 
REMARK  5 active torsions:
REMARK  status: ('A' for Active; 'I' for Inactive)
REMARK    1  A    between atoms: C_1  and  C_2
REMARK    2  A    between atoms: C_7  and  N_8
REMARK    3  A    between atoms: C_9  and  S_10
REMARK    4  A    between atoms: N_14  and  C_15
REMARK    5  A    between atoms: C_15  and  C_16
REMARK                            x       y       z     vdW  Elec       q    Type
REMARK                         _______ _______ _______ _____ _____    ______ ____
ROOT
ATOM      1  N   UNL     1       0.886   9.305  18.221  0.00  0.00    +0.000 NA
ATOM      2  C   UNL     1       1.456   8.687  19.214  0.00  0.00    +0.000 C 
ATOM      3  N   UNL     1       2.566   7.857  18.977  0.00  0.00    +0.000 N 
ATOM      4  C   UNL     1       3.196   7.969  17.642  0.00  0.00    +0.000 C 
ATOM      5  C   UNL     1       4.523   7.196  17.506  0.00  0.00    +0.000 C 
ATOM      6  N   UNL     1       4.491   5.788  17.943  0.00  0.00    +0.000 NA
ATOM      7  C   UNL     1       3.998   5.772  19.332  0.00  0.00    +0.000 C 
ATOM      8  C   UNL     1       2.692   6.546  19.646  0.00  0.00    +0.000 C 
ENDROOT
BRANCH   1  15
ATOM      9  C   UNL     1       1.215  12.290  19.131  0.00  0.00    +0.000 C 
ATOM     10  C   UNL     1      -0.038  11.627  18.638  0.00  0.00    +0.000 A 
ATOM     11  C   UNL     1      -1.212  12.418  18.658  0.00  0.00    +0.000 A 
ATOM     12  C   UNL     1      -2.454  11.898  18.300  0.00  0.00    +0.000 A 
ATOM     13  C   UNL     1      -2.539  10.581  17.880  0.00  0.00    +0.000 A 
ATOM     14  C   UNL     1      -1.378   9.806  17.810  0.00  0.00    +0.000 A 
ATOM     15  C   UNL     1      -0.107  10.298  18.176  0.00  0.00    +0.000 A 
ENDBRANCH   1  15
BRANCH   2  16
ATOM     16  S   UNL     1       1.004   8.888  20.900  0.00  0.00    +0.000 S 
ATOM     17  H   UNL     1       1.604   7.788  21.361  0.00  0.00    +0.000 HD
ENDBRANCH   2  16
BRANCH   6  18
ATOM     18  C   UNL     1       3.695   4.917  17.062  0.00  0.00    +0.000 C 
BRANCH  18  19
ATOM     19  C   UNL     1       2.977   3.768  17.761  0.00  0.00    +0.000 A 
ATOM     20  C   UNL     1       1.589   3.759  17.983  0.00  0.00    +0.000 A 
ATOM     21  C   UNL     1       0.956   2.656  18.569  0.00  0.00    +0.000 A 
ATOM     22  C   UNL     1       1.700   1.530  18.919  0.00  0.00    +0.000 A 
ATOM     23  C   UNL     1       3.080   1.505  18.684  0.00  0.00    +0.000 A 
ATOM     24  C   UNL     1       3.702   2.613  18.105  0.00  0.00    +0.000 A 
ENDBRANCH  18  19
ENDBRANCH   6  18
TORSDOF 4
ENDMDL
MODEL 8
REMARK VINA RESULT:      -6.8      2.565      8.660
REMARK  Name = 
REMARK  5 active torsions:
REMARK  status: ('A' for Active; 'I' for Inactive)
REMARK    1  A    between atoms: C_1  and  C_2
REMARK    2  A    between atoms: C_7  and  N_8
REMARK    3  A    between atoms: C_9  and  S_10
REMARK    4  A    between atoms: N_14  and  C_15
REMARK    5  A    between atoms: C_15  and  C_16
REMARK                            x       y       z     vdW  Elec       q    Type
REMARK                         _______ _______ _______ _____ _____    ______ ____
ROOT
ATOM      1  N   UNL     1       4.035   6.856  17.725  0.00  0.00    +0.000 NA
ATOM      2  C   UNL     1       3.159   6.716  18.677  0.00  0.00    +0.000 C 
ATOM      3  N   UNL     1       2.176   7.701  18.872  0.00  0.00    +0.000 N 
ATOM      4  C   UNL     1       2.022   8.699  17.789  0.00  0.00    +0.000 C 
ATOM      5  C   UNL     1       0.800   9.625  17.956  0.00  0.00    +0.000 C 
ATOM      6  N   UNL     1       0.663  10.271  19.274  0.00  0.00    +0.000 NA
ATOM      7  C   UNL     1       0.670   9.202  20.288  0.00  0.00    +0.000 C 
ATOM      8  C   UNL     1       1.813   8.156  20.230  0.00  0.00    +0.000 C 
ENDROOT
BRANCH   1  15
ATOM      9  C   UNL     1       7.115   7.421  17.518  0.00  0.00    +0.000 C 
ATOM     10  C   UNL     1       6.382   6.212  17.017  0.00  0.00    +0.000 A 
ATOM     11  C   UNL     1       7.156   5.260  16.310  0.00  0.00    +0.000 A 
ATOM     12  C   UNL     1       6.581   4.133  15.727  0.00  0.00    +0.000 A 
ATOM     13  C   UNL     1       5.221   3.917  15.872  0.00  0.00    +0.000 A 
ATOM     14  C   UNL     1       4.456   4.825  16.610  0.00  0.00    +0.000 A 
ATOM     15  C   UNL     1       5.005   5.982  17.203  0.00  0.00    +0.000 A 
ENDBRANCH   1  15
BRANCH   2  16
ATOM     16  S   UNL     1       3.034   5.301  19.713  0.00  0.00    +0.000 S 
ATOM     17  H   UNL     1       4.126   4.676  19.265  0.00  0.00    +0.000 HD
ENDBRANCH   2  16
BRANCH   6  18
ATOM     18  C   UNL     1       1.689  11.293  19.538  0.00  0.00    +0.000 C 
BRANCH  18  19
ATOM     19  C   UNL     1       1.271  12.727  19.230  0.00  0.00    +0.000 A 
ATOM     20  C   UNL     1      -0.059  13.092  18.957  0.00  0.00    +0.000 A 
ATOM     21  C   UNL     1      -0.415  14.429  18.745  0.00  0.00    +0.000 A 
ATOM     22  C   UNL     1       0.553  15.429  18.826  0.00  0.00    +0.000 A 
ATOM     23  C   UNL     1       1.879  15.093  19.121  0.00  0.00    +0.000 A 
ATOM     24  C   UNL     1       2.225  13.755  19.326  0.00  0.00    +0.000 A 
ENDBRANCH  18  19
ENDBRANCH   6  18
TORSDOF 4
ENDMDL
MODEL 9
REMARK VINA RESULT:      -6.8      4.120      8.924
REMARK  Name = 
REMARK  5 active torsions:
REMARK  status: ('A' for Active; 'I' for Inactive)
REMARK    1  A    between atoms: C_1  and  C_2
REMARK    2  A    between atoms: C_7  and  N_8
REMARK    3  A    between atoms: C_9  and  S_10
REMARK    4  A    between atoms: N_14  and  C_15
REMARK    5  A    between atoms: C_15  and  C_16
REMARK                            x       y       z     vdW  Elec       q    Type
REMARK                         _______ _______ _______ _____ _____    ______ ____
ROOT
ATOM      1  N   UNL     1       1.709   6.157  19.656  0.00  0.00    +0.000 NA
ATOM      2  C   UNL     1       2.402   7.055  19.018  0.00  0.00    +0.000 C 
ATOM      3  N   UNL     1       2.041   8.411  19.107  0.00  0.00    +0.000 N 
ATOM      4  C   UNL     1       1.065   8.761  20.164  0.00  0.00    +0.000 C 
ATOM      5  C   UNL     1       0.862  10.278  20.355  0.00  0.00    +0.000 C 
ATOM      6  N   UNL     1       0.589  11.046  19.126  0.00  0.00    +0.000 NA
ATOM      7  C   UNL     1       1.684  10.764  18.181  0.00  0.00    +0.000 C 
ATOM      8  C   UNL     1       2.046   9.281  17.914  0.00  0.00    +0.000 C 
ENDROOT
BRANCH   1  15
ATOM      9  C   UNL     1       1.462   3.873  17.519  0.00  0.00    +0.000 C 
ATOM     10  C   UNL     1       1.756   3.715  18.981  0.00  0.00    +0.000 A 
ATOM     11  C   UNL     1       1.859   2.386  19.458  0.00  0.00    +0.000 A 
ATOM     12  C   UNL     1       2.051   2.103  20.808  0.00  0.00    +0.000 A 
ATOM     13  C   UNL     1       2.181   3.149  21.706  0.00  0.00    +0.000 A 
ATOM     14  C   UNL     1       2.130   4.465  21.238  0.00  0.00    +0.000 A 
ATOM     15  C   UNL     1       1.925   4.787  19.880  0.00  0.00    +0.000 A 
ENDBRANCH   1  15
BRANCH   2  16
ATOM     16  S   UNL     1       3.862   6.716  18.100  0.00  0.00    +0.000 S 
ATOM     17  H   UNL     1       3.497   5.513  17.653  0.00  0.00    +0.000 HD
ENDBRANCH   2  16
BRANCH   6  18
ATOM     18  C   UNL     1      -0.733  10.770  18.542  0.00  0.00    +0.000 C 
BRANCH  18  19
ATOM     19  C   UNL     1      -1.882  11.594  19.114  0.00  0.00    +0.000 A 
ATOM     20  C   UNL     1      -3.200  11.502  18.632  0.00  0.00    +0.000 A 
ATOM     21  C   UNL     1      -4.241  12.225  19.227  0.00  0.00    +0.000 A 
ATOM     22  C   UNL     1      -3.984  13.035  20.332  0.00  0.00    +0.000 A 
ATOM     23  C   UNL     1      -2.685  13.123  20.845  0.00  0.00    +0.000 A 
ATOM     24  C   UNL     1      -1.652  12.401  20.241  0.00  0.00    +0.000 A 
ENDBRANCH  18  19
ENDBRANCH   6  18
TORSDOF 4
ENDMDL
