MODEL 1
REMARK VINA RESULT:      -8.0      0.000      0.000
REMARK  Name = 
REMARK  5 active torsions:
REMARK  status: ('A' for Active; 'I' for Inactive)
REMARK    1  A    between atoms: C_1  and  C_2
REMARK    2  A    between atoms: C_7  and  C_8
REMARK    3  A    between atoms: C_12  and  N_13
REMARK    4  A    between atoms: C_24  and  C_25
REMARK    5  A    between atoms: C_27  and  C_28
REMARK                            x       y       z     vdW  Elec       q    Type
REMARK                         _______ _______ _______ _____ _____    ______ ____
ROOT
ATOM      1  C   UNL     1       1.345   2.165  22.324  0.00  0.00    +0.000 C 
ATOM      2  C   UNL     1       2.122   2.939  21.294  0.00  0.00    +0.000 C 
ATOM      3  O   UNL     1       3.137   2.456  20.811  0.00  0.00    +0.000 OA
ATOM      4  N   UNL     1       1.560   4.175  21.010  0.00  0.00    +0.000 N 
ATOM      5  C   UNL     1       2.052   5.053  20.030  0.00  0.00    +0.000 A 
ATOM      6  C   UNL     1       1.611   6.358  20.026  0.00  0.00    +0.000 A 
ATOM      7  C   UNL     1       2.165   7.204  19.079  0.00  0.00    +0.000 A 
ATOM      8  N   UNL     1       3.061   6.754  18.171  0.00  0.00    +0.000 NA
ATOM      9  C   UNL     1       3.401   5.452  18.210  0.00  0.00    +0.000 A 
ATOM     10  N   UNL     1       4.307   4.937  17.209  0.00  0.00    +0.000 N 
ATOM     11  N   UNL     1       4.879   5.761  16.276  0.00  0.00    +0.000 NA
ATOM     12  C   UNL     1       5.658   4.967  15.538  0.00  0.00    +0.000 A 
ATOM     13  C   UNL     1       6.462   5.512  14.420  0.00  0.00    +0.000 C 
ATOM     14  C   UNL     1       5.590   3.628  15.954  0.00  0.00    +0.000 A 
ATOM     15  C   UNL     1       4.709   3.617  17.014  0.00  0.00    +0.000 A 
ATOM     16  C   UNL     1       4.242   2.465  17.824  0.00  0.00    +0.000 C 
ATOM     17  N   UNL     1       2.922   4.598  19.128  0.00  0.00    +0.000 NA
ATOM     18  H   UNL     1       0.809   4.506  21.597  0.00  0.00    +0.000 HD
ENDROOT
BRANCH   7  19
ATOM     19  C   UNL     1       1.843   8.650  19.009  0.00  0.00    +0.000 A 
ATOM     20  C   UNL     1       2.177   9.419  17.898  0.00  0.00    +0.000 A 
ATOM     21  C   UNL     1       1.892  10.773  17.909  0.00  0.00    +0.000 A 
ATOM     22  C   UNL     1       1.280  11.326  19.027  0.00  0.00    +0.000 A 
ATOM     23  C   UNL     1       0.944  10.524  20.117  0.00  0.00    +0.000 A 
ATOM     24  N   UNL     1       1.221   9.197  20.093  0.00  0.00    +0.000 NA
BRANCH  23  25
ATOM     25  N   UNL     1       0.346  11.043  21.246  0.00  0.00    +0.000 N 
ATOM     26  C   UNL     1       0.283  10.344  22.524  0.00  0.00    +0.000 C 
ATOM     27  C   UNL     1      -1.143  10.419  23.075  0.00  0.00    +0.000 C 
ATOM     28  C   UNL     1      -1.673  11.851  23.106  0.00  0.00    +0.000 C 
ATOM     29  C   UNL     1      -1.524  12.521  21.741  0.00  0.00    +0.000 C 
ATOM     30  C   UNL     1      -0.084  12.439  21.244  0.00  0.00    +0.000 C 
ENDBRANCH  23  25
ENDBRANCH   7  19
TORSDOF 2
ENDMDL
MODEL 2
REMARK VINA RESULT:      -7.9      3.625      8.123
REMARK  Name = 
REMARK  5 active torsions:
REMARK  status: ('A' for Active; 'I' for Inactive)
REMARK    1  A    between atoms: C_1  and  C_2
REMARK    2  A    between atoms: C_7  and  C_8
REMARK    3  A    between atoms: C_12  and  N_13
REMARK    4  A    between atoms: C_24  and  C_25
REMARK    5  A    between atoms: C_27  and  C_28
REMARK                            x       y       z     vdW  Elec       q    Type
REMARK                         _______ _______ _______ _____ _____    ______ ____
ROOT
ATOM      1  C   UNL     1      -1.381  12.779  23.431  0.00  0.00    +0.000 C 
ATOM      2  C   UNL     1      -1.590  12.073  22.119  0.00  0.00    +0.000 C 
ATOM      3  O   UNL     1      -2.696  12.081  21.596  0.00  0.00    +0.000 OA
ATOM      4  N   UNL     1      -0.438  11.463  21.645  0.00  0.00    +0.000 N 
ATOM      5  C   UNL     1      -0.354  10.805  20.406  0.00  0.00    +0.000 A 
ATOM      6  C   UNL     1       0.730   9.992  20.159  0.00  0.00    +0.000 A 
ATOM      7  C   UNL     1       0.745   9.318  18.948  0.00  0.00    +0.000 A 
ATOM      8  N   UNL     1      -0.237   9.492  18.033  0.00  0.00    +0.000 NA
ATOM      9  C   UNL     1      -1.234  10.344  18.332  0.00  0.00    +0.000 A 
ATOM     10  N   UNL     1      -2.259  10.592  17.342  0.00  0.00    +0.000 N 
ATOM     11  N   UNL     1      -2.270   9.923  16.147  0.00  0.00    +0.000 NA
ATOM     12  C   UNL     1      -3.345  10.380  15.500  0.00  0.00    +0.000 A 
ATOM     13  C   UNL     1      -3.701   9.870  14.157  0.00  0.00    +0.000 C 
ATOM     14  C   UNL     1      -4.028  11.359  16.240  0.00  0.00    +0.000 A 
ATOM     15  C   UNL     1      -3.314  11.500  17.410  0.00  0.00    +0.000 A 
ATOM     16  C   UNL     1      -3.568  12.415  18.551  0.00  0.00    +0.000 C 
ATOM     17  N   UNL     1      -1.316  10.995  19.502  0.00  0.00    +0.000 NA
ATOM     18  H   UNL     1       0.362  11.408  22.256  0.00  0.00    +0.000 HD
ENDROOT
BRANCH   7  19
ATOM     19  C   UNL     1       1.808   8.351  18.582  0.00  0.00    +0.000 A 
ATOM     20  C   UNL     1       2.855   8.703  17.736  0.00  0.00    +0.000 A 
ATOM     21  C   UNL     1       3.792   7.745  17.393  0.00  0.00    +0.000 A 
ATOM     22  C   UNL     1       3.663   6.459  17.905  0.00  0.00    +0.000 A 
ATOM     23  C   UNL     1       2.610   6.143  18.763  0.00  0.00    +0.000 A 
ATOM     24  N   UNL     1       1.701   7.092  19.098  0.00  0.00    +0.000 NA
BRANCH  23  25
ATOM     25  N   UNL     1       2.447   4.875  19.278  0.00  0.00    +0.000 N 
ATOM     26  C   UNL     1       1.743   3.803  18.585  0.00  0.00    +0.000 C 
ATOM     27  C   UNL     1       0.765   3.128  19.550  0.00  0.00    +0.000 C 
ATOM     28  C   UNL     1       1.442   2.707  20.853  0.00  0.00    +0.000 C 
ATOM     29  C   UNL     1       2.193   3.877  21.485  0.00  0.00    +0.000 C 
ATOM     30  C   UNL     1       3.169   4.503  20.492  0.00  0.00    +0.000 C 
ENDBRANCH  23  25
ENDBRANCH   7  19
TORSDOF 2
ENDMDL
MODEL 3
REMARK VINA RESULT:      -7.8      0.481      1.032
REMARK  Name = 
REMARK  5 active torsions:
REMARK  status: ('A' for Active; 'I' for Inactive)
REMARK    1  A    between atoms: C_1  and  C_2
REMARK    2  A    between atoms: C_7  and  C_8
REMARK    3  A    between atoms: C_12  and  N_13
REMARK    4  A    between atoms: C_24  and  C_25
REMARK    5  A    between atoms: C_27  and  C_28
REMARK                            x       y       z     vdW  Elec       q    Type
REMARK                         _______ _______ _______ _____ _____    ______ ____
ROOT
ATOM      1  C   UNL     1       1.311   2.380  22.252  0.00  0.00    +0.000 C 
ATOM      2  C   UNL     1       2.106   3.126  21.215  0.00  0.00    +0.000 C 
ATOM      3  O   UNL     1       3.119   2.623  20.750  0.00  0.00    +0.000 OA
ATOM      4  N   UNL     1       1.561   4.363  20.904  0.00  0.00    +0.000 N 
ATOM      5  C   UNL     1       2.072   5.218  19.912  0.00  0.00    +0.000 A 
ATOM      6  C   UNL     1       1.646   6.527  19.880  0.00  0.00    +0.000 A 
ATOM      7  C   UNL     1       2.218   7.349  18.922  0.00  0.00    +0.000 A 
ATOM      8  N   UNL     1       3.117   6.872  18.031  0.00  0.00    +0.000 NA
ATOM      9  C   UNL     1       3.441   5.567  18.097  0.00  0.00    +0.000 A 
ATOM     10  N   UNL     1       4.349   5.023  17.113  0.00  0.00    +0.000 N 
ATOM     11  N   UNL     1       4.938   5.823  16.170  0.00  0.00    +0.000 NA
ATOM     12  C   UNL     1       5.714   5.007  15.453  0.00  0.00    +0.000 A 
ATOM     13  C   UNL     1       6.534   5.521  14.333  0.00  0.00    +0.000 C 
ATOM     14  C   UNL     1       5.626   3.676  15.894  0.00  0.00    +0.000 A 
ATOM     15  C   UNL     1       4.737   3.695  16.945  0.00  0.00    +0.000 A 
ATOM     16  C   UNL     1       4.249   2.563  17.773  0.00  0.00    +0.000 C 
ATOM     17  N   UNL     1       2.943   4.736  19.026  0.00  0.00    +0.000 NA
ATOM     18  H   UNL     1       0.809   4.714  21.478  0.00  0.00    +0.000 HD
ENDROOT
BRANCH   7  19
ATOM     19  C   UNL     1       1.914   8.797  18.823  0.00  0.00    +0.000 A 
ATOM     20  C   UNL     1       2.548   9.614  17.891  0.00  0.00    +0.000 A 
ATOM     21  C   UNL     1       2.257  10.966  17.876  0.00  0.00    +0.000 A 
ATOM     22  C   UNL     1       1.340  11.471  18.790  0.00  0.00    +0.000 A 
ATOM     23  C   UNL     1       0.711  10.622  19.701  0.00  0.00    +0.000 A 
ATOM     24  N   UNL     1       0.998   9.297  19.702  0.00  0.00    +0.000 NA
BRANCH  23  25
ATOM     25  N   UNL     1      -0.195  11.092  20.628  0.00  0.00    +0.000 N 
ATOM     26  C   UNL     1      -0.719  12.453  20.632  0.00  0.00    +0.000 C 
ATOM     27  C   UNL     1      -0.642  13.025  22.049  0.00  0.00    +0.000 C 
ATOM     28  C   UNL     1      -1.279  12.095  23.080  0.00  0.00    +0.000 C 
ATOM     29  C   UNL     1      -0.705  10.683  22.974  0.00  0.00    +0.000 C 
ATOM     30  C   UNL     1      -0.823  10.149  21.549  0.00  0.00    +0.000 C 
ENDBRANCH  23  25
ENDBRANCH   7  19
TORSDOF 2
ENDMDL
MODEL 4
REMARK VINA RESULT:      -7.8      1.564      4.289
REMARK  Name = 
REMARK  5 active torsions:
REMARK  status: ('A' for Active; 'I' for Inactive)
REMARK    1  A    between atoms: C_1  and  C_2
REMARK    2  A    between atoms: C_7  and  C_8
REMARK    3  A    between atoms: C_12  and  N_13
REMARK    4  A    between atoms: C_24  and  C_25
REMARK    5  A    between atoms: C_27  and  C_28
REMARK                            x       y       z     vdW  Elec       q    Type
REMARK                         _______ _______ _______ _____ _____    ______ ____
ROOT
ATOM      1  C   UNL     1       7.111   4.985  14.307  0.00  0.00    +0.000 C 
ATOM      2  C   UNL     1       6.025   4.886  15.343  0.00  0.00    +0.000 C 
ATOM      3  O   UNL     1       5.600   3.787  15.672  0.00  0.00    +0.000 OA
ATOM      4  N   UNL     1       5.615   6.124  15.816  0.00  0.00    +0.000 N 
ATOM      5  C   UNL     1       4.668   6.297  16.840  0.00  0.00    +0.000 A 
ATOM      6  C   UNL     1       4.120   7.545  17.033  0.00  0.00    +0.000 A 
ATOM      7  C   UNL     1       3.150   7.659  18.016  0.00  0.00    +0.000 A 
ATOM      8  N   UNL     1       2.795   6.600  18.781  0.00  0.00    +0.000 NA
ATOM      9  C   UNL     1       3.416   5.427  18.562  0.00  0.00    +0.000 A 
ATOM     10  N   UNL     1       3.098   4.301  19.411  0.00  0.00    +0.000 N 
ATOM     11  N   UNL     1       2.130   4.388  20.375  0.00  0.00    +0.000 NA
ATOM     12  C   UNL     1       2.091   3.181  20.944  0.00  0.00    +0.000 A 
ATOM     13  C   UNL     1       1.139   2.883  22.038  0.00  0.00    +0.000 C 
ATOM     14  C   UNL     1       3.036   2.306  20.385  0.00  0.00    +0.000 A 
ATOM     15  C   UNL     1       3.688   3.038  19.417  0.00  0.00    +0.000 A 
ATOM     16  C   UNL     1       4.801   2.622  18.526  0.00  0.00    +0.000 C 
ATOM     17  N   UNL     1       4.337   5.253  17.601  0.00  0.00    +0.000 NA
ATOM     18  H   UNL     1       5.944   6.951  15.342  0.00  0.00    +0.000 HD
ENDROOT
BRANCH   7  19
ATOM     19  C   UNL     1       2.420   8.922  18.279  0.00  0.00    +0.000 A 
ATOM     20  C   UNL     1       2.655  10.070  17.528  0.00  0.00    +0.000 A 
ATOM     21  C   UNL     1       1.977  11.233  17.849  0.00  0.00    +0.000 A 
ATOM     22  C   UNL     1       1.080  11.222  18.911  0.00  0.00    +0.000 A 
ATOM     23  C   UNL     1       0.856  10.050  19.633  0.00  0.00    +0.000 A 
ATOM     24  N   UNL     1       1.521   8.914  19.305  0.00  0.00    +0.000 NA
BRANCH  23  25
ATOM     25  N   UNL     1      -0.017  10.008  20.699  0.00  0.00    +0.000 N 
ATOM     26  C   UNL     1      -1.073  10.989  20.921  0.00  0.00    +0.000 C 
ATOM     27  C   UNL     1      -1.046  11.444  22.382  0.00  0.00    +0.000 C 
ATOM     28  C   UNL     1      -1.058  10.264  23.352  0.00  0.00    +0.000 C 
ATOM     29  C   UNL     1       0.048   9.266  23.017  0.00  0.00    +0.000 C 
ATOM     30  C   UNL     1      -0.033   8.826  21.558  0.00  0.00    +0.000 C 
ENDBRANCH  23  25
ENDBRANCH   7  19
TORSDOF 2
ENDMDL
MODEL 5
REMARK VINA RESULT:      -7.5      3.665      8.315
REMARK  Name = 
REMARK  5 active torsions:
REMARK  status: ('A' for Active; 'I' for Inactive)
REMARK    1  A    between atoms: C_1  and  C_2
REMARK    2  A    between atoms: C_7  and  C_8
REMARK    3  A    between atoms: C_12  and  N_13
REMARK    4  A    between atoms: C_24  and  C_25
REMARK    5  A    between atoms: C_27  and  C_28
REMARK                            x       y       z     vdW  Elec       q    Type
REMARK                         _______ _______ _______ _____ _____    ______ ____
ROOT
ATOM      1  C   UNL     1      -1.376  12.746  23.437  0.00  0.00    +0.000 C 
ATOM      2  C   UNL     1      -1.591  12.049  22.122  0.00  0.00    +0.000 C 
ATOM      3  O   UNL     1      -2.707  12.032  21.619  0.00  0.00    +0.000 OA
ATOM      4  N   UNL     1      -0.433  11.474  21.619  0.00  0.00    +0.000 N 
ATOM      5  C   UNL     1      -0.354  10.832  20.372  0.00  0.00    +0.000 A 
ATOM      6  C   UNL     1       0.746  10.051  20.096  0.00  0.00    +0.000 A 
ATOM      7  C   UNL     1       0.756   9.390  18.878  0.00  0.00    +0.000 A 
ATOM      8  N   UNL     1      -0.247   9.547  17.984  0.00  0.00    +0.000 NA
ATOM      9  C   UNL     1      -1.261  10.369  18.310  0.00  0.00    +0.000 A 
ATOM     10  N   UNL     1      -2.310  10.600  17.342  0.00  0.00    +0.000 N 
ATOM     11  N   UNL     1      -2.327   9.943  16.141  0.00  0.00    +0.000 NA
ATOM     12  C   UNL     1      -3.426  10.378  15.519  0.00  0.00    +0.000 A 
ATOM     13  C   UNL     1      -3.793   9.872  14.177  0.00  0.00    +0.000 C 
ATOM     14  C   UNL     1      -4.120  11.330  16.282  0.00  0.00    +0.000 A 
ATOM     15  C   UNL     1      -3.388  11.478  17.440  0.00  0.00    +0.000 A 
ATOM     16  C   UNL     1      -3.644  12.374  18.595  0.00  0.00    +0.000 C 
ATOM     17  N   UNL     1      -1.338  11.005  19.489  0.00  0.00    +0.000 NA
ATOM     18  H   UNL     1       0.380  11.434  22.216  0.00  0.00    +0.000 HD
ENDROOT
BRANCH   7  19
ATOM     19  C   UNL     1       1.837   8.455  18.482  0.00  0.00    +0.000 A 
ATOM     20  C   UNL     1       2.932   8.881  17.734  0.00  0.00    +0.000 A 
ATOM     21  C   UNL     1       3.886   7.954  17.355  0.00  0.00    +0.000 A 
ATOM     22  C   UNL     1       3.727   6.626  17.732  0.00  0.00    +0.000 A 
ATOM     23  C   UNL     1       2.626   6.236  18.494  0.00  0.00    +0.000 A 
ATOM     24  N   UNL     1       1.700   7.154  18.867  0.00  0.00    +0.000 NA
BRANCH  23  25
ATOM     25  N   UNL     1       2.431   4.925  18.875  0.00  0.00    +0.000 N 
ATOM     26  C   UNL     1       2.837   4.388  20.168  0.00  0.00    +0.000 C 
ATOM     27  C   UNL     1       3.576   3.063  19.961  0.00  0.00    +0.000 C 
ATOM     28  C   UNL     1       2.782   2.093  19.089  0.00  0.00    +0.000 C 
ATOM     29  C   UNL     1       2.359   2.753  17.777  0.00  0.00    +0.000 C 
ATOM     30  C   UNL     1       1.609   4.057  18.036  0.00  0.00    +0.000 C 
ENDBRANCH  23  25
ENDBRANCH   7  19
TORSDOF 2
ENDMDL
MODEL 6
REMARK VINA RESULT:      -7.5      2.434      4.875
REMARK  Name = 
REMARK  5 active torsions:
REMARK  status: ('A' for Active; 'I' for Inactive)
REMARK    1  A    between atoms: C_1  and  C_2
REMARK    2  A    between atoms: C_7  and  C_8
REMARK    3  A    between atoms: C_12  and  N_13
REMARK    4  A    between atoms: C_24  and  C_25
REMARK    5  A    between atoms: C_27  and  C_28
REMARK                            x       y       z     vdW  Elec       q    Type
REMARK                         _______ _______ _______ _____ _____    ______ ____
ROOT
ATOM      1  C   UNL     1       6.074   6.059  14.967  0.00  0.00    +0.000 C 
ATOM      2  C   UNL     1       5.086   5.697  16.043  0.00  0.00    +0.000 C 
ATOM      3  O   UNL     1       4.808   4.522  16.240  0.00  0.00    +0.000 OA
ATOM      4  N   UNL     1       4.583   6.805  16.709  0.00  0.00    +0.000 N 
ATOM      5  C   UNL     1       3.704   6.729  17.803  0.00  0.00    +0.000 A 
ATOM      6  C   UNL     1       3.041   7.868  18.202  0.00  0.00    +0.000 A 
ATOM      7  C   UNL     1       2.142   7.736  19.248  0.00  0.00    +0.000 A 
ATOM      8  N   UNL     1       1.962   6.552  19.877  0.00  0.00    +0.000 NA
ATOM      9  C   UNL     1       2.687   5.498  19.458  0.00  0.00    +0.000 A 
ATOM     10  N   UNL     1       2.557   4.240  20.158  0.00  0.00    +0.000 N 
ATOM     11  N   UNL     1       1.660   4.085  21.182  0.00  0.00    +0.000 NA
ATOM     12  C   UNL     1       1.794   2.817  21.577  0.00  0.00    +0.000 A 
ATOM     13  C   UNL     1       0.966   2.267  22.674  0.00  0.00    +0.000 C 
ATOM     14  C   UNL     1       2.783   2.141  20.845  0.00  0.00    +0.000 A 
ATOM     15  C   UNL     1       3.277   3.065  19.951  0.00  0.00    +0.000 A 
ATOM     16  C   UNL     1       4.357   2.904  18.946  0.00  0.00    +0.000 C 
ATOM     17  N   UNL     1       3.545   5.563  18.429  0.00  0.00    +0.000 NA
ATOM     18  H   UNL     1       4.785   7.721  16.337  0.00  0.00    +0.000 HD
ENDROOT
BRANCH   7  19
ATOM     19  C   UNL     1       1.302   8.860  19.730  0.00  0.00    +0.000 A 
ATOM     20  C   UNL     1       1.473   9.406  20.999  0.00  0.00    +0.000 A 
ATOM     21  C   UNL     1       0.629  10.422  21.411  0.00  0.00    +0.000 A 
ATOM     22  C   UNL     1      -0.362  10.870  20.547  0.00  0.00    +0.000 A 
ATOM     23  C   UNL     1      -0.496  10.312  19.276  0.00  0.00    +0.000 A 
ATOM     24  N   UNL     1       0.341   9.322  18.879  0.00  0.00    +0.000 NA
BRANCH  23  25
ATOM     25  N   UNL     1      -1.476  10.726  18.399  0.00  0.00    +0.000 N 
ATOM     26  C   UNL     1      -2.239  11.958  18.558  0.00  0.00    +0.000 C 
ATOM     27  C   UNL     1      -3.728  11.665  18.358  0.00  0.00    +0.000 C 
ATOM     28  C   UNL     1      -3.995  10.914  17.055  0.00  0.00    +0.000 C 
ATOM     29  C   UNL     1      -3.121   9.666  16.951  0.00  0.00    +0.000 C 
ATOM     30  C   UNL     1      -1.647  10.011  17.137  0.00  0.00    +0.000 C 
ENDBRANCH  23  25
ENDBRANCH   7  19
TORSDOF 2
ENDMDL
MODEL 7
REMARK VINA RESULT:      -7.5      3.471      8.090
REMARK  Name = 
REMARK  5 active torsions:
REMARK  status: ('A' for Active; 'I' for Inactive)
REMARK    1  A    between atoms: C_1  and  C_2
REMARK    2  A    between atoms: C_7  and  C_8
REMARK    3  A    between atoms: C_12  and  N_13
REMARK    4  A    between atoms: C_24  and  C_25
REMARK    5  A    between atoms: C_27  and  C_28
REMARK                            x       y       z     vdW  Elec       q    Type
REMARK                         _______ _______ _______ _____ _____    ______ ____
ROOT
ATOM      1  C   UNL     1      -4.225  10.463  18.018  0.00  0.00    +0.000 C 
ATOM      2  C   UNL     1      -2.787  10.887  17.900  0.00  0.00    +0.000 C 
ATOM      3  O   UNL     1      -2.518  12.047  17.617  0.00  0.00    +0.000 OA
ATOM      4  N   UNL     1      -1.896   9.850  18.135  0.00  0.00    +0.000 N 
ATOM      5  C   UNL     1      -0.500  10.006  18.158  0.00  0.00    +0.000 A 
ATOM      6  C   UNL     1       0.294   8.882  18.109  0.00  0.00    +0.000 A 
ATOM      7  C   UNL     1       1.665   9.085  18.077  0.00  0.00    +0.000 A 
ATOM      8  N   UNL     1       2.195  10.328  18.141  0.00  0.00    +0.000 NA
ATOM      9  C   UNL     1       1.350  11.370  18.240  0.00  0.00    +0.000 A 
ATOM     10  N   UNL     1       1.897  12.701  18.374  0.00  0.00    +0.000 N 
ATOM     11  N   UNL     1       3.248  12.923  18.327  0.00  0.00    +0.000 NA
ATOM     12  C   UNL     1       3.392  14.243  18.464  0.00  0.00    +0.000 A 
ATOM     13  C   UNL     1       4.733  14.871  18.446  0.00  0.00    +0.000 C 
ATOM     14  C   UNL     1       2.157  14.892  18.625  0.00  0.00    +0.000 A 
ATOM     15  C   UNL     1       1.208  13.895  18.584  0.00  0.00    +0.000 A 
ATOM     16  C   UNL     1      -0.265  14.004  18.727  0.00  0.00    +0.000 C 
ATOM     17  N   UNL     1       0.015  11.233  18.240  0.00  0.00    +0.000 NA
ATOM     18  H   UNL     1      -2.261   8.912  18.205  0.00  0.00    +0.000 HD
ENDROOT
BRANCH   7  19
ATOM     19  C   UNL     1       2.636   7.972  17.944  0.00  0.00    +0.000 A 
ATOM     20  C   UNL     1       3.829   8.125  17.242  0.00  0.00    +0.000 A 
ATOM     21  C   UNL     1       4.675   7.038  17.112  0.00  0.00    +0.000 A 
ATOM     22  C   UNL     1       4.312   5.826  17.687  0.00  0.00    +0.000 A 
ATOM     23  C   UNL     1       3.117   5.711  18.397  0.00  0.00    +0.000 A 
ATOM     24  N   UNL     1       2.299   6.785  18.525  0.00  0.00    +0.000 NA
BRANCH  23  25
ATOM     25  N   UNL     1       2.722   4.520  18.969  0.00  0.00    +0.000 N 
ATOM     26  C   UNL     1       2.541   3.282  18.221  0.00  0.00    +0.000 C 
ATOM     27  C   UNL     1       1.207   2.641  18.612  0.00  0.00    +0.000 C 
ATOM     28  C   UNL     1       1.060   2.498  20.126  0.00  0.00    +0.000 C 
ATOM     29  C   UNL     1       1.313   3.830  20.831  0.00  0.00    +0.000 C 
ATOM     30  C   UNL     1       2.661   4.418  20.425  0.00  0.00    +0.000 C 
ENDBRANCH  23  25
ENDBRANCH   7  19
TORSDOF 2
ENDMDL
MODEL 8
REMARK VINA RESULT:      -7.4      7.563     10.034
REMARK  Name = 
REMARK  5 active torsions:
REMARK  status: ('A' for Active; 'I' for Inactive)
REMARK    1  A    between atoms: C_1  and  C_2
REMARK    2  A    between atoms: C_7  and  C_8
REMARK    3  A    between atoms: C_12  and  N_13
REMARK    4  A    between atoms: C_24  and  C_25
REMARK    5  A    between atoms: C_27  and  C_28
REMARK                            x       y       z     vdW  Elec       q    Type
REMARK                         _______ _______ _______ _____ _____    ______ ____
ROOT
ATOM      1  C   UNL     1      -2.883  10.037  14.524  0.00  0.00    +0.000 C 
ATOM      2  C   UNL     1      -3.339  10.740  15.773  0.00  0.00    +0.000 C 
ATOM      3  O   UNL     1      -4.530  10.960  15.945  0.00  0.00    +0.000 OA
ATOM      4  N   UNL     1      -2.290  11.074  16.618  0.00  0.00    +0.000 N 
ATOM      5  C   UNL     1      -2.460  11.669  17.880  0.00  0.00    +0.000 A 
ATOM      6  C   UNL     1      -1.365  12.220  18.506  0.00  0.00    +0.000 A 
ATOM      7  C   UNL     1      -1.587  12.845  19.723  0.00  0.00    +0.000 A 
ATOM      8  N   UNL     1      -2.816  12.868  20.289  0.00  0.00    +0.000 NA
ATOM      9  C   UNL     1      -3.823  12.260  19.635  0.00  0.00    +0.000 A 
ATOM     10  N   UNL     1      -5.129  12.217  20.253  0.00  0.00    +0.000 N 
ATOM     11  N   UNL     1      -5.373  12.844  21.446  0.00  0.00    +0.000 NA
ATOM     12  C   UNL     1      -6.663  12.617  21.705  0.00  0.00    +0.000 A 
ATOM     13  C   UNL     1      -7.304  13.160  22.924  0.00  0.00    +0.000 C 
ATOM     14  C   UNL     1      -7.267  11.828  20.713  0.00  0.00    +0.000 A 
ATOM     15  C   UNL     1      -6.272  11.563  19.797  0.00  0.00    +0.000 A 
ATOM     16  C   UNL     1      -6.341  10.752  18.556  0.00  0.00    +0.000 C 
ATOM     17  N   UNL     1      -3.670  11.671  18.440  0.00  0.00    +0.000 NA
ATOM     18  H   UNL     1      -1.347  10.969  16.276  0.00  0.00    +0.000 HD
ENDROOT
BRANCH   7  19
ATOM     19  C   UNL     1      -0.517  13.550  20.469  0.00  0.00    +0.000 A 
ATOM     20  C   UNL     1      -0.746  14.100  21.727  0.00  0.00    +0.000 A 
ATOM     21  C   UNL     1       0.278  14.786  22.357  0.00  0.00    +0.000 A 
ATOM     22  C   UNL     1       1.506  14.905  21.716  0.00  0.00    +0.000 A 
ATOM     23  C   UNL     1       1.706  14.329  20.462  0.00  0.00    +0.000 A 
ATOM     24  N   UNL     1       0.698  13.652  19.858  0.00  0.00    +0.000 NA
BRANCH  23  25
ATOM     25  N   UNL     1       2.907  14.439  19.794  0.00  0.00    +0.000 N 
ATOM     26  C   UNL     1       4.189  14.648  20.459  0.00  0.00    +0.000 C 
ATOM     27  C   UNL     1       4.953  15.769  19.752  0.00  0.00    +0.000 C 
ATOM     28  C   UNL     1       5.048  15.539  18.245  0.00  0.00    +0.000 C 
ATOM     29  C   UNL     1       3.668  15.282  17.641  0.00  0.00    +0.000 C 
ATOM     30  C   UNL     1       2.955  14.144  18.365  0.00  0.00    +0.000 C 
ENDBRANCH  23  25
ENDBRANCH   7  19
TORSDOF 2
ENDMDL
MODEL 9
REMARK VINA RESULT:      -7.3      3.236      8.364
REMARK  Name = 
REMARK  5 active torsions:
REMARK  status: ('A' for Active; 'I' for Inactive)
REMARK    1  A    between atoms: C_1  and  C_2
REMARK    2  A    between atoms: C_7  and  C_8
REMARK    3  A    between atoms: C_12  and  N_13
REMARK    4  A    between atoms: C_24  and  C_25
REMARK    5  A    between atoms: C_27  and  C_28
REMARK                            x       y       z     vdW  Elec       q    Type
REMARK                         _______ _______ _______ _____ _____    ______ ____
ROOT
ATOM      1  C   UNL     1      -3.052  11.866  23.584  0.00  0.00    +0.000 C 
ATOM      2  C   UNL     1      -2.109  12.192  22.458  0.00  0.00    +0.000 C 
ATOM      3  O   UNL     1      -2.132  13.306  21.951  0.00  0.00    +0.000 OA
ATOM      4  N   UNL     1      -1.291  11.126  22.114  0.00  0.00    +0.000 N 
ATOM      5  C   UNL     1      -0.275  11.200  21.145  0.00  0.00    +0.000 A 
ATOM      6  C   UNL     1       0.278  10.030  20.673  0.00  0.00    +0.000 A 
ATOM      7  C   UNL     1       1.236  10.146  19.679  0.00  0.00    +0.000 A 
ATOM      8  N   UNL     1       1.641  11.356  19.229  0.00  0.00    +0.000 NA
ATOM      9  C   UNL     1       1.087  12.452  19.779  0.00  0.00    +0.000 A 
ATOM     10  N   UNL     1       1.553  13.754  19.359  0.00  0.00    +0.000 N 
ATOM     11  N   UNL     1       2.486  13.890  18.365  0.00  0.00    +0.000 NA
ATOM     12  C   UNL     1       2.663  15.206  18.228  0.00  0.00    +0.000 A 
ATOM     13  C   UNL     1       3.603  15.748  17.220  0.00  0.00    +0.000 C 
ATOM     14  C   UNL     1       1.880  15.939  19.133  0.00  0.00    +0.000 A 
ATOM     15  C   UNL     1       1.186  15.001  19.865  0.00  0.00    +0.000 A 
ATOM     16  C   UNL     1       0.228  15.210  20.978  0.00  0.00    +0.000 C 
ATOM     17  N   UNL     1       0.132  12.396  20.720  0.00  0.00    +0.000 NA
ATOM     18  H   UNL     1      -1.488  10.221  22.513  0.00  0.00    +0.000 HD
ENDROOT
BRANCH   7  19
ATOM     19  C   UNL     1       1.857   8.970  19.023  0.00  0.00    +0.000 A 
ATOM     20  C   UNL     1       2.303   9.020  17.706  0.00  0.00    +0.000 A 
ATOM     21  C   UNL     1       2.833   7.878  17.132  0.00  0.00    +0.000 A 
ATOM     22  C   UNL     1       2.906   6.713  17.888  0.00  0.00    +0.000 A 
ATOM     23  C   UNL     1       2.464   6.701  19.211  0.00  0.00    +0.000 A 
ATOM     24  N   UNL     1       1.954   7.829  19.765  0.00  0.00    +0.000 NA
BRANCH  23  25
ATOM     25  N   UNL     1       2.512   5.561  19.984  0.00  0.00    +0.000 N 
ATOM     26  C   UNL     1       3.699   4.726  20.125  0.00  0.00    +0.000 C 
ATOM     27  C   UNL     1       3.314   3.257  19.938  0.00  0.00    +0.000 C 
ATOM     28  C   UNL     1       2.141   2.852  20.830  0.00  0.00    +0.000 C 
ATOM     29  C   UNL     1       0.961   3.806  20.652  0.00  0.00    +0.000 C 
ATOM     30  C   UNL     1       1.390   5.255  20.868  0.00  0.00    +0.000 C 
ENDBRANCH  23  25
ENDBRANCH   7  19
TORSDOF 2
ENDMDL
