MODEL 1
REMARK VINA RESULT:      -7.3      0.000      0.000
REMARK  Name = 
REMARK  5 active torsions:
REMARK  status: ('A' for Active; 'I' for Inactive)
REMARK    1  A    between atoms: C_1  and  N_2
REMARK    2  A    between atoms: N_2  and  C_3
REMARK    3  A    between atoms: C_9  and  C_10
REMARK    4  A    between atoms: C_13  and  C_14
REMARK    5  A    between atoms: C_14  and  N_15
REMARK                            x       y       z     vdW  Elec       q    Type
REMARK                         _______ _______ _______ _____ _____    ______ ____
ROOT
ATOM      1  C   UNL     1       2.013   7.324  19.814  0.00  0.00    +0.000 A 
ATOM      2  C   UNL     1       2.000   6.076  20.454  0.00  0.00    +0.000 A 
ATOM      3  C   UNL     1       2.539   4.946  19.826  0.00  0.00    +0.000 A 
ATOM      4  C   UNL     1       3.114   5.040  18.550  0.00  0.00    +0.000 A 
ATOM      5  C   UNL     1       3.133   6.286  17.915  0.00  0.00    +0.000 A 
ATOM      6  C   UNL     1       2.598   7.415  18.542  0.00  0.00    +0.000 A 
ENDROOT
BRANCH   1  15
ATOM      7  C   UNL     1      -0.784  13.566  19.681  0.00  0.00    +0.000 C 
ATOM      8  N   UNL     1      -0.467  12.152  19.815  0.00  0.00    +0.000 N 
ATOM      9  C   UNL     1      -1.434  11.186  19.318  0.00  0.00    +0.000 C 
ATOM     10  C   UNL     1       0.539  11.831  20.746  0.00  0.00    +0.000 C 
ATOM     11  O   UNL     1       1.131  12.632  21.461  0.00  0.00    +0.000 OA
ATOM     12  N   UNL     1       0.817  10.452  20.867  0.00  0.00    +0.000 N 
ATOM     13  N   UNL     1       0.905   9.844  22.080  0.00  0.00    +0.000 NA
ATOM     14  N   UNL     1       1.270   8.596  21.813  0.00  0.00    +0.000 NA
ATOM     15  C   UNL     1       1.461   8.513  20.460  0.00  0.00    +0.000 A 
ATOM     16  N   UNL     1       1.113   9.642  19.811  0.00  0.00    +0.000 NA
ENDBRANCH   1  15
BRANCH   4  17
ATOM     17  C   UNL     1       3.702   3.824  17.875  0.00  0.00    +0.000 C 
BRANCH  17  18
ATOM     18  N   UNL     1       5.047   4.058  17.365  0.00  0.00    +0.000 N 
ATOM     19  C   UNL     1       6.131   4.418  18.124  0.00  0.00    +0.000 A 
ATOM     20  C   UNL     1       7.178   4.696  17.271  0.00  0.00    +0.000 A 
ATOM     21  C   UNL     1       6.713   4.489  15.952  0.00  0.00    +0.000 A 
ATOM     22  C   UNL     1       5.397   4.091  16.036  0.00  0.00    +0.000 A 
ENDBRANCH  17  18
ENDBRANCH   4  17
TORSDOF 3
ENDMDL
MODEL 2
REMARK VINA RESULT:      -7.3      0.088      1.031
REMARK  Name = 
REMARK  5 active torsions:
REMARK  status: ('A' for Active; 'I' for Inactive)
REMARK    1  A    between atoms: C_1  and  N_2
REMARK    2  A    between atoms: N_2  and  C_3
REMARK    3  A    between atoms: C_9  and  C_10
REMARK    4  A    between atoms: C_13  and  C_14
REMARK    5  A    between atoms: C_14  and  N_15
REMARK                            x       y       z     vdW  Elec       q    Type
REMARK                         _______ _______ _______ _____ _____    ______ ____
ROOT
ATOM      1  C   UNL     1       2.069   7.400  19.748  0.00  0.00    +0.000 A 
ATOM      2  C   UNL     1       2.607   7.490  18.456  0.00  0.00    +0.000 A 
ATOM      3  C   UNL     1       3.152   6.361  17.829  0.00  0.00    +0.000 A 
ATOM      4  C   UNL     1       3.159   5.116  18.475  0.00  0.00    +0.000 A 
ATOM      5  C   UNL     1       2.615   5.025  19.760  0.00  0.00    +0.000 A 
ATOM      6  C   UNL     1       2.069   6.151  20.385  0.00  0.00    +0.000 A 
ENDROOT
BRANCH   1  15
ATOM      7  C   UNL     1      -0.866  13.579  19.702  0.00  0.00    +0.000 C 
ATOM      8  N   UNL     1      -0.517  12.171  19.817  0.00  0.00    +0.000 N 
ATOM      9  C   UNL     1      -1.465  11.191  19.311  0.00  0.00    +0.000 C 
ATOM     10  C   UNL     1       0.498  11.861  20.742  0.00  0.00    +0.000 C 
ATOM     11  O   UNL     1       1.074  12.665  21.465  0.00  0.00    +0.000 OA
ATOM     12  N   UNL     1       0.807  10.487  20.844  0.00  0.00    +0.000 N 
ATOM     13  N   UNL     1       0.912   9.866  22.049  0.00  0.00    +0.000 NA
ATOM     14  N   UNL     1       1.304   8.629  21.765  0.00  0.00    +0.000 NA
ATOM     15  C   UNL     1       1.492   8.568  20.411  0.00  0.00    +0.000 A 
ATOM     16  N   UNL     1       1.118   9.698  19.777  0.00  0.00    +0.000 NA
ENDBRANCH   1  15
BRANCH   4  17
ATOM     17  C   UNL     1       3.738   3.897  17.797  0.00  0.00    +0.000 C 
BRANCH  17  18
ATOM     18  N   UNL     1       5.094   4.114  17.310  0.00  0.00    +0.000 N 
ATOM     19  C   UNL     1       6.171   4.452  18.089  0.00  0.00    +0.000 A 
ATOM     20  C   UNL     1       7.235   4.720  17.255  0.00  0.00    +0.000 A 
ATOM     21  C   UNL     1       6.789   4.527  15.927  0.00  0.00    +0.000 A 
ATOM     22  C   UNL     1       5.466   4.149  15.987  0.00  0.00    +0.000 A 
ENDBRANCH  17  18
ENDBRANCH   4  17
TORSDOF 3
ENDMDL
MODEL 3
REMARK VINA RESULT:      -7.0      1.584      1.787
REMARK  Name = 
REMARK  5 active torsions:
REMARK  status: ('A' for Active; 'I' for Inactive)
REMARK    1  A    between atoms: C_1  and  N_2
REMARK    2  A    between atoms: N_2  and  C_3
REMARK    3  A    between atoms: C_9  and  C_10
REMARK    4  A    between atoms: C_13  and  C_14
REMARK    5  A    between atoms: C_14  and  N_15
REMARK                            x       y       z     vdW  Elec       q    Type
REMARK                         _______ _______ _______ _____ _____    ______ ____
ROOT
ATOM      1  C   UNL     1       1.548   8.303  19.821  0.00  0.00    +0.000 A 
ATOM      2  C   UNL     1       1.976   7.046  20.273  0.00  0.00    +0.000 A 
ATOM      3  C   UNL     1       2.820   6.253  19.484  0.00  0.00    +0.000 A 
ATOM      4  C   UNL     1       3.264   6.704  18.232  0.00  0.00    +0.000 A 
ATOM      5  C   UNL     1       2.843   7.961  17.785  0.00  0.00    +0.000 A 
ATOM      6  C   UNL     1       2.003   8.753  18.573  0.00  0.00    +0.000 A 
ENDROOT
BRANCH   1  15
ATOM      7  C   UNL     1      -1.824  14.115  21.106  0.00  0.00    +0.000 C 
ATOM      8  N   UNL     1      -1.390  12.761  20.795  0.00  0.00    +0.000 N 
ATOM      9  C   UNL     1      -2.019  12.085  19.671  0.00  0.00    +0.000 C 
ATOM     10  C   UNL     1      -0.702  12.084  21.820  0.00  0.00    +0.000 C 
ATOM     11  O   UNL     1      -0.475  12.527  22.940  0.00  0.00    +0.000 OA
ATOM     12  N   UNL     1      -0.306  10.767  21.498  0.00  0.00    +0.000 N 
ATOM     13  N   UNL     1      -0.534   9.726  22.342  0.00  0.00    +0.000 NA
ATOM     14  N   UNL     1       0.051   8.682  21.766  0.00  0.00    +0.000 NA
ATOM     15  C   UNL     1       0.672   9.143  20.636  0.00  0.00    +0.000 A 
ATOM     16  N   UNL     1       0.411  10.441  20.386  0.00  0.00    +0.000 NA
ENDBRANCH   1  15
BRANCH   4  17
ATOM     17  C   UNL     1       4.181   5.854  17.385  0.00  0.00    +0.000 C 
BRANCH  17  18
ATOM     18  N   UNL     1       5.589   6.056  17.701  0.00  0.00    +0.000 N 
ATOM     19  C   UNL     1       6.292   5.368  18.657  0.00  0.00    +0.000 A 
ATOM     20  C   UNL     1       7.540   5.943  18.767  0.00  0.00    +0.000 A 
ATOM     21  C   UNL     1       7.596   7.009  17.839  0.00  0.00    +0.000 A 
ATOM     22  C   UNL     1       6.382   7.055  17.191  0.00  0.00    +0.000 A 
ENDBRANCH  17  18
ENDBRANCH   4  17
TORSDOF 3
ENDMDL
MODEL 4
REMARK VINA RESULT:      -7.0      2.292      3.609
REMARK  Name = 
REMARK  5 active torsions:
REMARK  status: ('A' for Active; 'I' for Inactive)
REMARK    1  A    between atoms: C_1  and  N_2
REMARK    2  A    between atoms: N_2  and  C_3
REMARK    3  A    between atoms: C_9  and  C_10
REMARK    4  A    between atoms: C_13  and  C_14
REMARK    5  A    between atoms: C_14  and  N_15
REMARK                            x       y       z     vdW  Elec       q    Type
REMARK                         _______ _______ _______ _____ _____    ______ ____
ROOT
ATOM      1  C   UNL     1       1.408   9.018  19.382  0.00  0.00    +0.000 A 
ATOM      2  C   UNL     1       1.957   8.757  18.118  0.00  0.00    +0.000 A 
ATOM      3  C   UNL     1       2.634   7.556  17.867  0.00  0.00    +0.000 A 
ATOM      4  C   UNL     1       2.766   6.585  18.871  0.00  0.00    +0.000 A 
ATOM      5  C   UNL     1       2.212   6.842  20.129  0.00  0.00    +0.000 A 
ATOM      6  C   UNL     1       1.534   8.040  20.379  0.00  0.00    +0.000 A 
ENDROOT
BRANCH   1  15
ATOM      7  C   UNL     1      -3.457  12.673  22.508  0.00  0.00    +0.000 C 
ATOM      8  N   UNL     1      -2.230  12.063  22.018  0.00  0.00    +0.000 N 
ATOM      9  C   UNL     1      -1.225  11.675  22.995  0.00  0.00    +0.000 C 
ATOM     10  C   UNL     1      -1.949  12.254  20.652  0.00  0.00    +0.000 C 
ATOM     11  O   UNL     1      -2.627  12.909  19.869  0.00  0.00    +0.000 OA
ATOM     12  N   UNL     1      -0.745  11.665  20.206  0.00  0.00    +0.000 N 
ATOM     13  N   UNL     1       0.152  12.355  19.454  0.00  0.00    +0.000 NA
ATOM     14  N   UNL     1       1.092  11.469  19.143  0.00  0.00    +0.000 NA
ATOM     15  C   UNL     1       0.694  10.264  19.655  0.00  0.00    +0.000 A 
ATOM     16  N   UNL     1      -0.425  10.354  20.401  0.00  0.00    +0.000 NA
ENDBRANCH   1  15
BRANCH   4  17
ATOM     17  C   UNL     1       3.488   5.287  18.600  0.00  0.00    +0.000 C 
BRANCH  17  18
ATOM     18  N   UNL     1       2.654   4.117  18.844  0.00  0.00    +0.000 N 
ATOM     19  C   UNL     1       1.519   3.794  18.146  0.00  0.00    +0.000 A 
ATOM     20  C   UNL     1       0.928   2.713  18.766  0.00  0.00    +0.000 A 
ATOM     21  C   UNL     1       1.740   2.364  19.870  0.00  0.00    +0.000 A 
ATOM     22  C   UNL     1       2.801   3.243  19.895  0.00  0.00    +0.000 A 
ENDBRANCH  17  18
ENDBRANCH   4  17
TORSDOF 3
ENDMDL
MODEL 5
REMARK VINA RESULT:      -7.0      3.313      8.313
REMARK  Name = 
REMARK  5 active torsions:
REMARK  status: ('A' for Active; 'I' for Inactive)
REMARK    1  A    between atoms: C_1  and  N_2
REMARK    2  A    between atoms: N_2  and  C_3
REMARK    3  A    between atoms: C_9  and  C_10
REMARK    4  A    between atoms: C_13  and  C_14
REMARK    5  A    between atoms: C_14  and  N_15
REMARK                            x       y       z     vdW  Elec       q    Type
REMARK                         _______ _______ _______ _____ _____    ______ ____
ROOT
ATOM      1  C   UNL     1       2.245   7.899  18.734  0.00  0.00    +0.000 A 
ATOM      2  C   UNL     1       1.687   8.082  20.008  0.00  0.00    +0.000 A 
ATOM      3  C   UNL     1       0.834   9.164  20.265  0.00  0.00    +0.000 A 
ATOM      4  C   UNL     1       0.512  10.079  19.252  0.00  0.00    +0.000 A 
ATOM      5  C   UNL     1       1.063   9.892  17.980  0.00  0.00    +0.000 A 
ATOM      6  C   UNL     1       1.911   8.811  17.722  0.00  0.00    +0.000 A 
ENDROOT
BRANCH   1  15
ATOM      7  C   UNL     1       3.784   1.233  18.734  0.00  0.00    +0.000 C 
ATOM      8  N   UNL     1       3.447   2.615  18.427  0.00  0.00    +0.000 N 
ATOM      9  C   UNL     1       2.393   2.860  17.455  0.00  0.00    +0.000 C 
ATOM     10  C   UNL     1       4.410   3.578  18.784  0.00  0.00    +0.000 C 
ATOM     11  O   UNL     1       5.500   3.343  19.292  0.00  0.00    +0.000 OA
ATOM     12  N   UNL     1       4.065   4.910  18.461  0.00  0.00    +0.000 N 
ATOM     13  N   UNL     1       4.935   5.740  17.830  0.00  0.00    +0.000 NA
ATOM     14  N   UNL     1       4.317   6.915  17.783  0.00  0.00    +0.000 NA
ATOM     15  C   UNL     1       3.131   6.771  18.451  0.00  0.00    +0.000 A 
ATOM     16  N   UNL     1       2.894   5.500  18.832  0.00  0.00    +0.000 NA
ENDBRANCH   1  15
BRANCH   4  17
ATOM     17  C   UNL     1      -0.413  11.241  19.526  0.00  0.00    +0.000 C 
BRANCH  17  18
ATOM     18  N   UNL     1      -1.736  11.058  18.942  0.00  0.00    +0.000 N 
ATOM     19  C   UNL     1      -2.100  10.027  18.113  0.00  0.00    +0.000 A 
ATOM     20  C   UNL     1      -3.373  10.282  17.648  0.00  0.00    +0.000 A 
ATOM     21  C   UNL     1      -3.796  11.502  18.222  0.00  0.00    +0.000 A 
ATOM     22  C   UNL     1      -2.770  11.960  19.021  0.00  0.00    +0.000 A 
ENDBRANCH  17  18
ENDBRANCH   4  17
TORSDOF 3
ENDMDL
MODEL 6
REMARK VINA RESULT:      -7.0      1.684      2.207
REMARK  Name = 
REMARK  5 active torsions:
REMARK  status: ('A' for Active; 'I' for Inactive)
REMARK    1  A    between atoms: C_1  and  N_2
REMARK    2  A    between atoms: N_2  and  C_3
REMARK    3  A    between atoms: C_9  and  C_10
REMARK    4  A    between atoms: C_13  and  C_14
REMARK    5  A    between atoms: C_14  and  N_15
REMARK                            x       y       z     vdW  Elec       q    Type
REMARK                         _______ _______ _______ _____ _____    ______ ____
ROOT
ATOM      1  C   UNL     1       1.395   8.462  19.978  0.00  0.00    +0.000 A 
ATOM      2  C   UNL     1       1.789   8.876  18.697  0.00  0.00    +0.000 A 
ATOM      3  C   UNL     1       2.621   8.069  17.909  0.00  0.00    +0.000 A 
ATOM      4  C   UNL     1       3.067   6.826  18.380  0.00  0.00    +0.000 A 
ATOM      5  C   UNL     1       2.669   6.409  19.654  0.00  0.00    +0.000 A 
ATOM      6  C   UNL     1       1.837   7.213  20.440  0.00  0.00    +0.000 A 
ENDROOT
BRANCH   1  15
ATOM      7  C   UNL     1      -1.990  14.248  21.342  0.00  0.00    +0.000 C 
ATOM      8  N   UNL     1      -1.553  12.898  21.016  0.00  0.00    +0.000 N 
ATOM      9  C   UNL     1      -2.187  12.230  19.890  0.00  0.00    +0.000 C 
ATOM     10  C   UNL     1      -0.856  12.214  22.029  0.00  0.00    +0.000 C 
ATOM     11  O   UNL     1      -0.623  12.647  23.152  0.00  0.00    +0.000 OA
ATOM     12  N   UNL     1      -0.457  10.902  21.692  0.00  0.00    +0.000 N 
ATOM     13  N   UNL     1      -0.675   9.852  22.527  0.00  0.00    +0.000 NA
ATOM     14  N   UNL     1      -0.089   8.816  21.937  0.00  0.00    +0.000 NA
ATOM     15  C   UNL     1       0.523   9.290  20.808  0.00  0.00    +0.000 A 
ATOM     16  N   UNL     1       0.254  10.590  20.571  0.00  0.00    +0.000 NA
ENDBRANCH   1  15
BRANCH   4  17
ATOM     17  C   UNL     1       3.957   5.952  17.529  0.00  0.00    +0.000 C 
BRANCH  17  18
ATOM     18  N   UNL     1       5.374   6.148  17.809  0.00  0.00    +0.000 N 
ATOM     19  C   UNL     1       6.199   7.021  17.147  0.00  0.00    +0.000 A 
ATOM     20  C   UNL     1       7.488   6.810  17.588  0.00  0.00    +0.000 A 
ATOM     21  C   UNL     1       7.439   5.780  18.555  0.00  0.00    +0.000 A 
ATOM     22  C   UNL     1       6.123   5.391  18.677  0.00  0.00    +0.000 A 
ENDBRANCH  17  18
ENDBRANCH   4  17
TORSDOF 3
ENDMDL
MODEL 7
REMARK VINA RESULT:      -7.0      1.982      2.916
REMARK  Name = 
REMARK  5 active torsions:
REMARK  status: ('A' for Active; 'I' for Inactive)
REMARK    1  A    between atoms: C_1  and  N_2
REMARK    2  A    between atoms: N_2  and  C_3
REMARK    3  A    between atoms: C_9  and  C_10
REMARK    4  A    between atoms: C_13  and  C_14
REMARK    5  A    between atoms: C_14  and  N_15
REMARK                            x       y       z     vdW  Elec       q    Type
REMARK                         _______ _______ _______ _____ _____    ______ ____
ROOT
ATOM      1  C   UNL     1       1.118   8.990  20.387  0.00  0.00    +0.000 A 
ATOM      2  C   UNL     1       1.342   9.352  19.051  0.00  0.00    +0.000 A 
ATOM      3  C   UNL     1       2.038   8.497  18.186  0.00  0.00    +0.000 A 
ATOM      4  C   UNL     1       2.514   7.257  18.634  0.00  0.00    +0.000 A 
ATOM      5  C   UNL     1       2.284   6.892  19.965  0.00  0.00    +0.000 A 
ATOM      6  C   UNL     1       1.587   7.744  20.828  0.00  0.00    +0.000 A 
ENDROOT
BRANCH   1  15
ATOM      7  C   UNL     1      -2.335  14.713  21.843  0.00  0.00    +0.000 C 
ATOM      8  N   UNL     1      -1.874  13.359  21.577  0.00  0.00    +0.000 N 
ATOM      9  C   UNL     1      -2.687  12.520  20.710  0.00  0.00    +0.000 C 
ATOM     10  C   UNL     1      -0.915  12.847  22.472  0.00  0.00    +0.000 C 
ATOM     11  O   UNL     1      -0.473  13.431  23.454  0.00  0.00    +0.000 OA
ATOM     12  N   UNL     1      -0.497  11.526  22.200  0.00  0.00    +0.000 N 
ATOM     13  N   UNL     1      -0.437  10.580  23.174  0.00  0.00    +0.000 NA
ATOM     14  N   UNL     1       0.084   9.511  22.584  0.00  0.00    +0.000 NA
ATOM     15  C   UNL     1       0.388   9.869  21.298  0.00  0.00    +0.000 A 
ATOM     16  N   UNL     1      -0.030  11.112  20.987  0.00  0.00    +0.000 NA
ENDBRANCH   1  15
BRANCH   4  17
ATOM     17  C   UNL     1       3.257   6.331  17.701  0.00  0.00    +0.000 C 
BRANCH  17  18
ATOM     18  N   UNL     1       2.947   4.927  17.936  0.00  0.00    +0.000 N 
ATOM     19  C   UNL     1       3.867   3.947  18.212  0.00  0.00    +0.000 A 
ATOM     20  C   UNL     1       3.212   2.734  18.216  0.00  0.00    +0.000 A 
ATOM     21  C   UNL     1       1.849   2.989  17.942  0.00  0.00    +0.000 A 
ATOM     22  C   UNL     1       1.709   4.350  17.777  0.00  0.00    +0.000 A 
ENDBRANCH  17  18
ENDBRANCH   4  17
TORSDOF 3
ENDMDL
MODEL 8
REMARK VINA RESULT:      -7.0      2.668      3.989
REMARK  Name = 
REMARK  5 active torsions:
REMARK  status: ('A' for Active; 'I' for Inactive)
REMARK    1  A    between atoms: C_1  and  N_2
REMARK    2  A    between atoms: N_2  and  C_3
REMARK    3  A    between atoms: C_9  and  C_10
REMARK    4  A    between atoms: C_13  and  C_14
REMARK    5  A    between atoms: C_14  and  N_15
REMARK                            x       y       z     vdW  Elec       q    Type
REMARK                         _______ _______ _______ _____ _____    ______ ____
ROOT
ATOM      1  C   UNL     1       1.192   9.305  19.102  0.00  0.00    +0.000 A 
ATOM      2  C   UNL     1       1.871   8.727  18.019  0.00  0.00    +0.000 A 
ATOM      3  C   UNL     1       2.567   7.521  18.174  0.00  0.00    +0.000 A 
ATOM      4  C   UNL     1       2.588   6.859  19.411  0.00  0.00    +0.000 A 
ATOM      5  C   UNL     1       1.905   7.432  20.488  0.00  0.00    +0.000 A 
ATOM      6  C   UNL     1       1.208   8.635  20.334  0.00  0.00    +0.000 A 
ENDROOT
BRANCH   1  15
ATOM      7  C   UNL     1       0.369  16.021  20.113  0.00  0.00    +0.000 C 
ATOM      8  N   UNL     1       0.584  14.675  19.603  0.00  0.00    +0.000 N 
ATOM      9  C   UNL     1       1.685  14.465  18.676  0.00  0.00    +0.000 C 
ATOM     10  C   UNL     1      -0.502  13.788  19.729  0.00  0.00    +0.000 C 
ATOM     11  O   UNL     1      -1.600  14.066  20.196  0.00  0.00    +0.000 OA
ATOM     12  N   UNL     1      -0.273  12.494  19.212  0.00  0.00    +0.000 N 
ATOM     13  N   UNL     1      -1.169  11.882  18.394  0.00  0.00    +0.000 NA
ATOM     14  N   UNL     1      -0.676  10.665  18.193  0.00  0.00    +0.000 NA
ATOM     15  C   UNL     1       0.458  10.560  18.952  0.00  0.00    +0.000 A 
ATOM     16  N   UNL     1       0.794  11.718  19.556  0.00  0.00    +0.000 NA
ENDBRANCH   1  15
BRANCH   4  17
ATOM     17  C   UNL     1       3.330   5.555  19.577  0.00  0.00    +0.000 C 
BRANCH  17  18
ATOM     18  N   UNL     1       2.448   4.443  19.907  0.00  0.00    +0.000 N 
ATOM     19  C   UNL     1       1.544   3.868  19.050  0.00  0.00    +0.000 A 
ATOM     20  C   UNL     1       0.793   2.960  19.766  0.00  0.00    +0.000 A 
ATOM     21  C   UNL     1       1.266   2.979  21.098  0.00  0.00    +0.000 A 
ATOM     22  C   UNL     1       2.290   3.899  21.159  0.00  0.00    +0.000 A 
ENDBRANCH  17  18
ENDBRANCH   4  17
TORSDOF 3
ENDMDL
MODEL 9
REMARK VINA RESULT:      -7.0      3.152      8.253
REMARK  Name = 
REMARK  5 active torsions:
REMARK  status: ('A' for Active; 'I' for Inactive)
REMARK    1  A    between atoms: C_1  and  N_2
REMARK    2  A    between atoms: N_2  and  C_3
REMARK    3  A    between atoms: C_9  and  C_10
REMARK    4  A    between atoms: C_13  and  C_14
REMARK    5  A    between atoms: C_14  and  N_15
REMARK                            x       y       z     vdW  Elec       q    Type
REMARK                         _______ _______ _______ _____ _____    ______ ____
ROOT
ATOM      1  C   UNL     1       2.193   7.836  18.970  0.00  0.00    +0.000 A 
ATOM      2  C   UNL     1       1.562   8.069  20.200  0.00  0.00    +0.000 A 
ATOM      3  C   UNL     1       0.719   9.175  20.372  0.00  0.00    +0.000 A 
ATOM      4  C   UNL     1       0.477  10.064  19.315  0.00  0.00    +0.000 A 
ATOM      5  C   UNL     1       1.101   9.827  18.085  0.00  0.00    +0.000 A 
ATOM      6  C   UNL     1       1.941   8.722  17.912  0.00  0.00    +0.000 A 
ENDROOT
BRANCH   1  15
ATOM      7  C   UNL     1       7.049   4.399  15.592  0.00  0.00    +0.000 C 
ATOM      8  N   UNL     1       6.232   5.154  16.530  0.00  0.00    +0.000 N 
ATOM      9  C   UNL     1       6.831   6.311  17.177  0.00  0.00    +0.000 C 
ATOM     10  C   UNL     1       5.092   4.493  17.026  0.00  0.00    +0.000 C 
ATOM     11  O   UNL     1       4.761   3.344  16.758  0.00  0.00    +0.000 OA
ATOM     12  N   UNL     1       4.326   5.242  17.946  0.00  0.00    +0.000 N 
ATOM     13  N   UNL     1       3.906   4.712  19.125  0.00  0.00    +0.000 NA
ATOM     14  N   UNL     1       3.144   5.652  19.672  0.00  0.00    +0.000 NA
ATOM     15  C   UNL     1       3.070   6.683  18.775  0.00  0.00    +0.000 A 
ATOM     16  N   UNL     1       3.863   6.501  17.700  0.00  0.00    +0.000 NA
ENDBRANCH   1  15
BRANCH   4  17
ATOM     17  C   UNL     1      -0.438  11.251  19.496  0.00  0.00    +0.000 C 
BRANCH  17  18
ATOM     18  N   UNL     1      -1.707  11.096  18.798  0.00  0.00    +0.000 N 
ATOM     19  C   UNL     1      -2.808  11.896  18.968  0.00  0.00    +0.000 A 
ATOM     20  C   UNL     1      -3.853  11.344  18.257  0.00  0.00    +0.000 A 
ATOM     21  C   UNL     1      -3.364  10.176  17.629  0.00  0.00    +0.000 A 
ATOM     22  C   UNL     1      -2.037  10.046  17.974  0.00  0.00    +0.000 A 
ENDBRANCH  17  18
ENDBRANCH   4  17
TORSDOF 3
ENDMDL
