MODEL 1
REMARK VINA RESULT:      -6.9      0.000      0.000
REMARK  Name = 
REMARK  12 active torsions:
REMARK  status: ('A' for Active; 'I' for Inactive)
REMARK    1  A    between atoms: C_1  and  C_2
REMARK    2  A    between atoms: C_4  and  C_5
REMARK    3  A    between atoms: C_7  and  C_8
REMARK    4  A    between atoms: C_8  and  C_9
REMARK    5  A    between atoms: C_9  and  C_10
REMARK    6  A    between atoms: C_9  and  N_11
REMARK    7  A    between atoms: N_11  and  C_12
REMARK    8  A    between atoms: C_13  and  O_15
REMARK    9  A    between atoms: O_15  and  C_16
REMARK   10  A    between atoms: C_16  and  C_17
REMARK   11  A    between atoms: C_16  and  C_18
REMARK   12  A    between atoms: C_16  and  C_19
REMARK                            x       y       z     vdW  Elec       q    Type
REMARK                         _______ _______ _______ _____ _____    ______ ____
ROOT
ATOM      1  C   UNL     1       6.100   6.405  16.513  0.00  0.00    +0.000 C 
ENDROOT
BRANCH   1   4
ATOM      2  C   UNL     1       8.132   8.683  18.254  0.00  0.00    +0.000 A 
ATOM      3  N   UNL     1       7.114   8.483  17.438  0.00  0.00    +0.000 NA
ATOM      4  C   UNL     1       6.971   7.119  17.476  0.00  0.00    +0.000 A 
ATOM      5  N   UNL     1       7.806   6.490  18.311  0.00  0.00    +0.000 NA
ATOM      6  O   UNL     1       8.566   7.528  18.847  0.00  0.00    +0.000 OA
BRANCH   2  10
ATOM      7  C   UNL     1       8.978  13.537  17.573  0.00  0.00    +0.000 C 
ATOM      8  C   UNL     1       9.130  12.164  18.119  0.00  0.00    +0.000 A 
ATOM      9  N   UNL     1       8.479  11.110  17.674  0.00  0.00    +0.000 NA
ATOM     10  C   UNL     1       8.794  10.007  18.450  0.00  0.00    +0.000 A 
ATOM     11  C   UNL     1       9.720  10.230  19.448  0.00  0.00    +0.000 A 
ATOM     12  S   UNL     1      10.197  11.875  19.438  0.00  0.00    +0.000 S 
ENDBRANCH   2  10
ENDBRANCH   1   4
BRANCH   1  13
ATOM     13  C   UNL     1       5.524   5.052  16.984  0.00  0.00    +0.000 C 
ATOM     14  C   UNL     1       5.317   4.086  15.816  0.00  0.00    +0.000 C 
BRANCH  13  15
ATOM     15  N   UNL     1       4.393   5.151  17.932  0.00  0.00    +0.000 N 
ATOM     16  C   UNL     1       3.414   6.225  17.847  0.00  0.00    +0.000 C 
ATOM     17  C   UNL     1       4.494   4.392  19.101  0.00  0.00    +0.000 C 
ATOM     18  O   UNL     1       5.414   3.602  19.278  0.00  0.00    +0.000 OA
BRANCH  17  19
ATOM     19  O   UNL     1       3.482   4.602  19.985  0.00  0.00    +0.000 OA
BRANCH  19  20
ATOM     20  C   UNL     1       2.418   3.613  20.076  0.00  0.00    +0.000 C 
ATOM     21  C   UNL     1       2.416   2.700  18.841  0.00  0.00    +0.000 C 
ATOM     22  C   UNL     1       2.734   2.751  21.308  0.00  0.00    +0.000 C 
ATOM     23  C   UNL     1       1.050   4.272  20.314  0.00  0.00    +0.000 C 
ENDBRANCH  19  20
ENDBRANCH  17  19
ENDBRANCH  13  15
ENDBRANCH   1  13
TORSDOF 6
ENDMDL
MODEL 2
REMARK VINA RESULT:      -6.7      1.249      1.445
REMARK  Name = 
REMARK  12 active torsions:
REMARK  status: ('A' for Active; 'I' for Inactive)
REMARK    1  A    between atoms: C_1  and  C_2
REMARK    2  A    between atoms: C_4  and  C_5
REMARK    3  A    between atoms: C_7  and  C_8
REMARK    4  A    between atoms: C_8  and  C_9
REMARK    5  A    between atoms: C_9  and  C_10
REMARK    6  A    between atoms: C_9  and  N_11
REMARK    7  A    between atoms: N_11  and  C_12
REMARK    8  A    between atoms: C_13  and  O_15
REMARK    9  A    between atoms: O_15  and  C_16
REMARK   10  A    between atoms: C_16  and  C_17
REMARK   11  A    between atoms: C_16  and  C_18
REMARK   12  A    between atoms: C_16  and  C_19
REMARK                            x       y       z     vdW  Elec       q    Type
REMARK                         _______ _______ _______ _____ _____    ______ ____
ROOT
ATOM      1  C   UNL     1       7.420   5.612  18.744  0.00  0.00    +0.000 C 
ENDROOT
BRANCH   1   4
ATOM      2  C   UNL     1       8.435   8.940  18.250  0.00  0.00    +0.000 A 
ATOM      3  N   UNL     1       8.628   7.786  18.863  0.00  0.00    +0.000 NA
ATOM      4  C   UNL     1       7.738   6.962  18.222  0.00  0.00    +0.000 A 
ATOM      5  N   UNL     1       7.060   7.535  17.222  0.00  0.00    +0.000 NA
ATOM      6  O   UNL     1       7.535   8.846  17.222  0.00  0.00    +0.000 OA
BRANCH   2  10
ATOM      7  C   UNL     1      10.186  13.572  17.785  0.00  0.00    +0.000 C 
ATOM      8  C   UNL     1       9.822  12.282  18.427  0.00  0.00    +0.000 A 
ATOM      9  N   UNL     1       9.377  11.228  17.777  0.00  0.00    +0.000 NA
ATOM     10  C   UNL     1       9.062  10.224  18.679  0.00  0.00    +0.000 A 
ATOM     11  C   UNL     1       9.319  10.517  20.003  0.00  0.00    +0.000 A 
ATOM     12  S   UNL     1       9.949  12.103  20.134  0.00  0.00    +0.000 S 
ENDBRANCH   2  10
ENDBRANCH   1   4
BRANCH   1  13
ATOM     13  C   UNL     1       6.600   4.693  17.813  0.00  0.00    +0.000 C 
ATOM     14  C   UNL     1       7.060   4.802  16.359  0.00  0.00    +0.000 C 
BRANCH  13  15
ATOM     15  N   UNL     1       5.135   4.740  18.020  0.00  0.00    +0.000 N 
ATOM     16  C   UNL     1       4.316   5.796  17.445  0.00  0.00    +0.000 C 
ATOM     17  C   UNL     1       4.627   3.948  19.053  0.00  0.00    +0.000 C 
ATOM     18  O   UNL     1       5.340   3.171  19.678  0.00  0.00    +0.000 OA
BRANCH  17  19
ATOM     19  O   UNL     1       3.295   4.111  19.268  0.00  0.00    +0.000 OA
BRANCH  19  20
ATOM     20  C   UNL     1       2.376   3.109  18.750  0.00  0.00    +0.000 C 
ATOM     21  C   UNL     1       3.140   2.002  18.008  0.00  0.00    +0.000 C 
ATOM     22  C   UNL     1       1.689   2.478  19.973  0.00  0.00    +0.000 C 
ATOM     23  C   UNL     1       1.278   3.742  17.881  0.00  0.00    +0.000 C 
ENDBRANCH  19  20
ENDBRANCH  17  19
ENDBRANCH  13  15
ENDBRANCH   1  13
TORSDOF 6
ENDMDL
MODEL 3
REMARK VINA RESULT:      -6.6      4.572      6.631
REMARK  Name = 
REMARK  12 active torsions:
REMARK  status: ('A' for Active; 'I' for Inactive)
REMARK    1  A    between atoms: C_1  and  C_2
REMARK    2  A    between atoms: C_4  and  C_5
REMARK    3  A    between atoms: C_7  and  C_8
REMARK    4  A    between atoms: C_8  and  C_9
REMARK    5  A    between atoms: C_9  and  C_10
REMARK    6  A    between atoms: C_9  and  N_11
REMARK    7  A    between atoms: N_11  and  C_12
REMARK    8  A    between atoms: C_13  and  O_15
REMARK    9  A    between atoms: O_15  and  C_16
REMARK   10  A    between atoms: C_16  and  C_17
REMARK   11  A    between atoms: C_16  and  C_18
REMARK   12  A    between atoms: C_16  and  C_19
REMARK                            x       y       z     vdW  Elec       q    Type
REMARK                         _______ _______ _______ _____ _____    ______ ____
ROOT
ATOM      1  C   UNL     1       7.398   4.576  17.327  0.00  0.00    +0.000 C 
ENDROOT
BRANCH   1   4
ATOM      2  C   UNL     1       6.406   4.215  13.975  0.00  0.00    +0.000 A 
ATOM      3  N   UNL     1       6.233   3.878  15.240  0.00  0.00    +0.000 NA
ATOM      4  C   UNL     1       7.070   4.747  15.892  0.00  0.00    +0.000 A 
ATOM      5  N   UNL     1       7.694   5.627  15.101  0.00  0.00    +0.000 NA
ATOM      6  O   UNL     1       7.240   5.290  13.827  0.00  0.00    +0.000 OA
BRANCH   2  10
ATOM      7  C   UNL     1       3.203   3.175  10.315  0.00  0.00    +0.000 C 
ATOM      8  C   UNL     1       4.382   3.040  11.209  0.00  0.00    +0.000 A 
ATOM      9  N   UNL     1       4.607   3.798  12.262  0.00  0.00    +0.000 NA
ATOM     10  C   UNL     1       5.826   3.460  12.826  0.00  0.00    +0.000 A 
ATOM     11  C   UNL     1       6.489   2.412  12.219  0.00  0.00    +0.000 A 
ATOM     12  S   UNL     1       5.577   1.846  10.885  0.00  0.00    +0.000 S 
ENDBRANCH   2  10
ENDBRANCH   1   4
BRANCH   1  13
ATOM     13  C   UNL     1       6.754   5.584  18.302  0.00  0.00    +0.000 C 
ATOM     14  C   UNL     1       7.493   5.631  19.641  0.00  0.00    +0.000 C 
BRANCH  13  15
ATOM     15  N   UNL     1       5.279   5.510  18.395  0.00  0.00    +0.000 N 
ATOM     16  C   UNL     1       4.434   6.649  18.067  0.00  0.00    +0.000 C 
ATOM     17  C   UNL     1       4.755   4.442  19.127  0.00  0.00    +0.000 C 
ATOM     18  O   UNL     1       5.473   3.552  19.571  0.00  0.00    +0.000 OA
BRANCH  17  19
ATOM     19  O   UNL     1       3.404   4.481  19.270  0.00  0.00    +0.000 OA
BRANCH  19  20
ATOM     20  C   UNL     1       2.614   3.376  18.750  0.00  0.00    +0.000 C 
ATOM     21  C   UNL     1       3.427   2.552  17.740  0.00  0.00    +0.000 C 
ATOM     22  C   UNL     1       2.289   2.473  19.952  0.00  0.00    +0.000 C 
ATOM     23  C   UNL     1       1.278   3.860  18.165  0.00  0.00    +0.000 C 
ENDBRANCH  19  20
ENDBRANCH  17  19
ENDBRANCH  13  15
ENDBRANCH   1  13
TORSDOF 6
ENDMDL
MODEL 4
REMARK VINA RESULT:      -6.6      4.312      6.281
REMARK  Name = 
REMARK  12 active torsions:
REMARK  status: ('A' for Active; 'I' for Inactive)
REMARK    1  A    between atoms: C_1  and  C_2
REMARK    2  A    between atoms: C_4  and  C_5
REMARK    3  A    between atoms: C_7  and  C_8
REMARK    4  A    between atoms: C_8  and  C_9
REMARK    5  A    between atoms: C_9  and  C_10
REMARK    6  A    between atoms: C_9  and  N_11
REMARK    7  A    between atoms: N_11  and  C_12
REMARK    8  A    between atoms: C_13  and  O_15
REMARK    9  A    between atoms: O_15  and  C_16
REMARK   10  A    between atoms: C_16  and  C_17
REMARK   11  A    between atoms: C_16  and  C_18
REMARK   12  A    between atoms: C_16  and  C_19
REMARK                            x       y       z     vdW  Elec       q    Type
REMARK                         _______ _______ _______ _____ _____    ______ ____
ROOT
ATOM      1  C   UNL     1       5.400   7.074  17.137  0.00  0.00    +0.000 C 
ENDROOT
BRANCH   1   4
ATOM      2  C   UNL     1       6.380   4.881  14.573  0.00  0.00    +0.000 A 
ATOM      3  N   UNL     1       5.574   5.844  14.979  0.00  0.00    +0.000 NA
ATOM      4  C   UNL     1       6.120   6.192  16.189  0.00  0.00    +0.000 A 
ATOM      5  N   UNL     1       7.240   5.535  16.510  0.00  0.00    +0.000 NA
ATOM      6  O   UNL     1       7.429   4.676  15.428  0.00  0.00    +0.000 OA
BRANCH   2  10
ATOM      7  C   UNL     1       7.477   1.819  10.809  0.00  0.00    +0.000 C 
ATOM      8  C   UNL     1       6.666   2.683  11.706  0.00  0.00    +0.000 A 
ATOM      9  N   UNL     1       7.165   3.431  12.667  0.00  0.00    +0.000 NA
ATOM     10  C   UNL     1       6.135   4.048  13.359  0.00  0.00    +0.000 A 
ATOM     11  C   UNL     1       4.865   3.794  12.879  0.00  0.00    +0.000 A 
ATOM     12  S   UNL     1       4.954   2.733  11.539  0.00  0.00    +0.000 S 
ENDBRANCH   2  10
ENDBRANCH   1   4
BRANCH   1  13
ATOM     13  C   UNL     1       3.977   6.631  17.540  0.00  0.00    +0.000 C 
ATOM     14  C   UNL     1       3.060   7.829  17.793  0.00  0.00    +0.000 C 
BRANCH  13  15
ATOM     15  N   UNL     1       3.920   5.563  18.561  0.00  0.00    +0.000 N 
ATOM     16  C   UNL     1       5.023   5.323  19.480  0.00  0.00    +0.000 C 
ATOM     17  C   UNL     1       2.935   4.587  18.385  0.00  0.00    +0.000 C 
ATOM     18  O   UNL     1       2.093   4.674  17.499  0.00  0.00    +0.000 OA
BRANCH  17  19
ATOM     19  O   UNL     1       2.996   3.573  19.289  0.00  0.00    +0.000 OA
BRANCH  19  20
ATOM     20  C   UNL     1       1.921   3.437  20.260  0.00  0.00    +0.000 C 
ATOM     21  C   UNL     1       2.428   2.769  21.546  0.00  0.00    +0.000 C 
ATOM     22  C   UNL     1       1.471   4.865  20.609  0.00  0.00    +0.000 C 
ATOM     23  C   UNL     1       0.708   2.706  19.663  0.00  0.00    +0.000 C 
ENDBRANCH  19  20
ENDBRANCH  17  19
ENDBRANCH  13  15
ENDBRANCH   1  13
TORSDOF 6
ENDMDL
MODEL 5
REMARK VINA RESULT:      -6.6      1.399      2.003
REMARK  Name = 
REMARK  12 active torsions:
REMARK  status: ('A' for Active; 'I' for Inactive)
REMARK    1  A    between atoms: C_1  and  C_2
REMARK    2  A    between atoms: C_4  and  C_5
REMARK    3  A    between atoms: C_7  and  C_8
REMARK    4  A    between atoms: C_8  and  C_9
REMARK    5  A    between atoms: C_9  and  C_10
REMARK    6  A    between atoms: C_9  and  N_11
REMARK    7  A    between atoms: N_11  and  C_12
REMARK    8  A    between atoms: C_13  and  O_15
REMARK    9  A    between atoms: O_15  and  C_16
REMARK   10  A    between atoms: C_16  and  C_17
REMARK   11  A    between atoms: C_16  and  C_18
REMARK   12  A    between atoms: C_16  and  C_19
REMARK                            x       y       z     vdW  Elec       q    Type
REMARK                         _______ _______ _______ _____ _____    ______ ____
ROOT
ATOM      1  C   UNL     1       7.408   5.419  18.645  0.00  0.00    +0.000 C 
ENDROOT
BRANCH   1   4
ATOM      2  C   UNL     1       8.307   8.771  18.090  0.00  0.00    +0.000 A 
ATOM      3  N   UNL     1       8.504   7.652  18.763  0.00  0.00    +0.000 NA
ATOM      4  C   UNL     1       7.704   6.762  18.092  0.00  0.00    +0.000 A 
ATOM      5  N   UNL     1       7.080   7.264  17.020  0.00  0.00    +0.000 NA
ATOM      6  O   UNL     1       7.495   8.595  17.002  0.00  0.00    +0.000 OA
BRANCH   2  10
ATOM      7  C   UNL     1      11.039  12.001  20.705  0.00  0.00    +0.000 C 
ATOM      8  C   UNL     1      10.076  11.497  19.693  0.00  0.00    +0.000 A 
ATOM      9  N   UNL     1       9.675  10.246  19.606  0.00  0.00    +0.000 NA
ATOM     10  C   UNL     1       8.840  10.100  18.510  0.00  0.00    +0.000 A 
ATOM     11  C   UNL     1       8.580  11.258  17.806  0.00  0.00    +0.000 A 
ATOM     12  S   UNL     1       9.424  12.568  18.515  0.00  0.00    +0.000 S 
ENDBRANCH   2  10
ENDBRANCH   1   4
BRANCH   1  13
ATOM     13  C   UNL     1       6.378   4.571  17.868  0.00  0.00    +0.000 C 
ATOM     14  C   UNL     1       6.655   4.578  16.364  0.00  0.00    +0.000 C 
BRANCH  13  15
ATOM     15  N   UNL     1       4.967   4.792  18.254  0.00  0.00    +0.000 N 
ATOM     16  C   UNL     1       4.299   6.062  18.012  0.00  0.00    +0.000 C 
ATOM     17  C   UNL     1       4.418   3.875  19.154  0.00  0.00    +0.000 C 
ATOM     18  O   UNL     1       5.034   2.879  19.515  0.00  0.00    +0.000 OA
BRANCH  17  19
ATOM     19  O   UNL     1       3.157   4.186  19.556  0.00  0.00    +0.000 OA
BRANCH  19  20
ATOM     20  C   UNL     1       2.051   3.368  19.081  0.00  0.00    +0.000 C 
ATOM     21  C   UNL     1       0.973   3.226  20.165  0.00  0.00    +0.000 C 
ATOM     22  C   UNL     1       1.436   4.123  17.891  0.00  0.00    +0.000 C 
ATOM     23  C   UNL     1       2.536   2.006  18.560  0.00  0.00    +0.000 C 
ENDBRANCH  19  20
ENDBRANCH  17  19
ENDBRANCH  13  15
ENDBRANCH   1  13
TORSDOF 6
ENDMDL
MODEL 6
REMARK VINA RESULT:      -6.6      1.150      1.642
REMARK  Name = 
REMARK  12 active torsions:
REMARK  status: ('A' for Active; 'I' for Inactive)
REMARK    1  A    between atoms: C_1  and  C_2
REMARK    2  A    between atoms: C_4  and  C_5
REMARK    3  A    between atoms: C_7  and  C_8
REMARK    4  A    between atoms: C_8  and  C_9
REMARK    5  A    between atoms: C_9  and  C_10
REMARK    6  A    between atoms: C_9  and  N_11
REMARK    7  A    between atoms: N_11  and  C_12
REMARK    8  A    between atoms: C_13  and  O_15
REMARK    9  A    between atoms: O_15  and  C_16
REMARK   10  A    between atoms: C_16  and  C_17
REMARK   11  A    between atoms: C_16  and  C_18
REMARK   12  A    between atoms: C_16  and  C_19
REMARK                            x       y       z     vdW  Elec       q    Type
REMARK                         _______ _______ _______ _____ _____    ______ ____
ROOT
ATOM      1  C   UNL     1       7.431   5.605  18.655  0.00  0.00    +0.000 C 
ENDROOT
BRANCH   1   4
ATOM      2  C   UNL     1       8.445   8.942  18.220  0.00  0.00    +0.000 A 
ATOM      3  N   UNL     1       8.624   7.784  18.830  0.00  0.00    +0.000 NA
ATOM      4  C   UNL     1       7.759   6.961  18.154  0.00  0.00    +0.000 A 
ATOM      5  N   UNL     1       7.111   7.539  17.136  0.00  0.00    +0.000 NA
ATOM      6  O   UNL     1       7.580   8.852  17.163  0.00  0.00    +0.000 OA
BRANCH   2  10
ATOM      7  C   UNL     1      10.254  13.559  17.835  0.00  0.00    +0.000 C 
ATOM      8  C   UNL     1       9.840  12.277  18.462  0.00  0.00    +0.000 A 
ATOM      9  N   UNL     1       9.432  11.220  17.793  0.00  0.00    +0.000 NA
ATOM     10  C   UNL     1       9.051  10.226  18.679  0.00  0.00    +0.000 A 
ATOM     11  C   UNL     1       9.223  10.527  20.015  0.00  0.00    +0.000 A 
ATOM     12  S   UNL     1       9.854  12.111  20.175  0.00  0.00    +0.000 S 
ENDBRANCH   2  10
ENDBRANCH   1   4
BRANCH   1  13
ATOM     13  C   UNL     1       6.434   4.785  17.808  0.00  0.00    +0.000 C 
ATOM     14  C   UNL     1       6.713   4.922  16.311  0.00  0.00    +0.000 C 
BRANCH  13  15
ATOM     15  N   UNL     1       5.015   4.925  18.203  0.00  0.00    +0.000 N 
ATOM     16  C   UNL     1       4.241   6.111  17.868  0.00  0.00    +0.000 C 
ATOM     17  C   UNL     1       4.555   4.050  19.191  0.00  0.00    +0.000 C 
ATOM     18  O   UNL     1       5.256   3.142  19.623  0.00  0.00    +0.000 OA
BRANCH  17  19
ATOM     19  O   UNL     1       3.279   4.292  19.592  0.00  0.00    +0.000 OA
BRANCH  19  20
ATOM     20  C   UNL     1       2.238   3.345  19.219  0.00  0.00    +0.000 C 
ATOM     21  C   UNL     1       1.270   3.111  20.388  0.00  0.00    +0.000 C 
ATOM     22  C   UNL     1       1.452   3.997  18.070  0.00  0.00    +0.000 C 
ATOM     23  C   UNL     1       2.832   2.033  18.683  0.00  0.00    +0.000 C 
ENDBRANCH  19  20
ENDBRANCH  17  19
ENDBRANCH  13  15
ENDBRANCH   1  13
TORSDOF 6
ENDMDL
MODEL 7
REMARK VINA RESULT:      -6.5      4.233      5.763
REMARK  Name = 
REMARK  12 active torsions:
REMARK  status: ('A' for Active; 'I' for Inactive)
REMARK    1  A    between atoms: C_1  and  C_2
REMARK    2  A    between atoms: C_4  and  C_5
REMARK    3  A    between atoms: C_7  and  C_8
REMARK    4  A    between atoms: C_8  and  C_9
REMARK    5  A    between atoms: C_9  and  C_10
REMARK    6  A    between atoms: C_9  and  N_11
REMARK    7  A    between atoms: N_11  and  C_12
REMARK    8  A    between atoms: C_13  and  O_15
REMARK    9  A    between atoms: O_15  and  C_16
REMARK   10  A    between atoms: C_16  and  C_17
REMARK   11  A    between atoms: C_16  and  C_18
REMARK   12  A    between atoms: C_16  and  C_19
REMARK                            x       y       z     vdW  Elec       q    Type
REMARK                         _______ _______ _______ _____ _____    ______ ____
ROOT
ATOM      1  C   UNL     1       5.112   6.481  18.308  0.00  0.00    +0.000 C 
ENDROOT
BRANCH   1   4
ATOM      2  C   UNL     1       6.703   5.083  15.503  0.00  0.00    +0.000 A 
ATOM      3  N   UNL     1       5.736   5.844  15.983  0.00  0.00    +0.000 NA
ATOM      4  C   UNL     1       6.060   5.925  17.313  0.00  0.00    +0.000 A 
ATOM      5  N   UNL     1       7.197   5.307  17.654  0.00  0.00    +0.000 NA
ATOM      6  O   UNL     1       7.639   4.763  16.449  0.00  0.00    +0.000 OA
BRANCH   2  10
ATOM      7  C   UNL     1       5.196   2.475  11.544  0.00  0.00    +0.000 C 
ATOM      8  C   UNL     1       6.024   3.390  12.372  0.00  0.00    +0.000 A 
ATOM      9  N   UNL     1       5.844   3.596  13.659  0.00  0.00    +0.000 NA
ATOM     10  C   UNL     1       6.734   4.560  14.106  0.00  0.00    +0.000 A 
ATOM     11  C   UNL     1       7.614   5.037  13.156  0.00  0.00    +0.000 A 
ATOM     12  S   UNL     1       7.306   4.282  11.650  0.00  0.00    +0.000 S 
ENDBRANCH   2  10
ENDBRANCH   1   4
BRANCH   1  13
ATOM     13  C   UNL     1       3.653   6.660  17.837  0.00  0.00    +0.000 C 
ATOM     14  C   UNL     1       3.339   8.120  17.506  0.00  0.00    +0.000 C 
BRANCH  13  15
ATOM     15  N   UNL     1       2.639   5.966  18.661  0.00  0.00    +0.000 N 
ATOM     16  C   UNL     1       2.241   6.468  19.968  0.00  0.00    +0.000 C 
ATOM     17  C   UNL     1       2.341   4.649  18.301  0.00  0.00    +0.000 C 
ATOM     18  O   UNL     1       2.808   4.137  17.290  0.00  0.00    +0.000 OA
BRANCH  17  19
ATOM     19  O   UNL     1       1.486   4.024  19.153  0.00  0.00    +0.000 OA
BRANCH  19  20
ATOM     20  C   UNL     1       1.972   2.887  19.920  0.00  0.00    +0.000 C 
ATOM     21  C   UNL     1       1.247   2.791  21.271  0.00  0.00    +0.000 C 
ATOM     22  C   UNL     1       1.625   1.633  19.101  0.00  0.00    +0.000 C 
ATOM     23  C   UNL     1       3.500   2.923  20.081  0.00  0.00    +0.000 C 
ENDBRANCH  19  20
ENDBRANCH  17  19
ENDBRANCH  13  15
ENDBRANCH   1  13
TORSDOF 6
ENDMDL
MODEL 8
REMARK VINA RESULT:      -6.5      1.487      1.661
REMARK  Name = 
REMARK  12 active torsions:
REMARK  status: ('A' for Active; 'I' for Inactive)
REMARK    1  A    between atoms: C_1  and  C_2
REMARK    2  A    between atoms: C_4  and  C_5
REMARK    3  A    between atoms: C_7  and  C_8
REMARK    4  A    between atoms: C_8  and  C_9
REMARK    5  A    between atoms: C_9  and  C_10
REMARK    6  A    between atoms: C_9  and  N_11
REMARK    7  A    between atoms: N_11  and  C_12
REMARK    8  A    between atoms: C_13  and  O_15
REMARK    9  A    between atoms: O_15  and  C_16
REMARK   10  A    between atoms: C_16  and  C_17
REMARK   11  A    between atoms: C_16  and  C_18
REMARK   12  A    between atoms: C_16  and  C_19
REMARK                            x       y       z     vdW  Elec       q    Type
REMARK                         _______ _______ _______ _____ _____    ______ ____
ROOT
ATOM      1  C   UNL     1       7.107   6.956  16.736  0.00  0.00    +0.000 C 
ENDROOT
BRANCH   1   4
ATOM      2  C   UNL     1       8.698   9.638  18.356  0.00  0.00    +0.000 A 
ATOM      3  N   UNL     1       7.881   9.227  17.404  0.00  0.00    +0.000 NA
ATOM      4  C   UNL     1       7.744   7.892  17.691  0.00  0.00    +0.000 A 
ATOM      5  N   UNL     1       8.385   7.487  18.794  0.00  0.00    +0.000 NA
ATOM      6  O   UNL     1       9.003   8.649  19.251  0.00  0.00    +0.000 OA
BRANCH   2  10
ATOM      7  C   UNL     1      12.083  13.137  19.379  0.00  0.00    +0.000 C 
ATOM      8  C   UNL     1      10.825  12.525  18.877  0.00  0.00    +0.000 A 
ATOM      9  N   UNL     1      10.479  11.270  19.070  0.00  0.00    +0.000 NA
ATOM     10  C   UNL     1       9.291  11.007  18.408  0.00  0.00    +0.000 A 
ATOM     11  C   UNL     1       8.724  12.085  17.759  0.00  0.00    +0.000 A 
ATOM     12  S   UNL     1       9.716  13.466  17.956  0.00  0.00    +0.000 S 
ENDBRANCH   2  10
ENDBRANCH   1   4
BRANCH   1  13
ATOM     13  C   UNL     1       6.595   5.622  17.321  0.00  0.00    +0.000 C 
ATOM     14  C   UNL     1       6.871   4.447  16.383  0.00  0.00    +0.000 C 
BRANCH  13  15
ATOM     15  N   UNL     1       5.230   5.672  17.890  0.00  0.00    +0.000 N 
ATOM     16  C   UNL     1       4.171   6.455  17.270  0.00  0.00    +0.000 C 
ATOM     17  C   UNL     1       5.090   5.232  19.209  0.00  0.00    +0.000 C 
ATOM     18  O   UNL     1       6.023   4.725  19.821  0.00  0.00    +0.000 OA
BRANCH  17  19
ATOM     19  O   UNL     1       3.840   5.399  19.716  0.00  0.00    +0.000 OA
BRANCH  19  20
ATOM     20  C   UNL     1       2.944   4.253  19.759  0.00  0.00    +0.000 C 
ATOM     21  C   UNL     1       3.733   2.940  19.636  0.00  0.00    +0.000 C 
ATOM     22  C   UNL     1       2.274   4.279  21.143  0.00  0.00    +0.000 C 
ATOM     23  C   UNL     1       1.830   4.364  18.706  0.00  0.00    +0.000 C 
ENDBRANCH  19  20
ENDBRANCH  17  19
ENDBRANCH  13  15
ENDBRANCH   1  13
TORSDOF 6
ENDMDL
MODEL 9
REMARK VINA RESULT:      -6.4      4.917      6.763
REMARK  Name = 
REMARK  12 active torsions:
REMARK  status: ('A' for Active; 'I' for Inactive)
REMARK    1  A    between atoms: C_1  and  C_2
REMARK    2  A    between atoms: C_4  and  C_5
REMARK    3  A    between atoms: C_7  and  C_8
REMARK    4  A    between atoms: C_8  and  C_9
REMARK    5  A    between atoms: C_9  and  C_10
REMARK    6  A    between atoms: C_9  and  N_11
REMARK    7  A    between atoms: N_11  and  C_12
REMARK    8  A    between atoms: C_13  and  O_15
REMARK    9  A    between atoms: O_15  and  C_16
REMARK   10  A    between atoms: C_16  and  C_17
REMARK   11  A    between atoms: C_16  and  C_18
REMARK   12  A    between atoms: C_16  and  C_19
REMARK                            x       y       z     vdW  Elec       q    Type
REMARK                         _______ _______ _______ _____ _____    ______ ____
ROOT
ATOM      1  C   UNL     1       2.099   4.791  20.537  0.00  0.00    +0.000 C 
ENDROOT
BRANCH   1   4
ATOM      2  C   UNL     1       1.418   8.223  20.208  0.00  0.00    +0.000 A 
ATOM      3  N   UNL     1       1.373   7.135  20.956  0.00  0.00    +0.000 NA
ATOM      4  C   UNL     1       2.091   6.236  20.209  0.00  0.00    +0.000 A 
ATOM      5  N   UNL     1       2.616   6.733  19.083  0.00  0.00    +0.000 NA
ATOM      6  O   UNL     1       2.189   8.060  19.089  0.00  0.00    +0.000 OA
BRANCH   2  10
ATOM      7  C   UNL     1      -1.929  11.831  19.486  0.00  0.00    +0.000 C 
ATOM      8  C   UNL     1      -0.852  11.046  20.144  0.00  0.00    +0.000 A 
ATOM      9  N   UNL     1      -0.242  10.016  19.597  0.00  0.00    +0.000 NA
ATOM     10  C   UNL     1       0.651   9.468  20.503  0.00  0.00    +0.000 A 
ATOM     11  C   UNL     1       0.740  10.123  21.715  0.00  0.00    +0.000 A 
ATOM     12  S   UNL     1      -0.342  11.450  21.737  0.00  0.00    +0.000 S 
ENDBRANCH   2  10
ENDBRANCH   1   4
BRANCH   1  13
ATOM     13  C   UNL     1       2.079   3.817  19.338  0.00  0.00    +0.000 C 
ATOM     14  C   UNL     1       1.165   2.618  19.596  0.00  0.00    +0.000 C 
BRANCH  13  15
ATOM     15  N   UNL     1       3.408   3.491  18.775  0.00  0.00    +0.000 N 
ATOM     16  C   UNL     1       4.609   3.493  19.598  0.00  0.00    +0.000 C 
ATOM     17  C   UNL     1       3.518   3.522  17.383  0.00  0.00    +0.000 C 
ATOM     18  O   UNL     1       2.540   3.697  16.664  0.00  0.00    +0.000 OA
BRANCH  17  19
ATOM     19  O   UNL     1       4.782   3.320  16.924  0.00  0.00    +0.000 OA
BRANCH  19  20
ATOM     20  C   UNL     1       5.493   4.438  16.324  0.00  0.00    +0.000 C 
ATOM     21  C   UNL     1       6.969   4.436  16.749  0.00  0.00    +0.000 C 
ATOM     22  C   UNL     1       5.433   4.222  14.803  0.00  0.00    +0.000 C 
ATOM     23  C   UNL     1       4.803   5.778  16.626  0.00  0.00    +0.000 C 
ENDBRANCH  19  20
ENDBRANCH  17  19
ENDBRANCH  13  15
ENDBRANCH   1  13
TORSDOF 6
ENDMDL
