MODEL 1
REMARK VINA RESULT:      -8.2      0.000      0.000
REMARK  Name = 
REMARK  2 active torsions:
REMARK  status: ('A' for Active; 'I' for Inactive)
REMARK    1  A    between atoms: C_4  and  C_5
REMARK    2  A    between atoms: C_9  and  C_10
REMARK                            x       y       z     vdW  Elec       q    Type
REMARK                         _______ _______ _______ _____ _____    ______ ____
ROOT
ATOM      1  C   UNL     1       4.673   4.287  18.082  0.00  0.00    +0.000 A 
ATOM      2  C   UNL     1       5.687   4.828  18.889  0.00  0.00    +0.000 A 
ATOM      3  C   UNL     1       6.906   5.228  18.348  0.00  0.00    +0.000 A 
ATOM      4  C   UNL     1       7.141   5.093  16.981  0.00  0.00    +0.000 A 
ATOM      5  C   UNL     1       6.178   4.538  16.122  0.00  0.00    +0.000 A 
ATOM      6  C   UNL     1       4.956   4.134  16.708  0.00  0.00    +0.000 A 
ENDROOT
BRANCH   1  10
ATOM      7  C   UNL     1       0.821   3.280  19.757  0.00  0.00    +0.000 A 
ATOM      8  C   UNL     1       1.692   4.113  20.451  0.00  0.00    +0.000 A 
ATOM      9  C   UNL     1       2.935   4.438  19.899  0.00  0.00    +0.000 A 
ATOM     10  C   UNL     1       3.349   3.932  18.652  0.00  0.00    +0.000 A 
ATOM     11  C   UNL     1       2.447   3.091  17.973  0.00  0.00    +0.000 A 
ATOM     12  C   UNL     1       1.196   2.773  18.515  0.00  0.00    +0.000 A 
ENDBRANCH   1  10
BRANCH   5  13
ATOM     13  C   UNL     1       6.418   4.436  14.659  0.00  0.00    +0.000 A 
ATOM     14  C   UNL     1       5.625   3.614  13.835  0.00  0.00    +0.000 A 
ATOM     15  C   UNL     1       5.897   3.461  12.470  0.00  0.00    +0.000 A 
ATOM     16  C   UNL     1       6.957   4.146  11.890  0.00  0.00    +0.000 A 
ATOM     17  C   UNL     1       7.740   4.989  12.670  0.00  0.00    +0.000 A 
ATOM     18  C   UNL     1       7.476   5.126  14.037  0.00  0.00    +0.000 A 
ENDBRANCH   5  13
TORSDOF 2
ENDMDL
MODEL 2
REMARK VINA RESULT:      -8.1      0.200      6.587
REMARK  Name = 
REMARK  2 active torsions:
REMARK  status: ('A' for Active; 'I' for Inactive)
REMARK    1  A    between atoms: C_4  and  C_5
REMARK    2  A    between atoms: C_9  and  C_10
REMARK                            x       y       z     vdW  Elec       q    Type
REMARK                         _______ _______ _______ _____ _____    ______ ____
ROOT
ATOM      1  C   UNL     1       6.098   4.701  16.071  0.00  0.00    +0.000 A 
ATOM      2  C   UNL     1       7.060   5.203  16.962  0.00  0.00    +0.000 A 
ATOM      3  C   UNL     1       6.793   5.321  18.324  0.00  0.00    +0.000 A 
ATOM      4  C   UNL     1       5.552   4.938  18.828  0.00  0.00    +0.000 A 
ATOM      5  C   UNL     1       4.538   4.450  17.988  0.00  0.00    +0.000 A 
ATOM      6  C   UNL     1       4.840   4.354  16.609  0.00  0.00    +0.000 A 
ENDROOT
BRANCH   1  10
ATOM      7  C   UNL     1       6.982   4.133  11.881  0.00  0.00    +0.000 A 
ATOM      8  C   UNL     1       5.946   3.426  12.483  0.00  0.00    +0.000 A 
ATOM      9  C   UNL     1       5.663   3.620  13.838  0.00  0.00    +0.000 A 
ATOM     10  C   UNL     1       6.413   4.509  14.633  0.00  0.00    +0.000 A 
ATOM     11  C   UNL     1       7.455   5.209  13.997  0.00  0.00    +0.000 A 
ATOM     12  C   UNL     1       7.733   5.029  12.637  0.00  0.00    +0.000 A 
ENDBRANCH   1  10
BRANCH   5  13
ATOM     13  C   UNL     1       3.231   4.004  18.537  0.00  0.00    +0.000 A 
ATOM     14  C   UNL     1       2.666   4.603  19.680  0.00  0.00    +0.000 A 
ATOM     15  C   UNL     1       1.471   4.134  20.240  0.00  0.00    +0.000 A 
ATOM     16  C   UNL     1       0.799   3.067  19.656  0.00  0.00    +0.000 A 
ATOM     17  C   UNL     1       1.316   2.474  18.510  0.00  0.00    +0.000 A 
ATOM     18  C   UNL     1       2.518   2.934  17.963  0.00  0.00    +0.000 A 
ENDBRANCH   5  13
TORSDOF 2
ENDMDL
MODEL 3
REMARK VINA RESULT:      -8.1      0.302      6.539
REMARK  Name = 
REMARK  2 active torsions:
REMARK  status: ('A' for Active; 'I' for Inactive)
REMARK    1  A    between atoms: C_4  and  C_5
REMARK    2  A    between atoms: C_9  and  C_10
REMARK                            x       y       z     vdW  Elec       q    Type
REMARK                         _______ _______ _______ _____ _____    ______ ____
ROOT
ATOM      1  C   UNL     1       6.030   4.687  16.054  0.00  0.00    +0.000 A 
ATOM      2  C   UNL     1       6.980   5.212  16.945  0.00  0.00    +0.000 A 
ATOM      3  C   UNL     1       6.707   5.337  18.304  0.00  0.00    +0.000 A 
ATOM      4  C   UNL     1       5.470   4.938  18.807  0.00  0.00    +0.000 A 
ATOM      5  C   UNL     1       4.467   4.426  17.967  0.00  0.00    +0.000 A 
ATOM      6  C   UNL     1       4.776   4.324  16.591  0.00  0.00    +0.000 A 
ENDROOT
BRANCH   1  10
ATOM      7  C   UNL     1       7.001   4.118  11.884  0.00  0.00    +0.000 A 
ATOM      8  C   UNL     1       7.728   5.016  12.658  0.00  0.00    +0.000 A 
ATOM      9  C   UNL     1       7.410   5.191  14.008  0.00  0.00    +0.000 A 
ATOM     10  C   UNL     1       6.353   4.488  14.619  0.00  0.00    +0.000 A 
ATOM     11  C   UNL     1       5.635   3.587  13.811  0.00  0.00    +0.000 A 
ATOM     12  C   UNL     1       5.958   3.398  12.462  0.00  0.00    +0.000 A 
ENDBRANCH   1  10
BRANCH   5  13
ATOM     13  C   UNL     1       3.166   3.963  18.515  0.00  0.00    +0.000 A 
ATOM     14  C   UNL     1       2.489   4.682  19.521  0.00  0.00    +0.000 A 
ATOM     15  C   UNL     1       1.301   4.208  20.089  0.00  0.00    +0.000 A 
ATOM     16  C   UNL     1       0.746   3.013  19.648  0.00  0.00    +0.000 A 
ATOM     17  C   UNL     1       1.374   2.295  18.636  0.00  0.00    +0.000 A 
ATOM     18  C   UNL     1       2.570   2.764  18.083  0.00  0.00    +0.000 A 
ENDBRANCH   5  13
TORSDOF 2
ENDMDL
MODEL 4
REMARK VINA RESULT:      -8.1      1.036      1.534
REMARK  Name = 
REMARK  2 active torsions:
REMARK  status: ('A' for Active; 'I' for Inactive)
REMARK    1  A    between atoms: C_4  and  C_5
REMARK    2  A    between atoms: C_9  and  C_10
REMARK                            x       y       z     vdW  Elec       q    Type
REMARK                         _______ _______ _______ _____ _____    ______ ____
ROOT
ATOM      1  C   UNL     1       3.919   4.891  17.595  0.00  0.00    +0.000 A 
ATOM      2  C   UNL     1       4.404   6.109  18.098  0.00  0.00    +0.000 A 
ATOM      3  C   UNL     1       5.385   6.830  17.423  0.00  0.00    +0.000 A 
ATOM      4  C   UNL     1       5.907   6.348  16.224  0.00  0.00    +0.000 A 
ATOM      5  C   UNL     1       5.483   5.125  15.679  0.00  0.00    +0.000 A 
ATOM      6  C   UNL     1       4.493   4.414  16.397  0.00  0.00    +0.000 A 
ENDROOT
BRANCH   1  10
ATOM      7  C   UNL     1       0.713   2.800  19.597  0.00  0.00    +0.000 A 
ATOM      8  C   UNL     1       1.115   4.057  20.037  0.00  0.00    +0.000 A 
ATOM      9  C   UNL     1       2.150   4.729  19.380  0.00  0.00    +0.000 A 
ATOM     10  C   UNL     1       2.822   4.163  18.279  0.00  0.00    +0.000 A 
ATOM     11  C   UNL     1       2.394   2.890  17.857  0.00  0.00    +0.000 A 
ATOM     12  C   UNL     1       1.349   2.218  18.503  0.00  0.00    +0.000 A 
ENDBRANCH   1  10
BRANCH   5  13
ATOM     13  C   UNL     1       6.012   4.637  14.379  0.00  0.00    +0.000 A 
ATOM     14  C   UNL     1       7.219   5.127  13.841  0.00  0.00    +0.000 A 
ATOM     15  C   UNL     1       7.680   4.721  12.583  0.00  0.00    +0.000 A 
ATOM     16  C   UNL     1       6.957   3.795  11.841  0.00  0.00    +0.000 A 
ATOM     17  C   UNL     1       5.778   3.270  12.358  0.00  0.00    +0.000 A 
ATOM     18  C   UNL     1       5.311   3.691  13.608  0.00  0.00    +0.000 A 
ENDBRANCH   5  13
TORSDOF 2
ENDMDL
MODEL 5
REMARK VINA RESULT:      -8.1      0.166      1.130
REMARK  Name = 
REMARK  2 active torsions:
REMARK  status: ('A' for Active; 'I' for Inactive)
REMARK    1  A    between atoms: C_4  and  C_5
REMARK    2  A    between atoms: C_9  and  C_10
REMARK                            x       y       z     vdW  Elec       q    Type
REMARK                         _______ _______ _______ _____ _____    ______ ____
ROOT
ATOM      1  C   UNL     1       4.616   4.259  18.072  0.00  0.00    +0.000 A 
ATOM      2  C   UNL     1       5.606   4.822  18.894  0.00  0.00    +0.000 A 
ATOM      3  C   UNL     1       6.824   5.249  18.372  0.00  0.00    +0.000 A 
ATOM      4  C   UNL     1       7.083   5.121  17.008  0.00  0.00    +0.000 A 
ATOM      5  C   UNL     1       6.146   4.545  16.135  0.00  0.00    +0.000 A 
ATOM      6  C   UNL     1       4.924   4.113  16.702  0.00  0.00    +0.000 A 
ENDROOT
BRANCH   1  10
ATOM      7  C   UNL     1       0.767   3.107  19.657  0.00  0.00    +0.000 A 
ATOM      8  C   UNL     1       1.306   2.437  18.563  0.00  0.00    +0.000 A 
ATOM      9  C   UNL     1       2.555   2.813  18.060  0.00  0.00    +0.000 A 
ATOM     10  C   UNL     1       3.292   3.874  18.620  0.00  0.00    +0.000 A 
ATOM     11  C   UNL     1       2.721   4.534  19.725  0.00  0.00    +0.000 A 
ATOM     12  C   UNL     1       1.478   4.152  20.242  0.00  0.00    +0.000 A 
ENDBRANCH   1  10
BRANCH   5  13
ATOM     13  C   UNL     1       6.411   4.449  14.676  0.00  0.00    +0.000 A 
ATOM     14  C   UNL     1       5.660   3.596  13.842  0.00  0.00    +0.000 A 
ATOM     15  C   UNL     1       5.958   3.451  12.482  0.00  0.00    +0.000 A 
ATOM     16  C   UNL     1       7.000   4.174  11.915  0.00  0.00    +0.000 A 
ATOM     17  C   UNL     1       7.739   5.047  12.705  0.00  0.00    +0.000 A 
ATOM     18  C   UNL     1       7.450   5.177  14.067  0.00  0.00    +0.000 A 
ENDBRANCH   5  13
TORSDOF 2
ENDMDL
MODEL 6
REMARK VINA RESULT:      -8.1      0.287      6.530
REMARK  Name = 
REMARK  2 active torsions:
REMARK  status: ('A' for Active; 'I' for Inactive)
REMARK    1  A    between atoms: C_4  and  C_5
REMARK    2  A    between atoms: C_9  and  C_10
REMARK                            x       y       z     vdW  Elec       q    Type
REMARK                         _______ _______ _______ _____ _____    ______ ____
ROOT
ATOM      1  C   UNL     1       6.137   4.895  16.140  0.00  0.00    +0.000 A 
ATOM      2  C   UNL     1       7.087   5.497  16.981  0.00  0.00    +0.000 A 
ATOM      3  C   UNL     1       6.836   5.686  18.337  0.00  0.00    +0.000 A 
ATOM      4  C   UNL     1       5.622   5.277  18.887  0.00  0.00    +0.000 A 
ATOM      5  C   UNL     1       4.620   4.691  18.097  0.00  0.00    +0.000 A 
ATOM      6  C   UNL     1       4.905   4.524  16.722  0.00  0.00    +0.000 A 
ENDROOT
BRANCH   1  10
ATOM      7  C   UNL     1       6.979   4.111  11.977  0.00  0.00    +0.000 A 
ATOM      8  C   UNL     1       5.937   3.450  12.620  0.00  0.00    +0.000 A 
ATOM      9  C   UNL     1       5.668   3.714  13.966  0.00  0.00    +0.000 A 
ATOM     10  C   UNL     1       6.437   4.629  14.711  0.00  0.00    +0.000 A 
ATOM     11  C   UNL     1       7.485   5.282  14.035  0.00  0.00    +0.000 A 
ATOM     12  C   UNL     1       7.750   5.032  12.683  0.00  0.00    +0.000 A 
ENDBRANCH   1  10
BRANCH   5  13
ATOM     13  C   UNL     1       3.345   4.220  18.697  0.00  0.00    +0.000 A 
ATOM     14  C   UNL     1       2.449   3.401  17.981  0.00  0.00    +0.000 A 
ATOM     15  C   UNL     1       1.215   3.017  18.518  0.00  0.00    +0.000 A 
ATOM     16  C   UNL     1       0.855   3.424  19.797  0.00  0.00    +0.000 A 
ATOM     17  C   UNL     1       1.730   4.207  20.541  0.00  0.00    +0.000 A 
ATOM     18  C   UNL     1       2.955   4.603  19.994  0.00  0.00    +0.000 A 
ENDBRANCH   5  13
TORSDOF 2
ENDMDL
MODEL 7
REMARK VINA RESULT:      -8.1      0.142      6.475
REMARK  Name = 
REMARK  2 active torsions:
REMARK  status: ('A' for Active; 'I' for Inactive)
REMARK    1  A    between atoms: C_4  and  C_5
REMARK    2  A    between atoms: C_9  and  C_10
REMARK                            x       y       z     vdW  Elec       q    Type
REMARK                         _______ _______ _______ _____ _____    ______ ____
ROOT
ATOM      1  C   UNL     1       6.103   4.735  16.090  0.00  0.00    +0.000 A 
ATOM      2  C   UNL     1       7.074   5.282  16.945  0.00  0.00    +0.000 A 
ATOM      3  C   UNL     1       6.839   5.422  18.310  0.00  0.00    +0.000 A 
ATOM      4  C   UNL     1       5.622   5.018  18.855  0.00  0.00    +0.000 A 
ATOM      5  C   UNL     1       4.600   4.485  18.052  0.00  0.00    +0.000 A 
ATOM      6  C   UNL     1       4.869   4.367  16.669  0.00  0.00    +0.000 A 
ENDROOT
BRANCH   1  10
ATOM      7  C   UNL     1       6.957   4.116  11.901  0.00  0.00    +0.000 A 
ATOM      8  C   UNL     1       7.737   4.986  12.657  0.00  0.00    +0.000 A 
ATOM      9  C   UNL     1       7.457   5.176  14.013  0.00  0.00    +0.000 A 
ATOM     10  C   UNL     1       6.385   4.519  14.649  0.00  0.00    +0.000 A 
ATOM     11  C   UNL     1       5.613   3.647  13.860  0.00  0.00    +0.000 A 
ATOM     12  C   UNL     1       5.897   3.442  12.504  0.00  0.00    +0.000 A 
ENDBRANCH   1  10
BRANCH   5  13
ATOM     13  C   UNL     1       3.321   4.016  18.645  0.00  0.00    +0.000 A 
ATOM     14  C   UNL     1       2.511   3.062  17.997  0.00  0.00    +0.000 A 
ATOM     15  C   UNL     1       1.270   2.676  18.519  0.00  0.00    +0.000 A 
ATOM     16  C   UNL     1       0.819   3.218  19.716  0.00  0.00    +0.000 A 
ATOM     17  C   UNL     1       1.608   4.139  20.395  0.00  0.00    +0.000 A 
ATOM     18  C   UNL     1       2.839   4.535  19.862  0.00  0.00    +0.000 A 
ENDBRANCH   5  13
TORSDOF 2
ENDMDL
MODEL 8
REMARK VINA RESULT:      -8.1      1.111      1.930
REMARK  Name = 
REMARK  2 active torsions:
REMARK  status: ('A' for Active; 'I' for Inactive)
REMARK    1  A    between atoms: C_4  and  C_5
REMARK    2  A    between atoms: C_9  and  C_10
REMARK                            x       y       z     vdW  Elec       q    Type
REMARK                         _______ _______ _______ _____ _____    ______ ____
ROOT
ATOM      1  C   UNL     1       3.864   4.982  17.588  0.00  0.00    +0.000 A 
ATOM      2  C   UNL     1       4.280   6.247  18.034  0.00  0.00    +0.000 A 
ATOM      3  C   UNL     1       5.226   6.988  17.331  0.00  0.00    +0.000 A 
ATOM      4  C   UNL     1       5.783   6.478  16.160  0.00  0.00    +0.000 A 
ATOM      5  C   UNL     1       5.429   5.210  15.671  0.00  0.00    +0.000 A 
ATOM      6  C   UNL     1       4.473   4.481  16.417  0.00  0.00    +0.000 A 
ENDROOT
BRANCH   1  10
ATOM      7  C   UNL     1       0.785   2.761  19.647  0.00  0.00    +0.000 A 
ATOM      8  C   UNL     1       1.361   2.254  18.486  0.00  0.00    +0.000 A 
ATOM      9  C   UNL     1       2.360   2.977  17.829  0.00  0.00    +0.000 A 
ATOM     10  C   UNL     1       2.802   4.229  18.300  0.00  0.00    +0.000 A 
ATOM     11  C   UNL     1       2.202   4.717  19.475  0.00  0.00    +0.000 A 
ATOM     12  C   UNL     1       1.210   3.991  20.145  0.00  0.00    +0.000 A 
ENDBRANCH   1  10
BRANCH   5  13
ATOM     13  C   UNL     1       5.995   4.690  14.400  0.00  0.00    +0.000 A 
ATOM     14  C   UNL     1       7.227   5.151  13.894  0.00  0.00    +0.000 A 
ATOM     15  C   UNL     1       7.724   4.715  12.661  0.00  0.00    +0.000 A 
ATOM     16  C   UNL     1       7.012   3.788  11.910  0.00  0.00    +0.000 A 
ATOM     17  C   UNL     1       5.808   3.290  12.396  0.00  0.00    +0.000 A 
ATOM     18  C   UNL     1       5.306   3.741  13.621  0.00  0.00    +0.000 A 
ENDBRANCH   5  13
TORSDOF 2
ENDMDL
MODEL 9
REMARK VINA RESULT:      -8.0      0.279      1.593
REMARK  Name = 
REMARK  2 active torsions:
REMARK  status: ('A' for Active; 'I' for Inactive)
REMARK    1  A    between atoms: C_4  and  C_5
REMARK    2  A    between atoms: C_9  and  C_10
REMARK                            x       y       z     vdW  Elec       q    Type
REMARK                         _______ _______ _______ _____ _____    ______ ____
ROOT
ATOM      1  C   UNL     1       4.632   4.214  18.020  0.00  0.00    +0.000 A 
ATOM      2  C   UNL     1       5.598   4.793  18.858  0.00  0.00    +0.000 A 
ATOM      3  C   UNL     1       6.826   5.220  18.360  0.00  0.00    +0.000 A 
ATOM      4  C   UNL     1       7.119   5.076  17.006  0.00  0.00    +0.000 A 
ATOM      5  C   UNL     1       6.207   4.484  16.117  0.00  0.00    +0.000 A 
ATOM      6  C   UNL     1       4.974   4.052  16.660  0.00  0.00    +0.000 A 
ENDROOT
BRANCH   1  10
ATOM      7  C   UNL     1       0.754   3.058  19.529  0.00  0.00    +0.000 A 
ATOM      8  C   UNL     1       1.398   2.276  18.575  0.00  0.00    +0.000 A 
ATOM      9  C   UNL     1       2.655   2.655  18.096  0.00  0.00    +0.000 A 
ATOM     10  C   UNL     1       3.297   3.828  18.541  0.00  0.00    +0.000 A 
ATOM     11  C   UNL     1       2.621   4.598  19.505  0.00  0.00    +0.000 A 
ATOM     12  C   UNL     1       1.368   4.216  19.998  0.00  0.00    +0.000 A 
ENDBRANCH   1  10
BRANCH   5  13
ATOM     13  C   UNL     1       6.508   4.371  14.667  0.00  0.00    +0.000 A 
ATOM     14  C   UNL     1       7.513   5.149  14.057  0.00  0.00    +0.000 A 
ATOM     15  C   UNL     1       7.746   5.097  12.678  0.00  0.00    +0.000 A 
ATOM     16  C   UNL     1       6.995   4.247  11.875  0.00  0.00    +0.000 A 
ATOM     17  C   UNL     1       6.017   3.444  12.451  0.00  0.00    +0.000 A 
ATOM     18  C   UNL     1       5.775   3.512  13.827  0.00  0.00    +0.000 A 
ENDBRANCH   5  13
TORSDOF 2
ENDMDL
