MODEL 1
REMARK VINA RESULT:      -6.4      0.000      0.000
REMARK  Name = 
REMARK  2 active torsions:
REMARK  status: ('A' for Active; 'I' for Inactive)
REMARK    1  A    between atoms: C_9  and  C_10
REMARK    2  A    between atoms: C_9  and  C_15
REMARK                            x       y       z     vdW  Elec       q    Type
REMARK                         _______ _______ _______ _____ _____    ______ ____
ROOT
ATOM      1  C   UNL     1       0.092   9.109  22.352  0.00  0.00    +0.000 A 
ATOM      2  C   UNL     1       0.202   9.195  20.956  0.00  0.00    +0.000 A 
ATOM      3  C   UNL     1      -0.261  10.317  20.270  0.00  0.00    +0.000 A 
ATOM      4  C   UNL     1      -0.835  11.348  21.001  0.00  0.00    +0.000 A 
ATOM      5  C   UNL     1      -0.947  11.265  22.410  0.00  0.00    +0.000 A 
ATOM      6  C   UNL     1      -0.484  10.144  23.089  0.00  0.00    +0.000 A 
ATOM      7  C   UNL     1      -1.620  12.475  23.027  0.00  0.00    +0.000 C 
ATOM      8  C   UNL     1      -0.813  13.741  22.683  0.00  0.00    +0.000 C 
ATOM      9  C   UNL     1      -0.619  13.862  21.101  0.00  0.00    +0.000 C 
ATOM     10  C   UNL     1      -1.406  12.647  20.429  0.00  0.00    +0.000 C 
ATOM     11  C   UNL     1      -2.833  12.708  20.950  0.00  0.00    +0.000 A 
ATOM     12  C   UNL     1      -3.980  12.824  20.174  0.00  0.00    +0.000 A 
ATOM     13  C   UNL     1      -5.212  12.915  20.812  0.00  0.00    +0.000 A 
ATOM     14  C   UNL     1      -5.278  12.865  22.203  0.00  0.00    +0.000 A 
ATOM     15  C   UNL     1      -4.108  12.716  22.941  0.00  0.00    +0.000 A 
ATOM     16  N   UNL     1      -2.924  12.641  22.307  0.00  0.00    +0.000 N 
ENDROOT
BRANCH   9  17
ATOM     17  C   UNL     1       0.854  13.779  20.684  0.00  0.00    +0.000 A 
ATOM     18  C   UNL     1       1.372  13.563  19.379  0.00  0.00    +0.000 A 
ATOM     19  C   UNL     1       2.733  13.499  19.538  0.00  0.00    +0.000 A 
ATOM     20  N   UNL     1       2.967  13.687  20.866  0.00  0.00    +0.000 N 
ATOM     21  N   UNL     1       1.845  13.857  21.584  0.00  0.00    +0.000 NA
ATOM     22  H   UNL     1       3.863  13.702  21.347  0.00  0.00    +0.000 HD
ENDBRANCH   9  17
BRANCH   9  23
ATOM     23  C   UNL     1      -1.176  15.219  20.643  0.00  0.00    +0.000 A 
ATOM     24  C   UNL     1      -1.921  16.158  21.404  0.00  0.00    +0.000 A 
ATOM     25  C   UNL     1      -2.231  17.167  20.526  0.00  0.00    +0.000 A 
ATOM     26  N   UNL     1      -1.655  16.830  19.341  0.00  0.00    +0.000 N 
ATOM     27  N   UNL     1      -1.020  15.645  19.381  0.00  0.00    +0.000 NA
ATOM     28  H   UNL     1      -1.666  17.350  18.468  0.00  0.00    +0.000 HD
ENDBRANCH   9  23
TORSDOF 2
ENDMDL
MODEL 2
REMARK VINA RESULT:      -5.9      1.264      1.375
REMARK  Name = 
REMARK  2 active torsions:
REMARK  status: ('A' for Active; 'I' for Inactive)
REMARK    1  A    between atoms: C_9  and  C_10
REMARK    2  A    between atoms: C_9  and  C_15
REMARK                            x       y       z     vdW  Elec       q    Type
REMARK                         _______ _______ _______ _____ _____    ______ ____
ROOT
ATOM      1  C   UNL     1       0.983   9.027  21.169  0.00  0.00    +0.000 A 
ATOM      2  C   UNL     1       0.810   9.139  19.781  0.00  0.00    +0.000 A 
ATOM      3  C   UNL     1       0.205  10.266  19.225  0.00  0.00    +0.000 A 
ATOM      4  C   UNL     1      -0.224  11.274  20.077  0.00  0.00    +0.000 A 
ATOM      5  C   UNL     1      -0.051  11.164  21.478  0.00  0.00    +0.000 A 
ATOM      6  C   UNL     1       0.552  10.039  22.028  0.00  0.00    +0.000 A 
ATOM      7  C   UNL     1      -0.602  12.352  22.242  0.00  0.00    +0.000 C 
ATOM      8  C   UNL     1       0.104  13.637  21.770  0.00  0.00    +0.000 C 
ATOM      9  C   UNL     1      -0.024  13.789  20.184  0.00  0.00    +0.000 C 
ATOM     10  C   UNL     1      -0.914  12.573  19.657  0.00  0.00    +0.000 C 
ATOM     11  C   UNL     1      -2.209  12.601  20.454  0.00  0.00    +0.000 A 
ATOM     12  C   UNL     1      -3.489  12.712  19.925  0.00  0.00    +0.000 A 
ATOM     13  C   UNL     1      -4.570  12.772  20.798  0.00  0.00    +0.000 A 
ATOM     14  C   UNL     1      -4.356  12.696  22.173  0.00  0.00    +0.000 A 
ATOM     15  C   UNL     1      -3.061  12.553  22.660  0.00  0.00    +0.000 A 
ATOM     16  N   UNL     1      -2.026  12.509  21.801  0.00  0.00    +0.000 N 
ENDROOT
BRANCH   9  17
ATOM     17  C   UNL     1       1.337  13.738  19.480  0.00  0.00    +0.000 A 
ATOM     18  C   UNL     1       2.596  14.135  20.003  0.00  0.00    +0.000 A 
ATOM     19  C   UNL     1       3.484  13.966  18.972  0.00  0.00    +0.000 A 
ATOM     20  N   UNL     1       2.760  13.480  17.926  0.00  0.00    +0.000 N 
ATOM     21  N   UNL     1       1.454  13.334  18.206  0.00  0.00    +0.000 NA
ATOM     22  H   UNL     1       3.090  13.236  16.995  0.00  0.00    +0.000 HD
ENDBRANCH   9  17
BRANCH   9  23
ATOM     23  C   UNL     1      -0.679  15.144  19.874  0.00  0.00    +0.000 A 
ATOM     24  C   UNL     1      -1.516  15.921  20.717  0.00  0.00    +0.000 A 
ATOM     25  C   UNL     1      -1.886  17.004  19.958  0.00  0.00    +0.000 A 
ATOM     26  N   UNL     1      -1.257  16.861  18.760  0.00  0.00    +0.000 N 
ATOM     27  N   UNL     1      -0.528  15.733  18.678  0.00  0.00    +0.000 NA
ATOM     28  H   UNL     1      -1.289  17.481  17.957  0.00  0.00    +0.000 HD
ENDBRANCH   9  23
TORSDOF 2
ENDMDL
MODEL 3
REMARK VINA RESULT:      -5.9      8.441     10.670
REMARK  Name = 
REMARK  2 active torsions:
REMARK  status: ('A' for Active; 'I' for Inactive)
REMARK    1  A    between atoms: C_9  and  C_10
REMARK    2  A    between atoms: C_9  and  C_15
REMARK                            x       y       z     vdW  Elec       q    Type
REMARK                         _______ _______ _______ _____ _____    ______ ____
ROOT
ATOM      1  C   UNL     1      10.491  10.802  18.698  0.00  0.00    +0.000 A 
ATOM      2  C   UNL     1       9.513  11.265  17.805  0.00  0.00    +0.000 A 
ATOM      3  C   UNL     1       8.786  12.424  18.079  0.00  0.00    +0.000 A 
ATOM      4  C   UNL     1       9.053  13.107  19.257  0.00  0.00    +0.000 A 
ATOM      5  C   UNL     1      10.039  12.643  20.160  0.00  0.00    +0.000 A 
ATOM      6  C   UNL     1      10.760  11.487  19.884  0.00  0.00    +0.000 A 
ATOM      7  C   UNL     1      10.169  13.508  21.398  0.00  0.00    +0.000 C 
ATOM      8  C   UNL     1      10.537  14.945  20.983  0.00  0.00    +0.000 C 
ATOM      9  C   UNL     1       9.476  15.505  19.926  0.00  0.00    +0.000 C 
ATOM     10  C   UNL     1       8.357  14.384  19.732  0.00  0.00    +0.000 C 
ATOM     11  C   UNL     1       7.830  14.047  21.118  0.00  0.00    +0.000 A 
ATOM     12  C   UNL     1       6.509  14.151  21.535  0.00  0.00    +0.000 A 
ATOM     13  C   UNL     1       6.199  13.848  22.857  0.00  0.00    +0.000 A 
ATOM     14  C   UNL     1       7.204  13.428  23.725  0.00  0.00    +0.000 A 
ATOM     15  C   UNL     1       8.509  13.307  23.259  0.00  0.00    +0.000 A 
ATOM     16  N   UNL     1       8.792  13.615  21.981  0.00  0.00    +0.000 N 
ENDROOT
BRANCH   9  17
ATOM     17  C   UNL     1      10.110  15.802  18.562  0.00  0.00    +0.000 A 
ATOM     18  C   UNL     1      11.480  15.693  18.204  0.00  0.00    +0.000 A 
ATOM     19  C   UNL     1      11.550  16.137  16.908  0.00  0.00    +0.000 A 
ATOM     20  N   UNL     1      10.277  16.462  16.551  0.00  0.00    +0.000 N 
ATOM     21  N   UNL     1       9.384  16.271  17.536  0.00  0.00    +0.000 NA
ATOM     22  H   UNL     1       9.949  16.826  15.660  0.00  0.00    +0.000 HD
ENDBRANCH   9  17
BRANCH   9  23
ATOM     23  C   UNL     1       8.881  16.810  20.478  0.00  0.00    +0.000 A 
ATOM     24  C   UNL     1       9.385  17.625  21.525  0.00  0.00    +0.000 A 
ATOM     25  C   UNL     1       8.462  18.631  21.674  0.00  0.00    +0.000 A 
ATOM     26  N   UNL     1       7.507  18.413  20.730  0.00  0.00    +0.000 N 
ATOM     27  N   UNL     1       7.730  17.306  19.999  0.00  0.00    +0.000 NA
ATOM     28  H   UNL     1       6.677  18.966  20.539  0.00  0.00    +0.000 HD
ENDBRANCH   9  23
TORSDOF 2
ENDMDL
MODEL 4
REMARK VINA RESULT:      -5.9      9.392     11.608
REMARK  Name = 
REMARK  2 active torsions:
REMARK  status: ('A' for Active; 'I' for Inactive)
REMARK    1  A    between atoms: C_9  and  C_10
REMARK    2  A    between atoms: C_9  and  C_15
REMARK                            x       y       z     vdW  Elec       q    Type
REMARK                         _______ _______ _______ _____ _____    ______ ____
ROOT
ATOM      1  C   UNL     1       9.293  10.921  18.175  0.00  0.00    +0.000 A 
ATOM      2  C   UNL     1      10.124  10.777  19.296  0.00  0.00    +0.000 A 
ATOM      3  C   UNL     1      10.467  11.879  20.078  0.00  0.00    +0.000 A 
ATOM      4  C   UNL     1       9.965  13.124  19.722  0.00  0.00    +0.000 A 
ATOM      5  C   UNL     1       9.126  13.273  18.592  0.00  0.00    +0.000 A 
ATOM      6  C   UNL     1       8.788  12.171  17.814  0.00  0.00    +0.000 A 
ATOM      7  C   UNL     1       8.699  14.707  18.351  0.00  0.00    +0.000 C 
ATOM      8  C   UNL     1       7.940  15.230  19.586  0.00  0.00    +0.000 C 
ATOM      9  C   UNL     1       8.829  15.046  20.901  0.00  0.00    +0.000 C 
ATOM     10  C   UNL     1      10.236  14.443  20.448  0.00  0.00    +0.000 C 
ATOM     11  C   UNL     1      10.784  15.372  19.376  0.00  0.00    +0.000 A 
ATOM     12  C   UNL     1      11.999  16.044  19.423  0.00  0.00    +0.000 A 
ATOM     13  C   UNL     1      12.333  16.897  18.377  0.00  0.00    +0.000 A 
ATOM     14  C   UNL     1      11.463  17.044  17.299  0.00  0.00    +0.000 A 
ATOM     15  C   UNL     1      10.270  16.328  17.275  0.00  0.00    +0.000 A 
ATOM     16  N   UNL     1       9.959  15.517  18.301  0.00  0.00    +0.000 N 
ENDROOT
BRANCH   9  17
ATOM     17  C   UNL     1       8.189  14.084  21.910  0.00  0.00    +0.000 A 
ATOM     18  C   UNL     1       8.847  13.310  22.903  0.00  0.00    +0.000 A 
ATOM     19  C   UNL     1       7.859  12.565  23.493  0.00  0.00    +0.000 A 
ATOM     20  N   UNL     1       6.699  12.918  22.872  0.00  0.00    +0.000 N 
ATOM     21  N   UNL     1       6.871  13.835  21.906  0.00  0.00    +0.000 NA
ATOM     22  H   UNL     1       5.761  12.567  23.050  0.00  0.00    +0.000 HD
ENDBRANCH   9  17
BRANCH   9  23
ATOM     23  C   UNL     1       8.992  16.416  21.576  0.00  0.00    +0.000 A 
ATOM     24  C   UNL     1       9.834  16.756  22.668  0.00  0.00    +0.000 A 
ATOM     25  C   UNL     1       9.569  18.077  22.930  0.00  0.00    +0.000 A 
ATOM     26  N   UNL     1       8.652  18.471  22.005  0.00  0.00    +0.000 N 
ATOM     27  N   UNL     1       8.275  17.478  21.180  0.00  0.00    +0.000 NA
ATOM     28  H   UNL     1       8.234  19.390  21.888  0.00  0.00    +0.000 HD
ENDBRANCH   9  23
TORSDOF 2
ENDMDL
MODEL 5
REMARK VINA RESULT:      -5.9      2.259      5.847
REMARK  Name = 
REMARK  2 active torsions:
REMARK  status: ('A' for Active; 'I' for Inactive)
REMARK    1  A    between atoms: C_9  and  C_10
REMARK    2  A    between atoms: C_9  and  C_15
REMARK                            x       y       z     vdW  Elec       q    Type
REMARK                         _______ _______ _______ _____ _____    ______ ____
ROOT
ATOM      1  C   UNL     1      -1.887  16.504  25.840  0.00  0.00    +0.000 A 
ATOM      2  C   UNL     1      -3.144  16.854  25.327  0.00  0.00    +0.000 A 
ATOM      3  C   UNL     1      -3.554  16.404  24.072  0.00  0.00    +0.000 A 
ATOM      4  C   UNL     1      -2.688  15.601  23.343  0.00  0.00    +0.000 A 
ATOM      5  C   UNL     1      -1.419  15.245  23.858  0.00  0.00    +0.000 A 
ATOM      6  C   UNL     1      -1.014  15.697  25.109  0.00  0.00    +0.000 A 
ATOM      7  C   UNL     1      -0.609  14.385  22.909  0.00  0.00    +0.000 C 
ATOM      8  C   UNL     1      -1.385  13.089  22.604  0.00  0.00    +0.000 C 
ATOM      9  C   UNL     1      -2.847  13.433  22.057  0.00  0.00    +0.000 C 
ATOM     10  C   UNL     1      -2.956  15.022  21.952  0.00  0.00    +0.000 C 
ATOM     11  C   UNL     1      -1.781  15.486  21.105  0.00  0.00    +0.000 A 
ATOM     12  C   UNL     1      -1.865  16.209  19.921  0.00  0.00    +0.000 A 
ATOM     13  C   UNL     1      -0.692  16.515  19.240  0.00  0.00    +0.000 A 
ATOM     14  C   UNL     1       0.537  16.116  19.762  0.00  0.00    +0.000 A 
ATOM     15  C   UNL     1       0.579  15.421  20.967  0.00  0.00    +0.000 A 
ATOM     16  N   UNL     1      -0.567  15.124  21.606  0.00  0.00    +0.000 N 
ENDROOT
BRANCH   9  17
ATOM     17  C   UNL     1      -3.954  12.930  22.990  0.00  0.00    +0.000 A 
ATOM     18  C   UNL     1      -5.318  13.326  23.004  0.00  0.00    +0.000 A 
ATOM     19  C   UNL     1      -5.878  12.652  24.059  0.00  0.00    +0.000 A 
ATOM     20  N   UNL     1      -4.880  11.901  24.599  0.00  0.00    +0.000 N 
ATOM     21  N   UNL     1      -3.702  12.052  23.972  0.00  0.00    +0.000 NA
ATOM     22  H   UNL     1      -4.930  11.273  25.398  0.00  0.00    +0.000 HD
ENDBRANCH   9  17
BRANCH   9  23
ATOM     23  C   UNL     1      -3.026  12.763  20.687  0.00  0.00    +0.000 A 
ATOM     24  C   UNL     1      -2.056  12.057  19.927  0.00  0.00    +0.000 A 
ATOM     25  C   UNL     1      -2.693  11.712  18.761  0.00  0.00    +0.000 A 
ATOM     26  N   UNL     1      -3.970  12.167  18.876  0.00  0.00    +0.000 N 
ATOM     27  N   UNL     1      -4.195  12.821  20.031  0.00  0.00    +0.000 NA
ATOM     28  H   UNL     1      -4.730  12.080  18.208  0.00  0.00    +0.000 HD
ENDBRANCH   9  23
TORSDOF 2
ENDMDL
MODEL 6
REMARK VINA RESULT:      -5.8      8.778     10.981
REMARK  Name = 
REMARK  2 active torsions:
REMARK  status: ('A' for Active; 'I' for Inactive)
REMARK    1  A    between atoms: C_9  and  C_10
REMARK    2  A    between atoms: C_9  and  C_15
REMARK                            x       y       z     vdW  Elec       q    Type
REMARK                         _______ _______ _______ _____ _____    ______ ____
ROOT
ATOM      1  C   UNL     1       8.969   9.775  18.790  0.00  0.00    +0.000 A 
ATOM      2  C   UNL     1       8.371  10.544  17.781  0.00  0.00    +0.000 A 
ATOM      3  C   UNL     1       8.255  11.928  17.911  0.00  0.00    +0.000 A 
ATOM      4  C   UNL     1       8.745  12.526  19.063  0.00  0.00    +0.000 A 
ATOM      5  C   UNL     1       9.349  11.753  20.083  0.00  0.00    +0.000 A 
ATOM      6  C   UNL     1       9.462  10.374  19.950  0.00  0.00    +0.000 A 
ATOM      7  C   UNL     1       9.801  12.580  21.271  0.00  0.00    +0.000 C 
ATOM      8  C   UNL     1      10.819  13.637  20.802  0.00  0.00    +0.000 C 
ATOM      9  C   UNL     1      10.201  14.514  19.617  0.00  0.00    +0.000 C 
ATOM     10  C   UNL     1       8.700  14.020  19.389  0.00  0.00    +0.000 C 
ATOM     11  C   UNL     1       8.002  14.104  20.738  0.00  0.00    +0.000 A 
ATOM     12  C   UNL     1       6.862  14.845  21.020  0.00  0.00    +0.000 A 
ATOM     13  C   UNL     1       6.375  14.852  22.323  0.00  0.00    +0.000 A 
ATOM     14  C   UNL     1       7.019  14.106  23.308  0.00  0.00    +0.000 A 
ATOM     15  C   UNL     1       8.140  13.352  22.975  0.00  0.00    +0.000 A 
ATOM     16  N   UNL     1       8.603  13.367  21.713  0.00  0.00    +0.000 N 
ENDROOT
BRANCH   9  17
ATOM     17  C   UNL     1      10.973  14.348  18.303  0.00  0.00    +0.000 A 
ATOM     18  C   UNL     1      11.831  13.278  17.934  0.00  0.00    +0.000 A 
ATOM     19  C   UNL     1      12.333  13.626  16.706  0.00  0.00    +0.000 A 
ATOM     20  N   UNL     1      11.770  14.825  16.394  0.00  0.00    +0.000 N 
ATOM     21  N   UNL     1      10.942  15.287  17.346  0.00  0.00    +0.000 NA
ATOM     22  H   UNL     1      11.912  15.385  15.557  0.00  0.00    +0.000 HD
ENDBRANCH   9  17
BRANCH   9  23
ATOM     23  C   UNL     1      10.253  15.994  20.026  0.00  0.00    +0.000 A 
ATOM     24  C   UNL     1       9.478  17.068  19.515  0.00  0.00    +0.000 A 
ATOM     25  C   UNL     1       9.945  18.187  20.158  0.00  0.00    +0.000 A 
ATOM     26  N   UNL     1      10.909  17.757  21.017  0.00  0.00    +0.000 N 
ATOM     27  N   UNL     1      11.125  16.431  20.947  0.00  0.00    +0.000 NA
ATOM     28  H   UNL     1      11.463  18.309  21.665  0.00  0.00    +0.000 HD
ENDBRANCH   9  23
TORSDOF 2
ENDMDL
MODEL 7
REMARK VINA RESULT:      -5.8      1.527      4.892
REMARK  Name = 
REMARK  2 active torsions:
REMARK  status: ('A' for Active; 'I' for Inactive)
REMARK    1  A    between atoms: C_9  and  C_10
REMARK    2  A    between atoms: C_9  and  C_15
REMARK                            x       y       z     vdW  Elec       q    Type
REMARK                         _______ _______ _______ _____ _____    ______ ____
ROOT
ATOM      1  C   UNL     1      -4.305  11.850  18.446  0.00  0.00    +0.000 A 
ATOM      2  C   UNL     1      -4.524  12.472  19.684  0.00  0.00    +0.000 A 
ATOM      3  C   UNL     1      -3.456  12.791  20.523  0.00  0.00    +0.000 A 
ATOM      4  C   UNL     1      -2.171  12.479  20.103  0.00  0.00    +0.000 A 
ATOM      5  C   UNL     1      -1.946  11.852  18.854  0.00  0.00    +0.000 A 
ATOM      6  C   UNL     1      -3.013  11.534  18.023  0.00  0.00    +0.000 A 
ATOM      7  C   UNL     1      -0.481  11.570  18.583  0.00  0.00    +0.000 C 
ATOM      8  C   UNL     1       0.307  12.894  18.605  0.00  0.00    +0.000 C 
ATOM      9  C   UNL     1       0.055  13.666  19.981  0.00  0.00    +0.000 C 
ATOM     10  C   UNL     1      -0.881  12.741  20.884  0.00  0.00    +0.000 C 
ATOM     11  C   UNL     1      -0.199  11.386  20.976  0.00  0.00    +0.000 A 
ATOM     12  C   UNL     1       0.191  10.747  22.147  0.00  0.00    +0.000 A 
ATOM     13  C   UNL     1       0.850   9.526  22.055  0.00  0.00    +0.000 A 
ATOM     14  C   UNL     1       1.084   8.957  20.805  0.00  0.00    +0.000 A 
ATOM     15  C   UNL     1       0.649   9.614  19.658  0.00  0.00    +0.000 A 
ATOM     16  N   UNL     1       0.024  10.801  19.766  0.00  0.00    +0.000 N 
ENDROOT
BRANCH   9  17
ATOM     17  C   UNL     1      -0.646  15.015  19.775  0.00  0.00    +0.000 A 
ATOM     18  C   UNL     1      -1.525  15.678  20.672  0.00  0.00    +0.000 A 
ATOM     19  C   UNL     1      -1.940  16.802  20.005  0.00  0.00    +0.000 A 
ATOM     20  N   UNL     1      -1.309  16.779  18.799  0.00  0.00    +0.000 N 
ATOM     21  N   UNL     1      -0.520  15.705  18.632  0.00  0.00    +0.000 NA
ATOM     22  H   UNL     1      -1.379  17.456  18.043  0.00  0.00    +0.000 HD
ENDBRANCH   9  17
BRANCH   9  23
ATOM     23  C   UNL     1       1.412  13.924  20.653  0.00  0.00    +0.000 A 
ATOM     24  C   UNL     1       2.706  13.635  20.144  0.00  0.00    +0.000 A 
ATOM     25  C   UNL     1       3.575  13.996  21.145  0.00  0.00    +0.000 A 
ATOM     26  N   UNL     1       2.808  14.498  22.150  0.00  0.00    +0.000 N 
ATOM     27  N   UNL     1       1.491  14.454  21.883  0.00  0.00    +0.000 NA
ATOM     28  H   UNL     1       3.114  14.873  23.044  0.00  0.00    +0.000 HD
ENDBRANCH   9  23
TORSDOF 2
ENDMDL
MODEL 8
REMARK VINA RESULT:      -5.8      2.273      4.517
REMARK  Name = 
REMARK  2 active torsions:
REMARK  status: ('A' for Active; 'I' for Inactive)
REMARK    1  A    between atoms: C_9  and  C_10
REMARK    2  A    between atoms: C_9  and  C_15
REMARK                            x       y       z     vdW  Elec       q    Type
REMARK                         _______ _______ _______ _____ _____    ______ ____
ROOT
ATOM      1  C   UNL     1      -3.746  11.183  18.223  0.00  0.00    +0.000 A 
ATOM      2  C   UNL     1      -2.906  11.207  17.099  0.00  0.00    +0.000 A 
ATOM      3  C   UNL     1      -1.677  11.864  17.139  0.00  0.00    +0.000 A 
ATOM      4  C   UNL     1      -1.303  12.494  18.318  0.00  0.00    +0.000 A 
ATOM      5  C   UNL     1      -2.147  12.472  19.454  0.00  0.00    +0.000 A 
ATOM      6  C   UNL     1      -3.372  11.817  19.409  0.00  0.00    +0.000 A 
ATOM      7  C   UNL     1      -1.579  13.233  20.635  0.00  0.00    +0.000 C 
ATOM      8  C   UNL     1      -0.222  12.622  21.033  0.00  0.00    +0.000 C 
ATOM      9  C   UNL     1       0.760  12.584  19.772  0.00  0.00    +0.000 C 
ATOM     10  C   UNL     1      -0.004  13.269  18.550  0.00  0.00    +0.000 C 
ATOM     11  C   UNL     1      -0.450  14.642  19.028  0.00  0.00    +0.000 A 
ATOM     12  C   UNL     1      -0.110  15.858  18.447  0.00  0.00    +0.000 A 
ATOM     13  C   UNL     1      -0.564  17.032  19.039  0.00  0.00    +0.000 A 
ATOM     14  C   UNL     1      -1.365  16.970  20.177  0.00  0.00    +0.000 A 
ATOM     15  C   UNL     1      -1.709  15.730  20.708  0.00  0.00    +0.000 A 
ATOM     16  N   UNL     1      -1.251  14.606  20.129  0.00  0.00    +0.000 N 
ENDROOT
BRANCH   9  17
ATOM     17  C   UNL     1       1.138  11.154  19.369  0.00  0.00    +0.000 A 
ATOM     18  C   UNL     1       1.784  10.735  18.175  0.00  0.00    +0.000 A 
ATOM     19  C   UNL     1       1.833   9.366  18.253  0.00  0.00    +0.000 A 
ATOM     20  N   UNL     1       1.257   9.035  19.441  0.00  0.00    +0.000 N 
ATOM     21  N   UNL     1       0.825  10.100  20.137  0.00  0.00    +0.000 NA
ATOM     22  H   UNL     1       1.118   8.107  19.833  0.00  0.00    +0.000 HD
ENDBRANCH   9  17
BRANCH   9  23
ATOM     23  C   UNL     1       2.047  13.342  20.131  0.00  0.00    +0.000 A 
ATOM     24  C   UNL     1       2.962  13.973  19.248  0.00  0.00    +0.000 A 
ATOM     25  C   UNL     1       3.968  14.450  20.053  0.00  0.00    +0.000 A 
ATOM     26  N   UNL     1       3.615  14.136  21.329  0.00  0.00    +0.000 N 
ATOM     27  N   UNL     1       2.459  13.451  21.403  0.00  0.00    +0.000 NA
ATOM     28  H   UNL     1       4.116  14.344  22.187  0.00  0.00    +0.000 HD
ENDBRANCH   9  23
TORSDOF 2
ENDMDL
MODEL 9
REMARK VINA RESULT:      -5.8      2.765      6.341
REMARK  Name = 
REMARK  2 active torsions:
REMARK  status: ('A' for Active; 'I' for Inactive)
REMARK    1  A    between atoms: C_9  and  C_10
REMARK    2  A    between atoms: C_9  and  C_15
REMARK                            x       y       z     vdW  Elec       q    Type
REMARK                         _______ _______ _______ _____ _____    ______ ____
ROOT
ATOM      1  C   UNL     1      -2.236  16.520  25.335  0.00  0.00    +0.000 A 
ATOM      2  C   UNL     1      -2.382  17.199  24.116  0.00  0.00    +0.000 A 
ATOM      3  C   UNL     1      -2.824  16.531  22.974  0.00  0.00    +0.000 A 
ATOM      4  C   UNL     1      -3.116  15.178  23.072  0.00  0.00    +0.000 A 
ATOM      5  C   UNL     1      -2.971  14.490  24.301  0.00  0.00    +0.000 A 
ATOM      6  C   UNL     1      -2.529  15.159  25.436  0.00  0.00    +0.000 A 
ATOM      7  C   UNL     1      -3.316  13.017  24.204  0.00  0.00    +0.000 C 
ATOM      8  C   UNL     1      -4.775  12.862  23.736  0.00  0.00    +0.000 C 
ATOM      9  C   UNL     1      -5.007  13.658  22.370  0.00  0.00    +0.000 C 
ATOM     10  C   UNL     1      -3.602  14.279  21.934  0.00  0.00    +0.000 C 
ATOM     11  C   UNL     1      -2.608  13.128  21.896  0.00  0.00    +0.000 A 
ATOM     12  C   UNL     1      -1.862  12.732  20.793  0.00  0.00    +0.000 A 
ATOM     13  C   UNL     1      -1.030  11.624  20.912  0.00  0.00    +0.000 A 
ATOM     14  C   UNL     1      -0.941  10.951  22.129  0.00  0.00    +0.000 A 
ATOM     15  C   UNL     1      -1.681  11.401  23.218  0.00  0.00    +0.000 A 
ATOM     16  N   UNL     1      -2.490  12.467  23.081  0.00  0.00    +0.000 N 
ENDROOT
BRANCH   9  17
ATOM     17  C   UNL     1      -6.018  14.801  22.522  0.00  0.00    +0.000 A 
ATOM     18  C   UNL     1      -6.808  15.108  23.661  0.00  0.00    +0.000 A 
ATOM     19  C   UNL     1      -7.597  16.163  23.278  0.00  0.00    +0.000 A 
ATOM     20  N   UNL     1      -7.252  16.444  21.991  0.00  0.00    +0.000 N 
ATOM     21  N   UNL     1      -6.298  15.632  21.507  0.00  0.00    +0.000 NA
ATOM     22  H   UNL     1      -7.632  17.167  21.384  0.00  0.00    +0.000 HD
ENDBRANCH   9  17
BRANCH   9  23
ATOM     23  C   UNL     1      -5.541  12.676  21.316  0.00  0.00    +0.000 A 
ATOM     24  C   UNL     1      -5.243  12.637  19.929  0.00  0.00    +0.000 A 
ATOM     25  C   UNL     1      -6.016  11.622  19.422  0.00  0.00    +0.000 A 
ATOM     26  N   UNL     1      -6.686  11.090  20.481  0.00  0.00    +0.000 N 
ATOM     27  N   UNL     1      -6.426  11.721  21.640  0.00  0.00    +0.000 NA
ATOM     28  H   UNL     1      -7.340  10.313  20.483  0.00  0.00    +0.000 HD
ENDBRANCH   9  23
TORSDOF 2
ENDMDL
