MODEL 1
REMARK VINA RESULT:      -8.6      0.000      0.000
REMARK  Name = 
REMARK  8 active torsions:
REMARK  status: ('A' for Active; 'I' for Inactive)
REMARK    1  A    between atoms: C_1  and  C_2
REMARK    2  A    between atoms: C_2  and  C_3
REMARK    3  A    between atoms: C_2  and  C_4
REMARK    4  A    between atoms: C_2  and  S_5
REMARK    5  A    between atoms: S_5  and  C_8
REMARK    6  A    between atoms: N_13  and  C_14
REMARK    7  A    between atoms: C_14  and  C_15
REMARK    8  A    between atoms: N_17  and  C_18
REMARK                            x       y       z     vdW  Elec       q    Type
REMARK                         _______ _______ _______ _____ _____    ______ ____
ROOT
ATOM      1  C   UNL     1       4.277   3.954  18.752  0.00  0.00    +0.000 A 
ATOM      2  C   UNL     1       3.573   4.629  17.617  0.00  0.00    +0.000 A 
ATOM      3  C   UNL     1       4.171   5.660  17.015  0.00  0.00    +0.000 A 
ATOM      4  C   UNL     1       5.482   6.079  17.516  0.00  0.00    +0.000 A 
ATOM      5  N   UNL     1       6.213   7.057  17.081  0.00  0.00    +0.000 NA
ATOM      6  N   UNL     1       7.342   7.007  17.878  0.00  0.00    +0.000 N 
ATOM      7  C   UNL     1       7.244   5.953  18.816  0.00  0.00    +0.000 A 
ATOM      8  O   UNL     1       8.081   5.641  19.648  0.00  0.00    +0.000 OA
ATOM      9  N   UNL     1       6.013   5.381  18.548  0.00  0.00    +0.000 N 
ATOM     10  N   UNL     1       5.449   4.315  19.191  0.00  0.00    +0.000 NA
ENDROOT
BRANCH   1  11
ATOM     11  S   UNL     1       3.443   2.572  19.565  0.00  0.00    +0.000 S 
ATOM     12  O   UNL     1       4.407   2.081  20.552  0.00  0.00    +0.000 OA
ATOM     13  O   UNL     1       2.999   1.693  18.502  0.00  0.00    +0.000 OA
BRANCH  11  15
ATOM     14  C   UNL     1       1.823   2.523  21.780  0.00  0.00    +0.000 C 
ATOM     15  C   UNL     1       2.027   3.267  20.454  0.00  0.00    +0.000 C 
ATOM     16  C   UNL     1       0.769   3.078  19.583  0.00  0.00    +0.000 C 
ATOM     17  C   UNL     1       2.222   4.765  20.708  0.00  0.00    +0.000 C 
ENDBRANCH  11  15
ENDBRANCH   1  11
BRANCH   6  18
ATOM     18  C   UNL     1       8.502   7.855  17.648  0.00  0.00    +0.000 C 
BRANCH  18  19
ATOM     19  C   UNL     1       8.363   9.289  18.167  0.00  0.00    +0.000 C 
ATOM     20  O   UNL     1       7.436  10.008  17.799  0.00  0.00    +0.000 OA
ATOM     21  N   UNL     1       9.320   9.647  19.091  0.00  0.00    +0.000 N 
ATOM     22  H   UNL     1      10.126   9.031  19.152  0.00  0.00    +0.000 HD
BRANCH  21  23
ATOM     23  C   UNL     1       9.375  10.845  19.818  0.00  0.00    +0.000 A 
ATOM     24  C   UNL     1       9.031  10.926  21.185  0.00  0.00    +0.000 A 
ATOM     25  C   UNL     1       9.253  12.110  21.904  0.00  0.00    +0.000 A 
ATOM     26  C   UNL     1       9.796  13.177  21.223  0.00  0.00    +0.000 A 
ATOM     27  C   UNL     1      10.080  13.109  19.878  0.00  0.00    +0.000 A 
ATOM     28  C   UNL     1       9.886  11.958  19.150  0.00  0.00    +0.000 A 
ATOM     29  O   UNL     1      10.610  14.265  19.397  0.00  0.00    +0.000 OA
ATOM     30  C   UNL     1      10.882  14.941  20.639  0.00  0.00    +0.000 C 
ATOM     31  O   UNL     1      10.166  14.377  21.755  0.00  0.00    +0.000 OA
ENDBRANCH  21  23
ENDBRANCH  18  19
ENDBRANCH   6  18
TORSDOF 5
ENDMDL
MODEL 2
REMARK VINA RESULT:      -8.4      0.758      1.651
REMARK  Name = 
REMARK  8 active torsions:
REMARK  status: ('A' for Active; 'I' for Inactive)
REMARK    1  A    between atoms: C_1  and  C_2
REMARK    2  A    between atoms: C_2  and  C_3
REMARK    3  A    between atoms: C_2  and  C_4
REMARK    4  A    between atoms: C_2  and  S_5
REMARK    5  A    between atoms: S_5  and  C_8
REMARK    6  A    between atoms: N_13  and  C_14
REMARK    7  A    between atoms: C_14  and  C_15
REMARK    8  A    between atoms: N_17  and  C_18
REMARK                            x       y       z     vdW  Elec       q    Type
REMARK                         _______ _______ _______ _____ _____    ______ ____
ROOT
ATOM      1  C   UNL     1       4.258   3.928  18.852  0.00  0.00    +0.000 A 
ATOM      2  C   UNL     1       3.534   4.603  17.730  0.00  0.00    +0.000 A 
ATOM      3  C   UNL     1       4.123   5.631  17.114  0.00  0.00    +0.000 A 
ATOM      4  C   UNL     1       5.445   6.047  17.588  0.00  0.00    +0.000 A 
ATOM      5  N   UNL     1       6.170   7.021  17.136  0.00  0.00    +0.000 NA
ATOM      6  N   UNL     1       7.315   6.969  17.910  0.00  0.00    +0.000 N 
ATOM      7  C   UNL     1       7.233   5.918  18.853  0.00  0.00    +0.000 A 
ATOM      8  O   UNL     1       8.085   5.604  19.668  0.00  0.00    +0.000 OA
ATOM      9  N   UNL     1       5.995   5.349  18.611  0.00  0.00    +0.000 N 
ATOM     10  N   UNL     1       5.440   4.286  19.266  0.00  0.00    +0.000 NA
ENDROOT
BRANCH   1  11
ATOM     11  S   UNL     1       3.436   2.551  19.685  0.00  0.00    +0.000 S 
ATOM     12  O   UNL     1       4.391   2.103  20.700  0.00  0.00    +0.000 OA
ATOM     13  O   UNL     1       3.028   1.637  18.636  0.00  0.00    +0.000 OA
BRANCH  11  15
ATOM     14  C   UNL     1       2.234   4.716  20.866  0.00  0.00    +0.000 C 
ATOM     15  C   UNL     1       1.992   3.239  20.530  0.00  0.00    +0.000 C 
ATOM     16  C   UNL     1       1.785   2.462  21.846  0.00  0.00    +0.000 C 
ATOM     17  C   UNL     1       0.731   3.088  19.673  0.00  0.00    +0.000 C 
ENDBRANCH  11  15
ENDBRANCH   1  11
BRANCH   6  18
ATOM     18  C   UNL     1       8.473   7.813  17.655  0.00  0.00    +0.000 C 
BRANCH  18  19
ATOM     19  C   UNL     1       8.347   9.250  18.170  0.00  0.00    +0.000 C 
ATOM     20  O   UNL     1       7.413   9.969  17.817  0.00  0.00    +0.000 OA
ATOM     21  N   UNL     1       9.325   9.612  19.070  0.00  0.00    +0.000 N 
ATOM     22  H   UNL     1      10.130   8.996  19.117  0.00  0.00    +0.000 HD
BRANCH  21  23
ATOM     23  C   UNL     1       9.396  10.815  19.789  0.00  0.00    +0.000 A 
ATOM     24  C   UNL     1       9.735  12.046  19.188  0.00  0.00    +0.000 A 
ATOM     25  C   UNL     1       9.638  13.241  19.915  0.00  0.00    +0.000 A 
ATOM     26  C   UNL     1       9.220  13.159  21.225  0.00  0.00    +0.000 A 
ATOM     27  C   UNL     1       8.942  11.951  21.821  0.00  0.00    +0.000 A 
ATOM     28  C   UNL     1       9.015  10.763  21.129  0.00  0.00    +0.000 A 
ATOM     29  O   UNL     1       8.545  12.085  23.114  0.00  0.00    +0.000 OA
ATOM     30  C   UNL     1       8.339  13.510  23.156  0.00  0.00    +0.000 C 
ATOM     31  O   UNL     1       8.979  14.203  22.068  0.00  0.00    +0.000 OA
ENDBRANCH  21  23
ENDBRANCH  18  19
ENDBRANCH   6  18
TORSDOF 5
ENDMDL
MODEL 3
REMARK VINA RESULT:      -8.3      5.797      6.341
REMARK  Name = 
REMARK  8 active torsions:
REMARK  status: ('A' for Active; 'I' for Inactive)
REMARK    1  A    between atoms: C_1  and  C_2
REMARK    2  A    between atoms: C_2  and  C_3
REMARK    3  A    between atoms: C_2  and  C_4
REMARK    4  A    between atoms: C_2  and  S_5
REMARK    5  A    between atoms: S_5  and  C_8
REMARK    6  A    between atoms: N_13  and  C_14
REMARK    7  A    between atoms: C_14  and  C_15
REMARK    8  A    between atoms: N_17  and  C_18
REMARK                            x       y       z     vdW  Elec       q    Type
REMARK                         _______ _______ _______ _____ _____    ______ ____
ROOT
ATOM      1  C   UNL     1       2.817   6.410  19.249  0.00  0.00    +0.000 A 
ATOM      2  C   UNL     1       3.125   7.095  17.955  0.00  0.00    +0.000 A 
ATOM      3  C   UNL     1       2.619   8.311  17.737  0.00  0.00    +0.000 A 
ATOM      4  C   UNL     1       1.775   8.898  18.781  0.00  0.00    +0.000 A 
ATOM      5  N   UNL     1       1.184  10.051  18.756  0.00  0.00    +0.000 NA
ATOM      6  N   UNL     1       0.542  10.121  19.979  0.00  0.00    +0.000 N 
ATOM      7  C   UNL     1       0.774   8.948  20.732  0.00  0.00    +0.000 A 
ATOM      8  O   UNL     1       0.358   8.710  21.855  0.00  0.00    +0.000 OA
ATOM      9  N   UNL     1       1.577   8.176  19.910  0.00  0.00    +0.000 N 
ATOM     10  N   UNL     1       2.079   6.936  20.186  0.00  0.00    +0.000 NA
ENDROOT
BRANCH   1  11
ATOM     11  S   UNL     1       3.497   4.757  19.518  0.00  0.00    +0.000 S 
ATOM     12  O   UNL     1       2.851   4.280  20.742  0.00  0.00    +0.000 OA
ATOM     13  O   UNL     1       4.938   4.908  19.482  0.00  0.00    +0.000 OA
BRANCH  11  15
ATOM     14  C   UNL     1       1.509   4.142  17.728  0.00  0.00    +0.000 C 
ATOM     15  C   UNL     1       2.928   3.730  18.141  0.00  0.00    +0.000 C 
ATOM     16  C   UNL     1       2.898   2.262  18.612  0.00  0.00    +0.000 C 
ATOM     17  C   UNL     1       3.882   3.837  16.946  0.00  0.00    +0.000 C 
ENDBRANCH  11  15
ENDBRANCH   1  11
BRANCH   6  18
ATOM     18  C   UNL     1      -0.147  11.319  20.434  0.00  0.00    +0.000 C 
BRANCH  18  19
ATOM     19  C   UNL     1       0.708  12.590  20.445  0.00  0.00    +0.000 C 
ATOM     20  O   UNL     1       1.163  13.037  21.496  0.00  0.00    +0.000 OA
ATOM     21  N   UNL     1       0.942  13.119  19.195  0.00  0.00    +0.000 N 
ATOM     22  H   UNL     1       0.352  12.765  18.449  0.00  0.00    +0.000 HD
BRANCH  21  23
ATOM     23  C   UNL     1       1.780  14.202  18.889  0.00  0.00    +0.000 A 
ATOM     24  C   UNL     1       1.324  15.537  18.858  0.00  0.00    +0.000 A 
ATOM     25  C   UNL     1       2.232  16.594  18.703  0.00  0.00    +0.000 A 
ATOM     26  C   UNL     1       3.566  16.275  18.567  0.00  0.00    +0.000 A 
ATOM     27  C   UNL     1       3.998  14.969  18.545  0.00  0.00    +0.000 A 
ATOM     28  C   UNL     1       3.132  13.912  18.708  0.00  0.00    +0.000 A 
ATOM     29  O   UNL     1       5.347  14.868  18.404  0.00  0.00    +0.000 OA
ATOM     30  C   UNL     1       5.717  16.242  18.627  0.00  0.00    +0.000 C 
ATOM     31  O   UNL     1       4.607  17.151  18.493  0.00  0.00    +0.000 OA
ENDBRANCH  21  23
ENDBRANCH  18  19
ENDBRANCH   6  18
TORSDOF 5
ENDMDL
MODEL 4
REMARK VINA RESULT:      -8.2      0.800      1.145
REMARK  Name = 
REMARK  8 active torsions:
REMARK  status: ('A' for Active; 'I' for Inactive)
REMARK    1  A    between atoms: C_1  and  C_2
REMARK    2  A    between atoms: C_2  and  C_3
REMARK    3  A    between atoms: C_2  and  C_4
REMARK    4  A    between atoms: C_2  and  S_5
REMARK    5  A    between atoms: S_5  and  C_8
REMARK    6  A    between atoms: N_13  and  C_14
REMARK    7  A    between atoms: C_14  and  C_15
REMARK    8  A    between atoms: N_17  and  C_18
REMARK                            x       y       z     vdW  Elec       q    Type
REMARK                         _______ _______ _______ _____ _____    ______ ____
ROOT
ATOM      1  C   UNL     1       4.254   3.883  18.477  0.00  0.00    +0.000 A 
ATOM      2  C   UNL     1       3.843   4.551  17.203  0.00  0.00    +0.000 A 
ATOM      3  C   UNL     1       4.583   5.562  16.741  0.00  0.00    +0.000 A 
ATOM      4  C   UNL     1       5.752   5.968  17.524  0.00  0.00    +0.000 A 
ATOM      5  N   UNL     1       6.582   6.927  17.256  0.00  0.00    +0.000 NA
ATOM      6  N   UNL     1       7.498   6.871  18.292  0.00  0.00    +0.000 N 
ATOM      7  C   UNL     1       7.167   5.835  19.195  0.00  0.00    +0.000 A 
ATOM      8  O   UNL     1       7.785   5.522  20.200  0.00  0.00    +0.000 OA
ATOM      9  N   UNL     1       6.019   5.278  18.659  0.00  0.00    +0.000 N 
ATOM     10  N   UNL     1       5.302   4.232  19.168  0.00  0.00    +0.000 NA
ENDROOT
BRANCH   1  11
ATOM     11  S   UNL     1       3.230   2.529  19.095  0.00  0.00    +0.000 S 
ATOM     12  O   UNL     1       4.127   1.733  19.936  0.00  0.00    +0.000 OA
ATOM     13  O   UNL     1       2.623   1.923  17.926  0.00  0.00    +0.000 OA
BRANCH  11  15
ATOM     14  C   UNL     1       0.582   3.110  19.520  0.00  0.00    +0.000 C 
ATOM     15  C   UNL     1       1.968   3.272  20.158  0.00  0.00    +0.000 C 
ATOM     16  C   UNL     1       2.275   4.777  20.294  0.00  0.00    +0.000 C 
ATOM     17  C   UNL     1       1.988   2.644  21.555  0.00  0.00    +0.000 C 
ENDBRANCH  11  15
ENDBRANCH   1  11
BRANCH   6  18
ATOM     18  C   UNL     1       8.696   7.696  18.323  0.00  0.00    +0.000 C 
BRANCH  18  19
ATOM     19  C   UNL     1       8.437   9.204  18.387  0.00  0.00    +0.000 C 
ATOM     20  O   UNL     1       7.498   9.712  17.776  0.00  0.00    +0.000 OA
ATOM     21  N   UNL     1       9.303   9.889  19.211  0.00  0.00    +0.000 N 
ATOM     22  H   UNL     1      10.136   9.381  19.492  0.00  0.00    +0.000 HD
BRANCH  21  23
ATOM     23  C   UNL     1       9.235  11.247  19.553  0.00  0.00    +0.000 A 
ATOM     24  C   UNL     1       9.126  11.695  20.888  0.00  0.00    +0.000 A 
ATOM     25  C   UNL     1       9.221  13.062  21.187  0.00  0.00    +0.000 A 
ATOM     26  C   UNL     1       9.404  13.934  20.137  0.00  0.00    +0.000 A 
ATOM     27  C   UNL     1       9.456  13.496  18.834  0.00  0.00    +0.000 A 
ATOM     28  C   UNL     1       9.380  12.161  18.510  0.00  0.00    +0.000 A 
ATOM     29  O   UNL     1       9.643  14.512  17.949  0.00  0.00    +0.000 OA
ATOM     30  C   UNL     1       9.983  15.571  18.865  0.00  0.00    +0.000 C 
ATOM     31  O   UNL     1       9.606  15.280  20.225  0.00  0.00    +0.000 OA
ENDBRANCH  21  23
ENDBRANCH  18  19
ENDBRANCH   6  18
TORSDOF 5
ENDMDL
MODEL 5
REMARK VINA RESULT:      -8.0      1.179      1.670
REMARK  Name = 
REMARK  8 active torsions:
REMARK  status: ('A' for Active; 'I' for Inactive)
REMARK    1  A    between atoms: C_1  and  C_2
REMARK    2  A    between atoms: C_2  and  C_3
REMARK    3  A    between atoms: C_2  and  C_4
REMARK    4  A    between atoms: C_2  and  S_5
REMARK    5  A    between atoms: S_5  and  C_8
REMARK    6  A    between atoms: N_13  and  C_14
REMARK    7  A    between atoms: C_14  and  C_15
REMARK    8  A    between atoms: N_17  and  C_18
REMARK                            x       y       z     vdW  Elec       q    Type
REMARK                         _______ _______ _______ _____ _____    ______ ____
ROOT
ATOM      1  C   UNL     1       4.358   3.861  18.227  0.00  0.00    +0.000 A 
ATOM      2  C   UNL     1       4.020   4.562  16.949  0.00  0.00    +0.000 A 
ATOM      3  C   UNL     1       4.768   5.602  16.572  0.00  0.00    +0.000 A 
ATOM      4  C   UNL     1       5.872   6.005  17.447  0.00  0.00    +0.000 A 
ATOM      5  N   UNL     1       6.697   6.988  17.267  0.00  0.00    +0.000 NA
ATOM      6  N   UNL     1       7.541   6.916  18.362  0.00  0.00    +0.000 N 
ATOM      7  C   UNL     1       7.171   5.845  19.207  0.00  0.00    +0.000 A 
ATOM      8  O   UNL     1       7.725   5.512  20.243  0.00  0.00    +0.000 OA
ATOM      9  N   UNL     1       6.075   5.284  18.576  0.00  0.00    +0.000 N 
ATOM     10  N   UNL     1       5.348   4.208  19.000  0.00  0.00    +0.000 NA
ENDROOT
BRANCH   1  11
ATOM     11  S   UNL     1       3.323   2.467  18.730  0.00  0.00    +0.000 S 
ATOM     12  O   UNL     1       4.215   1.595  19.496  0.00  0.00    +0.000 OA
ATOM     13  O   UNL     1       2.707   1.970  17.515  0.00  0.00    +0.000 OA
BRANCH  11  15
ATOM     14  C   UNL     1       2.405   2.736  21.302  0.00  0.00    +0.000 C 
ATOM     15  C   UNL     1       2.070   3.127  19.857  0.00  0.00    +0.000 C 
ATOM     16  C   UNL     1       0.708   2.510  19.482  0.00  0.00    +0.000 C 
ATOM     17  C   UNL     1       1.965   4.651  19.729  0.00  0.00    +0.000 C 
ENDBRANCH  11  15
ENDBRANCH   1  11
BRANCH   6  18
ATOM     18  C   UNL     1       8.715   7.763  18.502  0.00  0.00    +0.000 C 
BRANCH  18  19
ATOM     19  C   UNL     1       8.464   9.256  18.268  0.00  0.00    +0.000 C 
ATOM     20  O   UNL     1       7.424   9.647  17.741  0.00  0.00    +0.000 OA
ATOM     21  N   UNL     1       9.466  10.075  18.739  0.00  0.00    +0.000 N 
ATOM     22  H   UNL     1      10.340   9.613  18.970  0.00  0.00    +0.000 HD
BRANCH  21  23
ATOM     23  C   UNL     1       9.455  11.477  18.769  0.00  0.00    +0.000 A 
ATOM     24  C   UNL     1       9.826  12.269  17.660  0.00  0.00    +0.000 A 
ATOM     25  C   UNL     1       9.647  13.659  17.690  0.00  0.00    +0.000 A 
ATOM     26  C   UNL     1       9.118  14.211  18.836  0.00  0.00    +0.000 A 
ATOM     27  C   UNL     1       8.808  13.440  19.933  0.00  0.00    +0.000 A 
ATOM     28  C   UNL     1       8.960  12.073  19.929  0.00  0.00    +0.000 A 
ATOM     29  O   UNL     1       8.299  14.173  20.959  0.00  0.00    +0.000 OA
ATOM     30  C   UNL     1       8.067  15.419  20.274  0.00  0.00    +0.000 C 
ATOM     31  O   UNL     1       8.788  15.519  19.031  0.00  0.00    +0.000 OA
ENDBRANCH  21  23
ENDBRANCH  18  19
ENDBRANCH   6  18
TORSDOF 5
ENDMDL
MODEL 6
REMARK VINA RESULT:      -8.0      7.678      9.952
REMARK  Name = 
REMARK  8 active torsions:
REMARK  status: ('A' for Active; 'I' for Inactive)
REMARK    1  A    between atoms: C_1  and  C_2
REMARK    2  A    between atoms: C_2  and  C_3
REMARK    3  A    between atoms: C_2  and  C_4
REMARK    4  A    between atoms: C_2  and  S_5
REMARK    5  A    between atoms: S_5  and  C_8
REMARK    6  A    between atoms: N_13  and  C_14
REMARK    7  A    between atoms: C_14  and  C_15
REMARK    8  A    between atoms: N_17  and  C_18
REMARK                            x       y       z     vdW  Elec       q    Type
REMARK                         _______ _______ _______ _____ _____    ______ ____
ROOT
ATOM      1  C   UNL     1       2.734   6.321  19.314  0.00  0.00    +0.000 A 
ATOM      2  C   UNL     1       2.993   6.949  17.982  0.00  0.00    +0.000 A 
ATOM      3  C   UNL     1       2.559   8.193  17.764  0.00  0.00    +0.000 A 
ATOM      4  C   UNL     1       1.837   8.865  18.846  0.00  0.00    +0.000 A 
ATOM      5  N   UNL     1       1.327  10.057  18.828  0.00  0.00    +0.000 NA
ATOM      6  N   UNL     1       0.783  10.203  20.092  0.00  0.00    +0.000 N 
ATOM      7  C   UNL     1       0.987   9.035  20.862  0.00  0.00    +0.000 A 
ATOM      8  O   UNL     1       0.638   8.856  22.017  0.00  0.00    +0.000 OA
ATOM      9  N   UNL     1       1.671   8.188  20.008  0.00  0.00    +0.000 N 
ATOM     10  N   UNL     1       2.104   6.922  20.285  0.00  0.00    +0.000 NA
ENDROOT
BRANCH   1  11
ATOM     11  S   UNL     1       3.314   4.631  19.583  0.00  0.00    +0.000 S 
ATOM     12  O   UNL     1       2.606   4.178  20.783  0.00  0.00    +0.000 OA
ATOM     13  O   UNL     1       4.761   4.702  19.592  0.00  0.00    +0.000 OA
BRANCH  11  15
ATOM     14  C   UNL     1       1.352   4.148  17.726  0.00  0.00    +0.000 C 
ATOM     15  C   UNL     1       2.730   3.650  18.179  0.00  0.00    +0.000 C 
ATOM     16  C   UNL     1       2.599   2.182  18.634  0.00  0.00    +0.000 C 
ATOM     17  C   UNL     1       3.727   3.710  17.016  0.00  0.00    +0.000 C 
ENDBRANCH  11  15
ENDBRANCH   1  11
BRANCH   6  18
ATOM     18  C   UNL     1       0.214  11.458  20.559  0.00  0.00    +0.000 C 
BRANCH  18  19
ATOM     19  C   UNL     1      -0.839  12.072  19.631  0.00  0.00    +0.000 C 
ATOM     20  O   UNL     1      -0.541  12.964  18.838  0.00  0.00    +0.000 OA
ATOM     21  N   UNL     1      -2.088  11.503  19.744  0.00  0.00    +0.000 N 
ATOM     22  H   UNL     1      -2.234  10.922  20.564  0.00  0.00    +0.000 HD
BRANCH  21  23
ATOM     23  C   UNL     1      -3.209  11.779  18.947  0.00  0.00    +0.000 A 
ATOM     24  C   UNL     1      -3.323  11.338  17.610  0.00  0.00    +0.000 A 
ATOM     25  C   UNL     1      -4.526  11.503  16.909  0.00  0.00    +0.000 A 
ATOM     26  C   UNL     1      -5.568  12.119  17.567  0.00  0.00    +0.000 A 
ATOM     27  C   UNL     1      -5.434  12.594  18.851  0.00  0.00    +0.000 A 
ATOM     28  C   UNL     1      -4.271  12.435  19.568  0.00  0.00    +0.000 A 
ATOM     29  O   UNL     1      -6.575  13.166  19.318  0.00  0.00    +0.000 OA
ATOM     30  C   UNL     1      -7.496  12.738  18.296  0.00  0.00    +0.000 C 
ATOM     31  O   UNL     1      -6.836  12.295  17.095  0.00  0.00    +0.000 OA
ENDBRANCH  21  23
ENDBRANCH  18  19
ENDBRANCH   6  18
TORSDOF 5
ENDMDL
MODEL 7
REMARK VINA RESULT:      -8.0      6.073      7.048
REMARK  Name = 
REMARK  8 active torsions:
REMARK  status: ('A' for Active; 'I' for Inactive)
REMARK    1  A    between atoms: C_1  and  C_2
REMARK    2  A    between atoms: C_2  and  C_3
REMARK    3  A    between atoms: C_2  and  C_4
REMARK    4  A    between atoms: C_2  and  S_5
REMARK    5  A    between atoms: S_5  and  C_8
REMARK    6  A    between atoms: N_13  and  C_14
REMARK    7  A    between atoms: C_14  and  C_15
REMARK    8  A    between atoms: N_17  and  C_18
REMARK                            x       y       z     vdW  Elec       q    Type
REMARK                         _______ _______ _______ _____ _____    ______ ____
ROOT
ATOM      1  C   UNL     1       3.743   5.816  18.446  0.00  0.00    +0.000 A 
ATOM      2  C   UNL     1       3.340   5.287  19.786  0.00  0.00    +0.000 A 
ATOM      3  C   UNL     1       2.495   6.004  20.531  0.00  0.00    +0.000 A 
ATOM      4  C   UNL     1       2.023   7.282  19.992  0.00  0.00    +0.000 A 
ATOM      5  N   UNL     1       1.218   8.124  20.560  0.00  0.00    +0.000 NA
ATOM      6  N   UNL     1       1.088   9.138  19.628  0.00  0.00    +0.000 N 
ATOM      7  C   UNL     1       1.862   8.861  18.478  0.00  0.00    +0.000 A 
ATOM      8  O   UNL     1       1.949   9.553  17.476  0.00  0.00    +0.000 OA
ATOM      9  N   UNL     1       2.460   7.646  18.762  0.00  0.00    +0.000 N 
ATOM     10  N   UNL     1       3.313   6.945  17.957  0.00  0.00    +0.000 NA
ENDROOT
BRANCH   1  11
ATOM     11  S   UNL     1       4.901   4.839  17.461  0.00  0.00    +0.000 S 
ATOM     12  O   UNL     1       4.586   5.173  16.071  0.00  0.00    +0.000 OA
ATOM     13  O   UNL     1       4.758   3.471  17.918  0.00  0.00    +0.000 OA
BRANCH  11  15
ATOM     14  C   UNL     1       7.618   4.560  17.191  0.00  0.00    +0.000 C 
ATOM     15  C   UNL     1       6.558   5.466  17.831  0.00  0.00    +0.000 C 
ATOM     16  C   UNL     1       6.752   5.448  19.361  0.00  0.00    +0.000 C 
ATOM     17  C   UNL     1       6.722   6.908  17.338  0.00  0.00    +0.000 C 
ENDBRANCH  11  15
ENDBRANCH   1  11
BRANCH   6  18
ATOM     18  C   UNL     1       0.159  10.244  19.799  0.00  0.00    +0.000 C 
BRANCH  18  19
ATOM     19  C   UNL     1       0.819  11.614  19.989  0.00  0.00    +0.000 C 
ATOM     20  O   UNL     1       1.355  11.916  21.054  0.00  0.00    +0.000 OA
ATOM     21  N   UNL     1       0.789  12.412  18.867  0.00  0.00    +0.000 N 
ATOM     22  H   UNL     1       0.152  12.117  18.133  0.00  0.00    +0.000 HD
BRANCH  21  23
ATOM     23  C   UNL     1       1.412  13.659  18.711  0.00  0.00    +0.000 A 
ATOM     24  C   UNL     1       2.740  13.799  18.252  0.00  0.00    +0.000 A 
ATOM     25  C   UNL     1       3.261  15.068  17.963  0.00  0.00    +0.000 A 
ATOM     26  C   UNL     1       2.439  16.156  18.160  0.00  0.00    +0.000 A 
ATOM     27  C   UNL     1       1.163  16.017  18.657  0.00  0.00    +0.000 A 
ATOM     28  C   UNL     1       0.620  14.785  18.936  0.00  0.00    +0.000 A 
ATOM     29  O   UNL     1       0.517  17.208  18.775  0.00  0.00    +0.000 OA
ATOM     30  C   UNL     1       1.423  18.049  18.036  0.00  0.00    +0.000 C 
ATOM     31  O   UNL     1       2.724  17.454  17.858  0.00  0.00    +0.000 OA
ENDBRANCH  21  23
ENDBRANCH  18  19
ENDBRANCH   6  18
TORSDOF 5
ENDMDL
MODEL 8
REMARK VINA RESULT:      -7.9      0.931      1.595
REMARK  Name = 
REMARK  8 active torsions:
REMARK  status: ('A' for Active; 'I' for Inactive)
REMARK    1  A    between atoms: C_1  and  C_2
REMARK    2  A    between atoms: C_2  and  C_3
REMARK    3  A    between atoms: C_2  and  C_4
REMARK    4  A    between atoms: C_2  and  S_5
REMARK    5  A    between atoms: S_5  and  C_8
REMARK    6  A    between atoms: N_13  and  C_14
REMARK    7  A    between atoms: C_14  and  C_15
REMARK    8  A    between atoms: N_17  and  C_18
REMARK                            x       y       z     vdW  Elec       q    Type
REMARK                         _______ _______ _______ _____ _____    ______ ____
ROOT
ATOM      1  C   UNL     1       4.154   3.728  18.773  0.00  0.00    +0.000 A 
ATOM      2  C   UNL     1       3.675   4.374  17.512  0.00  0.00    +0.000 A 
ATOM      3  C   UNL     1       4.383   5.383  16.999  0.00  0.00    +0.000 A 
ATOM      4  C   UNL     1       5.587   5.808  17.717  0.00  0.00    +0.000 A 
ATOM      5  N   UNL     1       6.395   6.768  17.394  0.00  0.00    +0.000 NA
ATOM      6  N   UNL     1       7.362   6.734  18.383  0.00  0.00    +0.000 N 
ATOM      7  C   UNL     1       7.084   5.710  19.317  0.00  0.00    +0.000 A 
ATOM      8  O   UNL     1       7.754   5.417  20.295  0.00  0.00    +0.000 OA
ATOM      9  N   UNL     1       5.915   5.137  18.847  0.00  0.00    +0.000 N 
ATOM     10  N   UNL     1       5.232   4.094  19.406  0.00  0.00    +0.000 NA
ENDROOT
BRANCH   1  11
ATOM     11  S   UNL     1       3.172   2.376  19.461  0.00  0.00    +0.000 S 
ATOM     12  O   UNL     1       4.006   1.807  20.521  0.00  0.00    +0.000 OA
ATOM     13  O   UNL     1       2.787   1.549  18.334  0.00  0.00    +0.000 OA
BRANCH  11  15
ATOM     14  C   UNL     1       1.960   4.623  20.468  0.00  0.00    +0.000 C 
ATOM     15  C   UNL     1       1.715   3.127  20.228  0.00  0.00    +0.000 C 
ATOM     16  C   UNL     1       1.477   2.442  21.589  0.00  0.00    +0.000 C 
ATOM     17  C   UNL     1       0.470   2.924  19.358  0.00  0.00    +0.000 C 
ENDBRANCH  11  15
ENDBRANCH   1  11
BRANCH   6  18
ATOM     18  C   UNL     1       8.553   7.568  18.343  0.00  0.00    +0.000 C 
BRANCH  18  19
ATOM     19  C   UNL     1       8.288   9.059  18.112  0.00  0.00    +0.000 C 
ATOM     20  O   UNL     1       7.269   9.439  17.538  0.00  0.00    +0.000 OA
ATOM     21  N   UNL     1       9.251   9.889  18.642  0.00  0.00    +0.000 N 
ATOM     22  H   UNL     1      10.121   9.440  18.911  0.00  0.00    +0.000 HD
BRANCH  21  23
ATOM     23  C   UNL     1       9.214  11.291  18.687  0.00  0.00    +0.000 A 
ATOM     24  C   UNL     1       8.510  12.068  17.741  0.00  0.00    +0.000 A 
ATOM     25  C   UNL     1       8.373  13.452  17.921  0.00  0.00    +0.000 A 
ATOM     26  C   UNL     1       8.963  14.012  19.033  0.00  0.00    +0.000 A 
ATOM     27  C   UNL     1       9.693  13.258  19.922  0.00  0.00    +0.000 A 
ATOM     28  C   UNL     1       9.833  11.897  19.780  0.00  0.00    +0.000 A 
ATOM     29  O   UNL     1      10.190  13.997  20.950  0.00  0.00    +0.000 OA
ATOM     30  C   UNL     1       9.452  15.218  20.747  0.00  0.00    +0.000 C 
ATOM     31  O   UNL     1       8.873  15.313  19.431  0.00  0.00    +0.000 OA
ENDBRANCH  21  23
ENDBRANCH  18  19
ENDBRANCH   6  18
TORSDOF 5
ENDMDL
MODEL 9
REMARK VINA RESULT:      -7.9      5.580      6.161
REMARK  Name = 
REMARK  8 active torsions:
REMARK  status: ('A' for Active; 'I' for Inactive)
REMARK    1  A    between atoms: C_1  and  C_2
REMARK    2  A    between atoms: C_2  and  C_3
REMARK    3  A    between atoms: C_2  and  C_4
REMARK    4  A    between atoms: C_2  and  S_5
REMARK    5  A    between atoms: S_5  and  C_8
REMARK    6  A    between atoms: N_13  and  C_14
REMARK    7  A    between atoms: C_14  and  C_15
REMARK    8  A    between atoms: N_17  and  C_18
REMARK                            x       y       z     vdW  Elec       q    Type
REMARK                         _______ _______ _______ _____ _____    ______ ____
ROOT
ATOM      1  C   UNL     1       2.875   6.401  19.204  0.00  0.00    +0.000 A 
ATOM      2  C   UNL     1       3.196   7.057  17.899  0.00  0.00    +0.000 A 
ATOM      3  C   UNL     1       2.702   8.273  17.653  0.00  0.00    +0.000 A 
ATOM      4  C   UNL     1       1.856   8.888  18.679  0.00  0.00    +0.000 A 
ATOM      5  N   UNL     1       1.275  10.045  18.628  0.00  0.00    +0.000 NA
ATOM      6  N   UNL     1       0.626  10.144  19.845  0.00  0.00    +0.000 N 
ATOM      7  C   UNL     1       0.844   8.984  20.623  0.00  0.00    +0.000 A 
ATOM      8  O   UNL     1       0.418   8.772  21.748  0.00  0.00    +0.000 OA
ATOM      9  N   UNL     1       1.645   8.190  19.821  0.00  0.00    +0.000 N 
ATOM     10  N   UNL     1       2.135   6.951  20.125  0.00  0.00    +0.000 NA
ENDROOT
BRANCH   1  11
ATOM     11  S   UNL     1       3.539   4.748  19.510  0.00  0.00    +0.000 S 
ATOM     12  O   UNL     1       2.912   4.317  20.761  0.00  0.00    +0.000 OA
ATOM     13  O   UNL     1       4.981   4.879  19.442  0.00  0.00    +0.000 OA
BRANCH  11  15
ATOM     14  C   UNL     1       3.858   3.787  16.959  0.00  0.00    +0.000 C 
ATOM     15  C   UNL     1       2.930   3.687  18.177  0.00  0.00    +0.000 C 
ATOM     16  C   UNL     1       1.526   4.179  17.769  0.00  0.00    +0.000 C 
ATOM     17  C   UNL     1       2.818   2.231  18.642  0.00  0.00    +0.000 C 
ENDBRANCH  11  15
ENDBRANCH   1  11
BRANCH   6  18
ATOM     18  C   UNL     1      -0.057  11.356  20.272  0.00  0.00    +0.000 C 
BRANCH  18  19
ATOM     19  C   UNL     1       0.552  12.658  19.742  0.00  0.00    +0.000 C 
ATOM     20  O   UNL     1      -0.163  13.610  19.432  0.00  0.00    +0.000 OA
ATOM     21  N   UNL     1       1.928  12.661  19.704  0.00  0.00    +0.000 N 
ATOM     22  H   UNL     1       2.373  11.753  19.801  0.00  0.00    +0.000 HD
BRANCH  21  23
ATOM     23  C   UNL     1       2.754  13.747  19.378  0.00  0.00    +0.000 A 
ATOM     24  C   UNL     1       2.943  14.193  18.052  0.00  0.00    +0.000 A 
ATOM     25  C   UNL     1       3.650  15.376  17.795  0.00  0.00    +0.000 A 
ATOM     26  C   UNL     1       4.159  16.063  18.876  0.00  0.00    +0.000 A 
ATOM     27  C   UNL     1       4.017  15.595  20.162  0.00  0.00    +0.000 A 
ATOM     28  C   UNL     1       3.317  14.445  20.446  0.00  0.00    +0.000 A 
ATOM     29  O   UNL     1       4.588  16.417  21.083  0.00  0.00    +0.000 OA
ATOM     30  C   UNL     1       4.840  17.568  20.255  0.00  0.00    +0.000 C 
ATOM     31  O   UNL     1       4.795  17.268  18.846  0.00  0.00    +0.000 OA
ENDBRANCH  21  23
ENDBRANCH  18  19
ENDBRANCH   6  18
TORSDOF 5
ENDMDL
