MODEL 1
REMARK VINA RESULT:      -8.1      0.000      0.000
REMARK  Name = 
REMARK  7 active torsions:
REMARK  status: ('A' for Active; 'I' for Inactive)
REMARK    1  A    between atoms: C_1  and  O_2
REMARK    2  A    between atoms: O_2  and  C_3
REMARK    3  A    between atoms: C_7  and  C_8
REMARK    4  A    between atoms: C_8  and  N_9
REMARK    5  A    between atoms: C_11  and  C_12
REMARK    6  A    between atoms: C_16  and  C_17
REMARK    7  A    between atoms: C_17  and  C_18
REMARK                            x       y       z     vdW  Elec       q    Type
REMARK                         _______ _______ _______ _____ _____    ______ ____
ROOT
ATOM      1  N   UNL     1       5.938   4.662  16.943  0.00  0.00    +0.000 N 
ATOM      2  N   UNL     1       5.659   3.664  17.875  0.00  0.00    +0.000 N 
ATOM      3  C   UNL     1       4.312   3.834  18.222  0.00  0.00    +0.000 A 
ATOM      4  C   UNL     1       3.801   4.974  17.726  0.00  0.00    +0.000 A 
ATOM      5  C   UNL     1       4.890   5.564  16.901  0.00  0.00    +0.000 A 
ATOM      6  O   UNL     1       4.821   6.618  16.293  0.00  0.00    +0.000 OA
ATOM      7  H   UNL     1       5.899   2.705  17.605  0.00  0.00    +0.000 HD
ENDROOT
BRANCH   3   8
ATOM      8  C   UNL     1       3.526   2.787  18.962  0.00  0.00    +0.000 C 
ATOM      9  F   UNL     1       2.503   2.303  18.214  0.00  0.00    +0.000 F 
ATOM     10  F   UNL     1       4.291   1.731  19.331  0.00  0.00    +0.000 F 
ATOM     11  F   UNL     1       2.973   3.292  20.094  0.00  0.00    +0.000 F 
ENDBRANCH   3   8
BRANCH   1  12
ATOM     12  C   UNL     1       7.203   4.744  16.248  0.00  0.00    +0.000 C 
BRANCH  12  17
ATOM     13  C   UNL     1       6.098   3.544  12.782  0.00  0.00    +0.000 A 
ATOM     14  C   UNL     1       6.921   4.319  11.963  0.00  0.00    +0.000 A 
ATOM     15  C   UNL     1       7.784   5.261  12.517  0.00  0.00    +0.000 A 
ATOM     16  C   UNL     1       7.847   5.416  13.901  0.00  0.00    +0.000 A 
ATOM     17  C   UNL     1       7.054   4.627  14.746  0.00  0.00    +0.000 A 
ATOM     18  C   UNL     1       6.152   3.713  14.171  0.00  0.00    +0.000 A 
BRANCH  13  20
ATOM     19  C   UNL     1       4.237   3.186  11.347  0.00  0.00    +0.000 C 
ATOM     20  O   UNL     1       5.307   2.649  12.113  0.00  0.00    +0.000 OA
ENDBRANCH  13  20
ENDBRANCH  12  17
ENDBRANCH   1  12
BRANCH   4  21
ATOM     21  C   UNL     1       2.409   5.487  17.707  0.00  0.00    +0.000 C 
BRANCH  21  22
ATOM     22  C   UNL     1       2.167   6.729  18.537  0.00  0.00    +0.000 A 
ATOM     23  C   UNL     1       1.985   7.977  17.919  0.00  0.00    +0.000 A 
ATOM     24  C   UNL     1       1.645   9.099  18.678  0.00  0.00    +0.000 A 
ATOM     25  C   UNL     1       1.479   8.977  20.051  0.00  0.00    +0.000 A 
ATOM     26  F   UNL     1       1.111  10.045  20.771  0.00  0.00    +0.000 F 
ATOM     27  C   UNL     1       1.674   7.759  20.688  0.00  0.00    +0.000 A 
ATOM     28  C   UNL     1       2.024   6.635  19.932  0.00  0.00    +0.000 A 
ENDBRANCH  21  22
ENDBRANCH   4  21
TORSDOF 6
ENDMDL
MODEL 2
REMARK VINA RESULT:      -7.9      0.604      1.337
REMARK  Name = 
REMARK  7 active torsions:
REMARK  status: ('A' for Active; 'I' for Inactive)
REMARK    1  A    between atoms: C_1  and  O_2
REMARK    2  A    between atoms: O_2  and  C_3
REMARK    3  A    between atoms: C_7  and  C_8
REMARK    4  A    between atoms: C_8  and  N_9
REMARK    5  A    between atoms: C_11  and  C_12
REMARK    6  A    between atoms: C_16  and  C_17
REMARK    7  A    between atoms: C_17  and  C_18
REMARK                            x       y       z     vdW  Elec       q    Type
REMARK                         _______ _______ _______ _____ _____    ______ ____
ROOT
ATOM      1  N   UNL     1       5.748   4.529  16.756  0.00  0.00    +0.000 N 
ATOM      2  N   UNL     1       5.434   3.375  17.472  0.00  0.00    +0.000 N 
ATOM      3  C   UNL     1       4.078   3.491  17.804  0.00  0.00    +0.000 A 
ATOM      4  C   UNL     1       3.589   4.709  17.519  0.00  0.00    +0.000 A 
ATOM      5  C   UNL     1       4.706   5.434  16.856  0.00  0.00    +0.000 A 
ATOM      6  O   UNL     1       4.661   6.585  16.458  0.00  0.00    +0.000 OA
ATOM      7  H   UNL     1       5.678   2.482  17.031  0.00  0.00    +0.000 HD
ENDROOT
BRANCH   3   8
ATOM      8  C   UNL     1       3.264   2.331  18.307  0.00  0.00    +0.000 C 
ATOM      9  F   UNL     1       2.687   2.601  19.504  0.00  0.00    +0.000 F 
ATOM     10  F   UNL     1       2.273   1.984  17.450  0.00  0.00    +0.000 F 
ATOM     11  F   UNL     1       4.035   1.228  18.489  0.00  0.00    +0.000 F 
ENDBRANCH   3   8
BRANCH   1  12
ATOM     12  C   UNL     1       7.034   4.728  16.128  0.00  0.00    +0.000 C 
BRANCH  12  17
ATOM     13  C   UNL     1       6.136   3.548  12.595  0.00  0.00    +0.000 A 
ATOM     14  C   UNL     1       6.998   4.336  11.830  0.00  0.00    +0.000 A 
ATOM     15  C   UNL     1       7.820   5.280  12.439  0.00  0.00    +0.000 A 
ATOM     16  C   UNL     1       7.804   5.425  13.826  0.00  0.00    +0.000 A 
ATOM     17  C   UNL     1       6.971   4.622  14.618  0.00  0.00    +0.000 A 
ATOM     18  C   UNL     1       6.110   3.706  13.986  0.00  0.00    +0.000 A 
BRANCH  13  20
ATOM     19  C   UNL     1       4.199   3.143  11.280  0.00  0.00    +0.000 C 
ATOM     20  O   UNL     1       5.391   2.652  11.876  0.00  0.00    +0.000 OA
ENDBRANCH  13  20
ENDBRANCH  12  17
ENDBRANCH   1  12
BRANCH   4  21
ATOM     21  C   UNL     1       2.200   5.232  17.557  0.00  0.00    +0.000 C 
BRANCH  21  22
ATOM     22  C   UNL     1       1.922   6.250  18.641  0.00  0.00    +0.000 A 
ATOM     23  C   UNL     1       1.791   5.850  19.981  0.00  0.00    +0.000 A 
ATOM     24  C   UNL     1       1.651   6.803  20.993  0.00  0.00    +0.000 A 
ATOM     25  C   UNL     1       1.649   8.153  20.671  0.00  0.00    +0.000 A 
ATOM     26  F   UNL     1       1.559   9.066  21.648  0.00  0.00    +0.000 F 
ATOM     27  C   UNL     1       1.756   8.573  19.352  0.00  0.00    +0.000 A 
ATOM     28  C   UNL     1       1.886   7.622  18.335  0.00  0.00    +0.000 A 
ENDBRANCH  21  22
ENDBRANCH   4  21
TORSDOF 6
ENDMDL
MODEL 3
REMARK VINA RESULT:      -7.9      3.431      5.681
REMARK  Name = 
REMARK  7 active torsions:
REMARK  status: ('A' for Active; 'I' for Inactive)
REMARK    1  A    between atoms: C_1  and  O_2
REMARK    2  A    between atoms: O_2  and  C_3
REMARK    3  A    between atoms: C_7  and  C_8
REMARK    4  A    between atoms: C_8  and  N_9
REMARK    5  A    between atoms: C_11  and  C_12
REMARK    6  A    between atoms: C_16  and  C_17
REMARK    7  A    between atoms: C_17  and  C_18
REMARK                            x       y       z     vdW  Elec       q    Type
REMARK                         _______ _______ _______ _____ _____    ______ ____
ROOT
ATOM      1  N   UNL     1       2.298   7.134  18.885  0.00  0.00    +0.000 N 
ATOM      2  N   UNL     1       2.009   7.358  20.230  0.00  0.00    +0.000 N 
ATOM      3  C   UNL     1       1.478   8.653  20.294  0.00  0.00    +0.000 A 
ATOM      4  C   UNL     1       1.601   9.310  19.128  0.00  0.00    +0.000 A 
ATOM      5  C   UNL     1       2.188   8.322  18.184  0.00  0.00    +0.000 A 
ATOM      6  O   UNL     1       2.469   8.542  17.018  0.00  0.00    +0.000 OA
ATOM      7  H   UNL     1       1.435   6.650  20.699  0.00  0.00    +0.000 HD
ENDROOT
BRANCH   3   8
ATOM      8  C   UNL     1       0.753   9.173  21.504  0.00  0.00    +0.000 C 
ATOM      9  F   UNL     1      -0.581   8.935  21.434  0.00  0.00    +0.000 F 
ATOM     10  F   UNL     1       1.202   8.615  22.656  0.00  0.00    +0.000 F 
ATOM     11  F   UNL     1       0.900  10.517  21.631  0.00  0.00    +0.000 F 
ENDBRANCH   3   8
BRANCH   1  12
ATOM     12  C   UNL     1       2.752   5.854  18.390  0.00  0.00    +0.000 C 
BRANCH  12  17
ATOM     13  C   UNL     1       6.246   5.832  16.819  0.00  0.00    +0.000 A 
ATOM     14  C   UNL     1       7.028   5.502  17.927  0.00  0.00    +0.000 A 
ATOM     15  C   UNL     1       6.446   5.345  19.182  0.00  0.00    +0.000 A 
ATOM     16  C   UNL     1       5.067   5.491  19.331  0.00  0.00    +0.000 A 
ATOM     17  C   UNL     1       4.257   5.790  18.227  0.00  0.00    +0.000 A 
ATOM     18  C   UNL     1       4.864   5.994  16.975  0.00  0.00    +0.000 A 
BRANCH  13  20
ATOM     19  C   UNL     1       6.928   4.817  14.781  0.00  0.00    +0.000 C 
ATOM     20  O   UNL     1       6.939   5.946  15.644  0.00  0.00    +0.000 OA
ENDBRANCH  13  20
ENDBRANCH  12  17
ENDBRANCH   1  12
BRANCH   4  21
ATOM     21  C   UNL     1       1.060  10.620  18.690  0.00  0.00    +0.000 C 
BRANCH  21  22
ATOM     22  C   UNL     1      -0.443  10.675  18.519  0.00  0.00    +0.000 A 
ATOM     23  C   UNL     1      -1.205  11.635  19.204  0.00  0.00    +0.000 A 
ATOM     24  C   UNL     1      -2.574  11.760  18.955  0.00  0.00    +0.000 A 
ATOM     25  C   UNL     1      -3.181  10.934  18.020  0.00  0.00    +0.000 A 
ATOM     26  F   UNL     1      -4.485  11.085  17.751  0.00  0.00    +0.000 F 
ATOM     27  C   UNL     1      -2.453   9.963  17.344  0.00  0.00    +0.000 A 
ATOM     28  C   UNL     1      -1.084   9.828  17.599  0.00  0.00    +0.000 A 
ENDBRANCH  21  22
ENDBRANCH   4  21
TORSDOF 6
ENDMDL
MODEL 4
REMARK VINA RESULT:      -7.9      2.320      2.924
REMARK  Name = 
REMARK  7 active torsions:
REMARK  status: ('A' for Active; 'I' for Inactive)
REMARK    1  A    between atoms: C_1  and  O_2
REMARK    2  A    between atoms: O_2  and  C_3
REMARK    3  A    between atoms: C_7  and  C_8
REMARK    4  A    between atoms: C_8  and  N_9
REMARK    5  A    between atoms: C_11  and  C_12
REMARK    6  A    between atoms: C_16  and  C_17
REMARK    7  A    between atoms: C_17  and  C_18
REMARK                            x       y       z     vdW  Elec       q    Type
REMARK                         _______ _______ _______ _____ _____    ______ ____
ROOT
ATOM      1  N   UNL     1       5.799   4.823  16.450  0.00  0.00    +0.000 N 
ATOM      2  N   UNL     1       5.669   3.496  16.856  0.00  0.00    +0.000 N 
ATOM      3  C   UNL     1       4.392   3.396  17.425  0.00  0.00    +0.000 A 
ATOM      4  C   UNL     1       3.809   4.598  17.576  0.00  0.00    +0.000 A 
ATOM      5  C   UNL     1       4.756   5.571  16.967  0.00  0.00    +0.000 A 
ATOM      6  O   UNL     1       4.593   6.778  16.920  0.00  0.00    +0.000 OA
ATOM      7  H   UNL     1       5.866   2.780  16.150  0.00  0.00    +0.000 HD
ENDROOT
BRANCH   3   8
ATOM      8  C   UNL     1       3.732   2.076  17.709  0.00  0.00    +0.000 C 
ATOM      9  F   UNL     1       3.640   1.835  19.041  0.00  0.00    +0.000 F 
ATOM     10  F   UNL     1       2.478   2.003  17.199  0.00  0.00    +0.000 F 
ATOM     11  F   UNL     1       4.437   1.045  17.177  0.00  0.00    +0.000 F 
ENDBRANCH   3   8
BRANCH   1  12
ATOM     12  C   UNL     1       6.941   5.297  15.701  0.00  0.00    +0.000 C 
BRANCH  12  17
ATOM     13  C   UNL     1       5.984   3.512  12.450  0.00  0.00    +0.000 A 
ATOM     14  C   UNL     1       6.947   4.023  11.578  0.00  0.00    +0.000 A 
ATOM     15  C   UNL     1       7.861   4.978  12.016  0.00  0.00    +0.000 A 
ATOM     16  C   UNL     1       7.833   5.410  13.342  0.00  0.00    +0.000 A 
ATOM     17  C   UNL     1       6.897   4.887  14.244  0.00  0.00    +0.000 A 
ATOM     18  C   UNL     1       5.948   3.958  13.776  0.00  0.00    +0.000 A 
BRANCH  13  20
ATOM     19  C   UNL     1       4.025   3.054  11.184  0.00  0.00    +0.000 C 
ATOM     20  O   UNL     1       5.155   2.572  11.897  0.00  0.00    +0.000 OA
ENDBRANCH  13  20
ENDBRANCH  12  17
ENDBRANCH   1  12
BRANCH   4  21
ATOM     21  C   UNL     1       2.431   4.964  17.984  0.00  0.00    +0.000 C 
BRANCH  21  22
ATOM     22  C   UNL     1       1.951   4.339  19.276  0.00  0.00    +0.000 A 
ATOM     23  C   UNL     1       0.844   3.474  19.283  0.00  0.00    +0.000 A 
ATOM     24  C   UNL     1       0.476   2.807  20.454  0.00  0.00    +0.000 A 
ATOM     25  C   UNL     1       1.214   2.996  21.614  0.00  0.00    +0.000 A 
ATOM     26  F   UNL     1       0.885   2.321  22.725  0.00  0.00    +0.000 F 
ATOM     27  C   UNL     1       2.300   3.861  21.638  0.00  0.00    +0.000 A 
ATOM     28  C   UNL     1       2.665   4.538  20.470  0.00  0.00    +0.000 A 
ENDBRANCH  21  22
ENDBRANCH   4  21
TORSDOF 6
ENDMDL
MODEL 5
REMARK VINA RESULT:      -7.8      3.394      7.711
REMARK  Name = 
REMARK  7 active torsions:
REMARK  status: ('A' for Active; 'I' for Inactive)
REMARK    1  A    between atoms: C_1  and  O_2
REMARK    2  A    between atoms: O_2  and  C_3
REMARK    3  A    between atoms: C_7  and  C_8
REMARK    4  A    between atoms: C_8  and  N_9
REMARK    5  A    between atoms: C_11  and  C_12
REMARK    6  A    between atoms: C_16  and  C_17
REMARK    7  A    between atoms: C_17  and  C_18
REMARK                            x       y       z     vdW  Elec       q    Type
REMARK                         _______ _______ _______ _____ _____    ______ ____
ROOT
ATOM      1  N   UNL     1       5.317   4.048  18.518  0.00  0.00    +0.000 N 
ATOM      2  N   UNL     1       6.411   4.879  18.757  0.00  0.00    +0.000 N 
ATOM      3  C   UNL     1       6.555   5.660  17.603  0.00  0.00    +0.000 A 
ATOM      4  C   UNL     1       5.762   5.238  16.604  0.00  0.00    +0.000 A 
ATOM      5  C   UNL     1       4.956   4.131  17.185  0.00  0.00    +0.000 A 
ATOM      6  O   UNL     1       4.124   3.474  16.584  0.00  0.00    +0.000 OA
ATOM      7  H   UNL     1       6.392   5.423  19.626  0.00  0.00    +0.000 HD
ENDROOT
BRANCH   3   8
ATOM      8  C   UNL     1       7.415   6.892  17.560  0.00  0.00    +0.000 C 
ATOM      9  F   UNL     1       8.137   6.963  16.413  0.00  0.00    +0.000 F 
ATOM     10  F   UNL     1       6.690   8.034  17.651  0.00  0.00    +0.000 F 
ATOM     11  F   UNL     1       8.310   6.907  18.581  0.00  0.00    +0.000 F 
ENDBRANCH   3   8
BRANCH   1  12
ATOM     12  C   UNL     1       4.771   3.173  19.530  0.00  0.00    +0.000 C 
BRANCH  12  17
ATOM     13  C   UNL     1       1.683   5.175  20.593  0.00  0.00    +0.000 A 
ATOM     14  C   UNL     1       0.755   4.148  20.771  0.00  0.00    +0.000 A 
ATOM     15  C   UNL     1       1.100   2.827  20.497  0.00  0.00    +0.000 A 
ATOM     16  C   UNL     1       2.390   2.522  20.065  0.00  0.00    +0.000 A 
ATOM     17  C   UNL     1       3.350   3.533  19.910  0.00  0.00    +0.000 A 
ATOM     18  C   UNL     1       2.973   4.868  20.144  0.00  0.00    +0.000 A 
BRANCH  13  20
ATOM     19  C   UNL     1       1.862   7.524  20.279  0.00  0.00    +0.000 C 
ATOM     20  O   UNL     1       1.220   6.424  20.909  0.00  0.00    +0.000 OA
ENDBRANCH  13  20
ENDBRANCH  12  17
ENDBRANCH   1  12
BRANCH   4  21
ATOM     21  C   UNL     1       5.470   5.835  15.277  0.00  0.00    +0.000 C 
BRANCH  21  22
ATOM     22  C   UNL     1       5.989   5.055  14.089  0.00  0.00    +0.000 A 
ATOM     23  C   UNL     1       7.300   5.251  13.623  0.00  0.00    +0.000 A 
ATOM     24  C   UNL     1       7.815   4.448  12.603  0.00  0.00    +0.000 A 
ATOM     25  C   UNL     1       7.027   3.447  12.051  0.00  0.00    +0.000 A 
ATOM     26  F   UNL     1       7.538   2.650  11.103  0.00  0.00    +0.000 F 
ATOM     27  C   UNL     1       5.721   3.247  12.480  0.00  0.00    +0.000 A 
ATOM     28  C   UNL     1       5.199   4.056  13.495  0.00  0.00    +0.000 A 
ENDBRANCH  21  22
ENDBRANCH   4  21
TORSDOF 6
ENDMDL
MODEL 6
REMARK VINA RESULT:      -7.7      5.200      7.153
REMARK  Name = 
REMARK  7 active torsions:
REMARK  status: ('A' for Active; 'I' for Inactive)
REMARK    1  A    between atoms: C_1  and  O_2
REMARK    2  A    between atoms: O_2  and  C_3
REMARK    3  A    between atoms: C_7  and  C_8
REMARK    4  A    between atoms: C_8  and  N_9
REMARK    5  A    between atoms: C_11  and  C_12
REMARK    6  A    between atoms: C_16  and  C_17
REMARK    7  A    between atoms: C_17  and  C_18
REMARK                            x       y       z     vdW  Elec       q    Type
REMARK                         _______ _______ _______ _____ _____    ______ ____
ROOT
ATOM      1  N   UNL     1       2.155   7.907  19.084  0.00  0.00    +0.000 N 
ATOM      2  N   UNL     1       1.754   7.878  20.419  0.00  0.00    +0.000 N 
ATOM      3  C   UNL     1       0.990   9.037  20.612  0.00  0.00    +0.000 A 
ATOM      4  C   UNL     1       1.057   9.868  19.558  0.00  0.00    +0.000 A 
ATOM      5  C   UNL     1       1.869   9.146  18.541  0.00  0.00    +0.000 A 
ATOM      6  O   UNL     1       2.169   9.580  17.442  0.00  0.00    +0.000 OA
ATOM      7  H   UNL     1       1.294   7.020  20.741  0.00  0.00    +0.000 HD
ENDROOT
BRANCH   3   8
ATOM      8  C   UNL     1       0.115   9.241  21.817  0.00  0.00    +0.000 C 
ATOM      9  F   UNL     1       0.821   9.150  22.972  0.00  0.00    +0.000 F 
ATOM     10  F   UNL     1      -0.499  10.449  21.813  0.00  0.00    +0.000 F 
ATOM     11  F   UNL     1      -0.861   8.299  21.885  0.00  0.00    +0.000 F 
ENDBRANCH   3   8
BRANCH   1  12
ATOM     12  C   UNL     1       2.864   6.812  18.463  0.00  0.00    +0.000 C 
BRANCH  12  17
ATOM     13  C   UNL     1       1.366   3.740  20.194  0.00  0.00    +0.000 A 
ATOM     14  C   UNL     1       1.100   2.924  19.094  0.00  0.00    +0.000 A 
ATOM     15  C   UNL     1       1.346   3.379  17.801  0.00  0.00    +0.000 A 
ATOM     16  C   UNL     1       1.886   4.649  17.602  0.00  0.00    +0.000 A 
ATOM     17  C   UNL     1       2.192   5.474  18.693  0.00  0.00    +0.000 A 
ATOM     18  C   UNL     1       1.894   5.021  19.991  0.00  0.00    +0.000 A 
BRANCH  13  20
ATOM     19  C   UNL     1       2.091   2.327  21.962  0.00  0.00    +0.000 C 
ATOM     20  O   UNL     1       1.091   3.170  21.408  0.00  0.00    +0.000 OA
ENDBRANCH  13  20
ENDBRANCH  12  17
ENDBRANCH   1  12
BRANCH   4  21
ATOM     21  C   UNL     1       0.309  11.113  19.255  0.00  0.00    +0.000 C 
BRANCH  21  22
ATOM     22  C   UNL     1      -1.094  10.913  18.726  0.00  0.00    +0.000 A 
ATOM     23  C   UNL     1      -2.144  11.743  19.154  0.00  0.00    +0.000 A 
ATOM     24  C   UNL     1      -3.412  11.633  18.578  0.00  0.00    +0.000 A 
ATOM     25  C   UNL     1      -3.632  10.702  17.572  0.00  0.00    +0.000 A 
ATOM     26  F   UNL     1      -4.837  10.629  16.991  0.00  0.00    +0.000 F 
ATOM     27  C   UNL     1      -2.616   9.857  17.146  0.00  0.00    +0.000 A 
ATOM     28  C   UNL     1      -1.348   9.957  17.728  0.00  0.00    +0.000 A 
ENDBRANCH  21  22
ENDBRANCH   4  21
TORSDOF 6
ENDMDL
MODEL 7
REMARK VINA RESULT:      -7.7      3.424      7.747
REMARK  Name = 
REMARK  7 active torsions:
REMARK  status: ('A' for Active; 'I' for Inactive)
REMARK    1  A    between atoms: C_1  and  O_2
REMARK    2  A    between atoms: O_2  and  C_3
REMARK    3  A    between atoms: C_7  and  C_8
REMARK    4  A    between atoms: C_8  and  N_9
REMARK    5  A    between atoms: C_11  and  C_12
REMARK    6  A    between atoms: C_16  and  C_17
REMARK    7  A    between atoms: C_17  and  C_18
REMARK                            x       y       z     vdW  Elec       q    Type
REMARK                         _______ _______ _______ _____ _____    ______ ____
ROOT
ATOM      1  N   UNL     1       5.364   4.107  18.652  0.00  0.00    +0.000 N 
ATOM      2  N   UNL     1       6.431   4.974  18.883  0.00  0.00    +0.000 N 
ATOM      3  C   UNL     1       6.586   5.710  17.701  0.00  0.00    +0.000 A 
ATOM      4  C   UNL     1       5.829   5.228  16.701  0.00  0.00    +0.000 A 
ATOM      5  C   UNL     1       5.036   4.126  17.308  0.00  0.00    +0.000 A 
ATOM      6  O   UNL     1       4.235   3.424  16.714  0.00  0.00    +0.000 OA
ATOM      7  H   UNL     1       6.376   5.552  19.728  0.00  0.00    +0.000 HD
ENDROOT
BRANCH   3   8
ATOM      8  C   UNL     1       7.418   6.960  17.628  0.00  0.00    +0.000 C 
ATOM      9  F   UNL     1       8.297   7.041  18.659  0.00  0.00    +0.000 F 
ATOM     10  F   UNL     1       8.134   7.040  16.480  0.00  0.00    +0.000 F 
ATOM     11  F   UNL     1       6.644   8.074  17.692  0.00  0.00    +0.000 F 
ENDBRANCH   3   8
BRANCH   1  12
ATOM     12  C   UNL     1       4.813   3.260  19.685  0.00  0.00    +0.000 C 
BRANCH  12  17
ATOM     13  C   UNL     1       1.625   5.196  20.559  0.00  0.00    +0.000 A 
ATOM     14  C   UNL     1       0.725   4.146  20.744  0.00  0.00    +0.000 A 
ATOM     15  C   UNL     1       1.122   2.828  20.534  0.00  0.00    +0.000 A 
ATOM     16  C   UNL     1       2.437   2.550  20.160  0.00  0.00    +0.000 A 
ATOM     17  C   UNL     1       3.368   3.586  20.000  0.00  0.00    +0.000 A 
ATOM     18  C   UNL     1       2.940   4.916  20.168  0.00  0.00    +0.000 A 
BRANCH  13  20
ATOM     19  C   UNL     1       1.864   7.551  20.343  0.00  0.00    +0.000 C 
ATOM     20  O   UNL     1       1.111   6.440  20.809  0.00  0.00    +0.000 OA
ENDBRANCH  13  20
ENDBRANCH  12  17
ENDBRANCH   1  12
BRANCH   4  21
ATOM     21  C   UNL     1       5.558   5.763  15.344  0.00  0.00    +0.000 C 
BRANCH  21  22
ATOM     22  C   UNL     1       6.122   4.946  14.202  0.00  0.00    +0.000 A 
ATOM     23  C   UNL     1       5.358   3.931  13.604  0.00  0.00    +0.000 A 
ATOM     24  C   UNL     1       5.834   3.258  12.476  0.00  0.00    +0.000 A 
ATOM     25  C   UNL     1       7.068   3.602  11.941  0.00  0.00    +0.000 A 
ATOM     26  F   UNL     1       7.503   2.985  10.833  0.00  0.00    +0.000 F 
ATOM     27  C   UNL     1       7.852   4.587  12.526  0.00  0.00    +0.000 A 
ATOM     28  C   UNL     1       7.382   5.256  13.662  0.00  0.00    +0.000 A 
ENDBRANCH  21  22
ENDBRANCH   4  21
TORSDOF 6
ENDMDL
MODEL 8
REMARK VINA RESULT:      -7.7      4.398      6.211
REMARK  Name = 
REMARK  7 active torsions:
REMARK  status: ('A' for Active; 'I' for Inactive)
REMARK    1  A    between atoms: C_1  and  O_2
REMARK    2  A    between atoms: O_2  and  C_3
REMARK    3  A    between atoms: C_7  and  C_8
REMARK    4  A    between atoms: C_8  and  N_9
REMARK    5  A    between atoms: C_11  and  C_12
REMARK    6  A    between atoms: C_16  and  C_17
REMARK    7  A    between atoms: C_17  and  C_18
REMARK                            x       y       z     vdW  Elec       q    Type
REMARK                         _______ _______ _______ _____ _____    ______ ____
ROOT
ATOM      1  N   UNL     1       2.169   7.491  18.805  0.00  0.00    +0.000 N 
ATOM      2  N   UNL     1       1.877   7.593  20.164  0.00  0.00    +0.000 N 
ATOM      3  C   UNL     1       1.302   8.860  20.335  0.00  0.00    +0.000 A 
ATOM      4  C   UNL     1       1.399   9.614  19.227  0.00  0.00    +0.000 A 
ATOM      5  C   UNL     1       2.016   8.728  18.204  0.00  0.00    +0.000 A 
ATOM      6  O   UNL     1       2.285   9.052  17.060  0.00  0.00    +0.000 OA
ATOM      7  H   UNL     1       1.328   6.830  20.573  0.00  0.00    +0.000 HD
ENDROOT
BRANCH   3   8
ATOM      8  C   UNL     1       0.564   9.253  21.584  0.00  0.00    +0.000 C 
ATOM      9  F   UNL     1       0.554  10.598  21.761  0.00  0.00    +0.000 F 
ATOM     10  F   UNL     1      -0.726   8.837  21.577  0.00  0.00    +0.000 F 
ATOM     11  F   UNL     1       1.145   8.723  22.691  0.00  0.00    +0.000 F 
ENDBRANCH   3   8
BRANCH   1  12
ATOM     12  C   UNL     1       2.665   6.272  18.207  0.00  0.00    +0.000 C 
BRANCH  12  17
ATOM     13  C   UNL     1       6.427   6.729  17.650  0.00  0.00    +0.000 A 
ATOM     14  C   UNL     1       6.937   5.721  18.469  0.00  0.00    +0.000 A 
ATOM     15  C   UNL     1       6.082   4.937  19.240  0.00  0.00    +0.000 A 
ATOM     16  C   UNL     1       4.704   5.141  19.175  0.00  0.00    +0.000 A 
ATOM     17  C   UNL     1       4.167   6.126  18.335  0.00  0.00    +0.000 A 
ATOM     18  C   UNL     1       5.045   6.943  17.599  0.00  0.00    +0.000 A 
BRANCH  13  20
ATOM     19  C   UNL     1       7.976   8.531  17.583  0.00  0.00    +0.000 C 
ATOM     20  O   UNL     1       7.372   7.418  16.938  0.00  0.00    +0.000 OA
ENDBRANCH  13  20
ENDBRANCH  12  17
ENDBRANCH   1  12
BRANCH   4  21
ATOM     21  C   UNL     1       0.812  10.936  18.898  0.00  0.00    +0.000 C 
BRANCH  21  22
ATOM     22  C   UNL     1      -0.651  10.916  18.512  0.00  0.00    +0.000 A 
ATOM     23  C   UNL     1      -1.145   9.938  17.633  0.00  0.00    +0.000 A 
ATOM     24  C   UNL     1      -2.514   9.850  17.371  0.00  0.00    +0.000 A 
ATOM     25  C   UNL     1      -3.391  10.731  17.988  0.00  0.00    +0.000 A 
ATOM     26  F   UNL     1      -4.708  10.617  17.768  0.00  0.00    +0.000 F 
ATOM     27  C   UNL     1      -2.925  11.720  18.844  0.00  0.00    +0.000 A 
ATOM     28  C   UNL     1      -1.554  11.818  19.101  0.00  0.00    +0.000 A 
ENDBRANCH  21  22
ENDBRANCH   4  21
TORSDOF 6
ENDMDL
MODEL 9
REMARK VINA RESULT:      -7.6      3.033      7.292
REMARK  Name = 
REMARK  7 active torsions:
REMARK  status: ('A' for Active; 'I' for Inactive)
REMARK    1  A    between atoms: C_1  and  O_2
REMARK    2  A    between atoms: O_2  and  C_3
REMARK    3  A    between atoms: C_7  and  C_8
REMARK    4  A    between atoms: C_8  and  N_9
REMARK    5  A    between atoms: C_11  and  C_12
REMARK    6  A    between atoms: C_16  and  C_17
REMARK    7  A    between atoms: C_17  and  C_18
REMARK                            x       y       z     vdW  Elec       q    Type
REMARK                         _______ _______ _______ _____ _____    ______ ____
ROOT
ATOM      1  N   UNL     1       2.359   5.673  19.935  0.00  0.00    +0.000 N 
ATOM      2  N   UNL     1       1.474   4.707  19.460  0.00  0.00    +0.000 N 
ATOM      3  C   UNL     1       2.269   3.739  18.832  0.00  0.00    +0.000 A 
ATOM      4  C   UNL     1       3.548   4.133  18.713  0.00  0.00    +0.000 A 
ATOM      5  C   UNL     1       3.618   5.446  19.409  0.00  0.00    +0.000 A 
ATOM      6  O   UNL     1       4.617   6.139  19.507  0.00  0.00    +0.000 OA
ATOM      7  H   UNL     1       0.810   4.322  20.139  0.00  0.00    +0.000 HD
ENDROOT
BRANCH   3   8
ATOM      8  C   UNL     1       1.746   2.381  18.455  0.00  0.00    +0.000 C 
ATOM      9  F   UNL     1       2.181   1.420  19.308  0.00  0.00    +0.000 F 
ATOM     10  F   UNL     1       0.391   2.331  18.448  0.00  0.00    +0.000 F 
ATOM     11  F   UNL     1       2.163   2.016  17.216  0.00  0.00    +0.000 F 
ENDBRANCH   3   8
BRANCH   1  12
ATOM     12  C   UNL     1       1.931   6.783  20.756  0.00  0.00    +0.000 C 
BRANCH  12  17
ATOM     13  C   UNL     1       0.557  10.201  19.702  0.00  0.00    +0.000 A 
ATOM     14  C   UNL     1       0.978  10.253  18.372  0.00  0.00    +0.000 A 
ATOM     15  C   UNL     1       1.747   9.224  17.834  0.00  0.00    +0.000 A 
ATOM     16  C   UNL     1       2.079   8.121  18.619  0.00  0.00    +0.000 A 
ATOM     17  C   UNL     1       1.640   8.031  19.947  0.00  0.00    +0.000 A 
ATOM     18  C   UNL     1       0.905   9.099  20.493  0.00  0.00    +0.000 A 
BRANCH  13  20
ATOM     19  C   UNL     1      -0.986  11.907  19.106  0.00  0.00    +0.000 C 
ATOM     20  O   UNL     1      -0.201  11.268  20.103  0.00  0.00    +0.000 OA
ENDBRANCH  13  20
ENDBRANCH  12  17
ENDBRANCH   1  12
BRANCH   4  21
ATOM     21  C   UNL     1       4.753   3.395  18.262  0.00  0.00    +0.000 C 
BRANCH  21  22
ATOM     22  C   UNL     1       5.458   3.982  17.058  0.00  0.00    +0.000 A 
ATOM     23  C   UNL     1       6.772   4.467  17.166  0.00  0.00    +0.000 A 
ATOM     24  C   UNL     1       7.461   4.899  16.031  0.00  0.00    +0.000 A 
ATOM     25  C   UNL     1       6.845   4.842  14.788  0.00  0.00    +0.000 A 
ATOM     26  F   UNL     1       7.524   5.216  13.695  0.00  0.00    +0.000 F 
ATOM     27  C   UNL     1       5.540   4.385  14.658  0.00  0.00    +0.000 A 
ATOM     28  C   UNL     1       4.843   3.961  15.795  0.00  0.00    +0.000 A 
ENDBRANCH  21  22
ENDBRANCH   4  21
TORSDOF 6
ENDMDL
