MODEL 1
REMARK VINA RESULT:      -6.8      0.000      0.000
REMARK  Name = 
REMARK  2 active torsions:
REMARK  status: ('A' for Active; 'I' for Inactive)
REMARK    1  A    between atoms: C_6  and  C_7
REMARK    2  A    between atoms: C_7  and  N_8
REMARK                            x       y       z     vdW  Elec       q    Type
REMARK                         _______ _______ _______ _____ _____    ______ ____
ROOT
ATOM      1  N   UNL     1       4.528   4.608  16.261  0.00  0.00    +0.000 NA
ATOM      2  C   UNL     1       4.655   5.899  16.939  0.00  0.00    +0.000 C 
ATOM      3  C   UNL     1       4.176   5.997  18.388  0.00  0.00    +0.000 C 
ATOM      4  C   UNL     1       2.872   5.251  18.649  0.00  0.00    +0.000 C 
ATOM      5  C   UNL     1       2.551   5.207  20.154  0.00  0.00    +0.000 C 
ATOM      6  C   UNL     1       1.257   4.453  20.447  0.00  0.00    +0.000 C 
ATOM      7  C   UNL     1       1.225   3.077  19.783  0.00  0.00    +0.000 C 
ATOM      8  C   UNL     1       1.582   3.142  18.301  0.00  0.00    +0.000 C 
ATOM      9  C   UNL     1       2.948   3.827  18.091  0.00  0.00    +0.000 C 
ATOM     10  C   UNL     1       3.341   3.822  16.601  0.00  0.00    +0.000 C 
ENDROOT
BRANCH   1  11
ATOM     11  C   UNL     1       5.756   3.835  16.076  0.00  0.00    +0.000 C 
BRANCH  11  17
ATOM     12 CL   UNL     1       5.128   3.098  12.793  0.00  0.00    +0.000 Cl
ATOM     13  C   UNL     1       6.306   4.076  13.553  0.00  0.00    +0.000 A 
ATOM     14  S   UNL     1       7.437   4.949  12.631  0.00  0.00    +0.000 S 
ATOM     15  N   UNL     1       8.180   5.584  13.991  0.00  0.00    +0.000 NA
ATOM     16  N   UNL     1       7.615   5.185  15.117  0.00  0.00    +0.000 NA
ATOM     17  C   UNL     1       6.531   4.334  14.889  0.00  0.00    +0.000 A 
ENDBRANCH  11  17
ENDBRANCH   1  11
TORSDOF 2
ENDMDL
MODEL 2
REMARK VINA RESULT:      -6.8      1.072      1.114
REMARK  Name = 
REMARK  2 active torsions:
REMARK  status: ('A' for Active; 'I' for Inactive)
REMARK    1  A    between atoms: C_6  and  C_7
REMARK    2  A    between atoms: C_7  and  N_8
REMARK                            x       y       z     vdW  Elec       q    Type
REMARK                         _______ _______ _______ _____ _____    ______ ____
ROOT
ATOM      1  N   UNL     1       5.158   4.411  16.685  0.00  0.00    +0.000 NA
ATOM      2  C   UNL     1       5.823   4.557  17.980  0.00  0.00    +0.000 C 
ATOM      3  C   UNL     1       5.154   3.925  19.203  0.00  0.00    +0.000 C 
ATOM      4  C   UNL     1       3.639   4.101  19.225  0.00  0.00    +0.000 C 
ATOM      5  C   UNL     1       3.003   3.272  20.356  0.00  0.00    +0.000 C 
ATOM      6  C   UNL     1       1.484   3.417  20.394  0.00  0.00    +0.000 C 
ATOM      7  C   UNL     1       0.844   3.166  19.029  0.00  0.00    +0.000 C 
ATOM      8  C   UNL     1       1.515   3.970  17.919  0.00  0.00    +0.000 C 
ATOM      9  C   UNL     1       3.032   3.696  17.879  0.00  0.00    +0.000 C 
ATOM     10  C   UNL     1       3.695   4.449  16.709  0.00  0.00    +0.000 C 
ENDROOT
BRANCH   1  11
ATOM     11  C   UNL     1       5.742   3.453  15.747  0.00  0.00    +0.000 C 
BRANCH  11  17
ATOM     12 CL   UNL     1       5.460   3.023  12.363  0.00  0.00    +0.000 Cl
ATOM     13  C   UNL     1       6.459   4.025  13.321  0.00  0.00    +0.000 A 
ATOM     14  S   UNL     1       7.555   5.106  12.598  0.00  0.00    +0.000 S 
ATOM     15  N   UNL     1       8.113   5.659  14.077  0.00  0.00    +0.000 NA
ATOM     16  N   UNL     1       7.509   5.083  15.101  0.00  0.00    +0.000 NA
ATOM     17  C   UNL     1       6.548   4.156  14.691  0.00  0.00    +0.000 A 
ENDBRANCH  11  17
ENDBRANCH   1  11
TORSDOF 2
ENDMDL
MODEL 3
REMARK VINA RESULT:      -6.6      2.163      2.554
REMARK  Name = 
REMARK  2 active torsions:
REMARK  status: ('A' for Active; 'I' for Inactive)
REMARK    1  A    between atoms: C_6  and  C_7
REMARK    2  A    between atoms: C_7  and  N_8
REMARK                            x       y       z     vdW  Elec       q    Type
REMARK                         _______ _______ _______ _____ _____    ______ ____
ROOT
ATOM      1  N   UNL     1       3.661   6.411  17.688  0.00  0.00    +0.000 NA
ATOM      2  C   UNL     1       2.833   7.173  18.623  0.00  0.00    +0.000 C 
ATOM      3  C   UNL     1       2.313   6.453  19.869  0.00  0.00    +0.000 C 
ATOM      4  C   UNL     1       1.845   5.028  19.597  0.00  0.00    +0.000 C 
ATOM      5  C   UNL     1       1.534   4.287  20.911  0.00  0.00    +0.000 C 
ATOM      6  C   UNL     1       1.076   2.851  20.670  0.00  0.00    +0.000 C 
ATOM      7  C   UNL     1       2.032   2.084  19.756  0.00  0.00    +0.000 C 
ATOM      8  C   UNL     1       2.353   2.854  18.479  0.00  0.00    +0.000 C 
ATOM      9  C   UNL     1       2.904   4.257  18.804  0.00  0.00    +0.000 C 
ATOM     10  C   UNL     1       3.301   5.003  17.514  0.00  0.00    +0.000 C 
ENDROOT
BRANCH   1  11
ATOM     11  C   UNL     1       5.097   6.690  17.700  0.00  0.00    +0.000 C 
BRANCH  11  17
ATOM     12 CL   UNL     1       7.741   4.520  17.811  0.00  0.00    +0.000 Cl
ATOM     13  C   UNL     1       6.833   5.169  16.517  0.00  0.00    +0.000 A 
ATOM     14  S   UNL     1       7.161   4.715  14.911  0.00  0.00    +0.000 S 
ATOM     15  N   UNL     1       5.959   5.706  14.298  0.00  0.00    +0.000 NA
ATOM     16  N   UNL     1       5.304   6.362  15.241  0.00  0.00    +0.000 NA
ATOM     17  C   UNL     1       5.778   6.057  16.519  0.00  0.00    +0.000 A 
ENDBRANCH  11  17
ENDBRANCH   1  11
TORSDOF 2
ENDMDL
MODEL 4
REMARK VINA RESULT:      -6.6      1.577      2.315
REMARK  Name = 
REMARK  2 active torsions:
REMARK  status: ('A' for Active; 'I' for Inactive)
REMARK    1  A    between atoms: C_6  and  C_7
REMARK    2  A    between atoms: C_7  and  N_8
REMARK                            x       y       z     vdW  Elec       q    Type
REMARK                         _______ _______ _______ _____ _____    ______ ____
ROOT
ATOM      1  N   UNL     1       5.797   4.956  16.942  0.00  0.00    +0.000 NA
ATOM      2  C   UNL     1       5.801   4.299  18.249  0.00  0.00    +0.000 C 
ATOM      3  C   UNL     1       4.568   4.466  19.138  0.00  0.00    +0.000 C 
ATOM      4  C   UNL     1       3.993   5.879  19.120  0.00  0.00    +0.000 C 
ATOM      5  C   UNL     1       2.642   5.935  19.859  0.00  0.00    +0.000 C 
ATOM      6  C   UNL     1       2.035   7.336  19.845  0.00  0.00    +0.000 C 
ATOM      7  C   UNL     1       1.979   7.929  18.437  0.00  0.00    +0.000 C 
ATOM      8  C   UNL     1       3.318   7.828  17.713  0.00  0.00    +0.000 C 
ATOM      9  C   UNL     1       3.819   6.369  17.681  0.00  0.00    +0.000 C 
ATOM     10  C   UNL     1       5.133   6.259  16.882  0.00  0.00    +0.000 C 
ENDROOT
BRANCH   1  11
ATOM     11  C   UNL     1       5.595   4.099  15.773  0.00  0.00    +0.000 C 
BRANCH  11  17
ATOM     12 CL   UNL     1       5.189   3.302  12.470  0.00  0.00    +0.000 Cl
ATOM     13  C   UNL     1       6.363   4.225  13.300  0.00  0.00    +0.000 A 
ATOM     14  S   UNL     1       7.622   4.994  12.453  0.00  0.00    +0.000 S 
ATOM     15  N   UNL     1       8.292   5.623  13.853  0.00  0.00    +0.000 NA
ATOM     16  N   UNL     1       7.612   5.296  14.938  0.00  0.00    +0.000 NA
ATOM     17  C   UNL     1       6.496   4.509  14.643  0.00  0.00    +0.000 A 
ENDBRANCH  11  17
ENDBRANCH   1  11
TORSDOF 2
ENDMDL
MODEL 5
REMARK VINA RESULT:      -6.4      3.810      6.273
REMARK  Name = 
REMARK  2 active torsions:
REMARK  status: ('A' for Active; 'I' for Inactive)
REMARK    1  A    between atoms: C_6  and  C_7
REMARK    2  A    between atoms: C_7  and  N_8
REMARK                            x       y       z     vdW  Elec       q    Type
REMARK                         _______ _______ _______ _____ _____    ______ ____
ROOT
ATOM      1  N   UNL     1       5.039   4.741  19.247  0.00  0.00    +0.000 NA
ATOM      2  C   UNL     1       6.325   5.432  19.354  0.00  0.00    +0.000 C 
ATOM      3  C   UNL     1       6.958   5.970  18.070  0.00  0.00    +0.000 C 
ATOM      4  C   UNL     1       6.827   5.020  16.884  0.00  0.00    +0.000 C 
ATOM      5  C   UNL     1       7.290   5.697  15.580  0.00  0.00    +0.000 C 
ATOM      6  C   UNL     1       7.156   4.774  14.372  0.00  0.00    +0.000 C 
ATOM      7  C   UNL     1       5.762   4.153  14.268  0.00  0.00    +0.000 C 
ATOM      8  C   UNL     1       5.311   3.523  15.582  0.00  0.00    +0.000 C 
ATOM      9  C   UNL     1       5.379   4.543  16.737  0.00  0.00    +0.000 C 
ATOM     10  C   UNL     1       4.850   3.926  18.046  0.00  0.00    +0.000 C 
ENDROOT
BRANCH   1  11
ATOM     11  C   UNL     1       3.856   5.475  19.696  0.00  0.00    +0.000 C 
BRANCH  11  17
ATOM     12 CL   UNL     1       1.404   4.449  17.539  0.00  0.00    +0.000 Cl
ATOM     13  C   UNL     1       1.731   4.083  19.176  0.00  0.00    +0.000 A 
ATOM     14  S   UNL     1       0.759   2.978  20.030  0.00  0.00    +0.000 S 
ATOM     15  N   UNL     1       1.644   3.161  21.439  0.00  0.00    +0.000 NA
ATOM     16  N   UNL     1       2.651   4.006  21.306  0.00  0.00    +0.000 NA
ATOM     17  C   UNL     1       2.729   4.533  20.015  0.00  0.00    +0.000 A 
ENDBRANCH  11  17
ENDBRANCH   1  11
TORSDOF 2
ENDMDL
MODEL 6
REMARK VINA RESULT:      -6.4      2.672      2.923
REMARK  Name = 
REMARK  2 active torsions:
REMARK  status: ('A' for Active; 'I' for Inactive)
REMARK    1  A    between atoms: C_6  and  C_7
REMARK    2  A    between atoms: C_7  and  N_8
REMARK                            x       y       z     vdW  Elec       q    Type
REMARK                         _______ _______ _______ _____ _____    ______ ____
ROOT
ATOM      1  N   UNL     1       4.569   4.548  16.541  0.00  0.00    +0.000 NA
ATOM      2  C   UNL     1       4.142   5.895  16.920  0.00  0.00    +0.000 C 
ATOM      3  C   UNL     1       3.459   6.074  18.278  0.00  0.00    +0.000 C 
ATOM      4  C   UNL     1       2.474   4.959  18.613  0.00  0.00    +0.000 C 
ATOM      5  C   UNL     1       1.980   5.078  20.067  0.00  0.00    +0.000 C 
ATOM      6  C   UNL     1       1.001   3.966  20.436  0.00  0.00    +0.000 C 
ATOM      7  C   UNL     1       1.545   2.578  20.095  0.00  0.00    +0.000 C 
ATOM      8  C   UNL     1       2.062   2.497  18.662  0.00  0.00    +0.000 C 
ATOM      9  C   UNL     1       3.119   3.588  18.393  0.00  0.00    +0.000 C 
ATOM     10  C   UNL     1       3.696   3.455  16.970  0.00  0.00    +0.000 C 
ENDROOT
BRANCH   1  11
ATOM     11  C   UNL     1       6.003   4.265  16.612  0.00  0.00    +0.000 C 
BRANCH  11  17
ATOM     12 CL   UNL     1       6.656   5.071  19.874  0.00  0.00    +0.000 Cl
ATOM     13  C   UNL     1       7.063   5.822  18.394  0.00  0.00    +0.000 A 
ATOM     14  S   UNL     1       8.008   7.236  18.369  0.00  0.00    +0.000 S 
ATOM     15  N   UNL     1       7.956   7.341  16.699  0.00  0.00    +0.000 NA
ATOM     16  N   UNL     1       7.271   6.356  16.145  0.00  0.00    +0.000 NA
ATOM     17  C   UNL     1       6.765   5.467  17.095  0.00  0.00    +0.000 A 
ENDBRANCH  11  17
ENDBRANCH   1  11
TORSDOF 2
ENDMDL
MODEL 7
REMARK VINA RESULT:      -6.3      1.894      2.565
REMARK  Name = 
REMARK  2 active torsions:
REMARK  status: ('A' for Active; 'I' for Inactive)
REMARK    1  A    between atoms: C_6  and  C_7
REMARK    2  A    between atoms: C_7  and  N_8
REMARK                            x       y       z     vdW  Elec       q    Type
REMARK                         _______ _______ _______ _____ _____    ______ ____
ROOT
ATOM      1  N   UNL     1       4.450   6.407  18.598  0.00  0.00    +0.000 NA
ATOM      2  C   UNL     1       5.441   5.420  19.030  0.00  0.00    +0.000 C 
ATOM      3  C   UNL     1       4.953   4.003  19.336  0.00  0.00    +0.000 C 
ATOM      4  C   UNL     1       3.627   3.966  20.088  0.00  0.00    +0.000 C 
ATOM      5  C   UNL     1       3.085   2.527  20.181  0.00  0.00    +0.000 C 
ATOM      6  C   UNL     1       1.749   2.461  20.917  0.00  0.00    +0.000 C 
ATOM      7  C   UNL     1       0.730   3.455  20.360  0.00  0.00    +0.000 C 
ATOM      8  C   UNL     1       1.302   4.864  20.242  0.00  0.00    +0.000 C 
ATOM      9  C   UNL     1       2.596   4.866  19.402  0.00  0.00    +0.000 C 
ATOM     10  C   UNL     1       3.129   6.301  19.220  0.00  0.00    +0.000 C 
ENDROOT
BRANCH   1  11
ATOM     11  C   UNL     1       4.445   6.760  17.179  0.00  0.00    +0.000 C 
BRANCH  11  17
ATOM     12 CL   UNL     1       3.732   3.541  16.260  0.00  0.00    +0.000 Cl
ATOM     13  C   UNL     1       5.086   4.547  15.989  0.00  0.00    +0.000 A 
ATOM     14  S   UNL     1       6.405   3.997  15.067  0.00  0.00    +0.000 S 
ATOM     15  N   UNL     1       7.246   5.432  15.262  0.00  0.00    +0.000 NA
ATOM     16  N   UNL     1       6.582   6.322  15.980  0.00  0.00    +0.000 NA
ATOM     17  C   UNL     1       5.338   5.841  16.393  0.00  0.00    +0.000 A 
ENDBRANCH  11  17
ENDBRANCH   1  11
TORSDOF 2
ENDMDL
MODEL 8
REMARK VINA RESULT:      -6.3      4.131      6.280
REMARK  Name = 
REMARK  2 active torsions:
REMARK  status: ('A' for Active; 'I' for Inactive)
REMARK    1  A    between atoms: C_6  and  C_7
REMARK    2  A    between atoms: C_7  and  N_8
REMARK                            x       y       z     vdW  Elec       q    Type
REMARK                         _______ _______ _______ _____ _____    ______ ____
ROOT
ATOM      1  N   UNL     1       3.555   4.526  17.427  0.00  0.00    +0.000 NA
ATOM      2  C   UNL     1       4.293   3.557  18.238  0.00  0.00    +0.000 C 
ATOM      3  C   UNL     1       5.474   4.067  19.064  0.00  0.00    +0.000 C 
ATOM      4  C   UNL     1       6.335   5.089  18.327  0.00  0.00    +0.000 C 
ATOM      5  C   UNL     1       7.375   5.719  19.271  0.00  0.00    +0.000 C 
ATOM      6  C   UNL     1       8.242   6.757  18.564  0.00  0.00    +0.000 C 
ATOM      7  C   UNL     1       7.408   7.791  17.808  0.00  0.00    +0.000 C 
ATOM      8  C   UNL     1       6.360   7.143  16.908  0.00  0.00    +0.000 C 
ATOM      9  C   UNL     1       5.459   6.183  17.712  0.00  0.00    +0.000 C 
ATOM     10  C   UNL     1       4.354   5.589  16.816  0.00  0.00    +0.000 C 
ENDROOT
BRANCH   1  11
ATOM     11  C   UNL     1       2.242   4.938  17.922  0.00  0.00    +0.000 C 
BRANCH  11  17
ATOM     12 CL   UNL     1       0.583   2.029  18.631  0.00  0.00    +0.000 Cl
ATOM     13  C   UNL     1       1.333   3.202  19.621  0.00  0.00    +0.000 A 
ATOM     14  S   UNL     1       1.382   3.010  21.310  0.00  0.00    +0.000 S 
ATOM     15  N   UNL     1       2.199   4.455  21.534  0.00  0.00    +0.000 NA
ATOM     16  N   UNL     1       2.455   5.080  20.398  0.00  0.00    +0.000 NA
ATOM     17  C   UNL     1       1.982   4.374  19.291  0.00  0.00    +0.000 A 
ENDBRANCH  11  17
ENDBRANCH   1  11
TORSDOF 2
ENDMDL
MODEL 9
REMARK VINA RESULT:      -6.3      3.953      6.166
REMARK  Name = 
REMARK  2 active torsions:
REMARK  status: ('A' for Active; 'I' for Inactive)
REMARK    1  A    between atoms: C_6  and  C_7
REMARK    2  A    between atoms: C_7  and  N_8
REMARK                            x       y       z     vdW  Elec       q    Type
REMARK                         _______ _______ _______ _____ _____    ______ ____
ROOT
ATOM      1  N   UNL     1       5.138   4.631  19.185  0.00  0.00    +0.000 NA
ATOM      2  C   UNL     1       6.327   5.479  19.282  0.00  0.00    +0.000 C 
ATOM      3  C   UNL     1       6.888   6.076  17.990  0.00  0.00    +0.000 C 
ATOM      4  C   UNL     1       6.876   5.103  16.816  0.00  0.00    +0.000 C 
ATOM      5  C   UNL     1       7.250   5.816  15.503  0.00  0.00    +0.000 C 
ATOM      6  C   UNL     1       7.233   4.869  14.306  0.00  0.00    +0.000 C 
ATOM      7  C   UNL     1       5.929   4.078  14.212  0.00  0.00    +0.000 C 
ATOM      8  C   UNL     1       5.560   3.411  15.534  0.00  0.00    +0.000 C 
ATOM      9  C   UNL     1       5.500   4.446  16.677  0.00  0.00    +0.000 C 
ATOM     10  C   UNL     1       5.052   3.784  17.994  0.00  0.00    +0.000 C 
ENDROOT
BRANCH   1  11
ATOM     11  C   UNL     1       3.872   5.215  19.627  0.00  0.00    +0.000 C 
BRANCH  11  17
ATOM     12 CL   UNL     1       2.568   2.671  21.509  0.00  0.00    +0.000 Cl
ATOM     13  C   UNL     1       2.147   3.312  19.982  0.00  0.00    +0.000 A 
ATOM     14  S   UNL     1       0.817   2.696  19.118  0.00  0.00    +0.000 S 
ATOM     15  N   UNL     1       1.058   3.747  17.837  0.00  0.00    +0.000 NA
ATOM     16  N   UNL     1       2.085   4.556  18.023  0.00  0.00    +0.000 NA
ATOM     17  C   UNL     1       2.713   4.335  19.251  0.00  0.00    +0.000 A 
ENDBRANCH  11  17
ENDBRANCH   1  11
TORSDOF 2
ENDMDL
