MODEL 1
REMARK VINA RESULT:      -8.7      0.000      0.000
REMARK  Name = 
REMARK  9 active torsions:
REMARK  status: ('A' for Active; 'I' for Inactive)
REMARK    1  A    between atoms: C_1  and  C_2
REMARK    2  A    between atoms: N_4  and  C_5
REMARK    3  A    between atoms: C_5  and  C_6
REMARK    4  A    between atoms: C_6  and  N_7
REMARK    5  A    between atoms: N_7  and  C_8
REMARK    6  A    between atoms: C_8  and  C_9
REMARK    7  A    between atoms: C_13  and  N_14
REMARK    8  A    between atoms: C_15  and  C_17
REMARK    9  A    between atoms: C_21  and  C_22
REMARK                            x       y       z     vdW  Elec       q    Type
REMARK                         _______ _______ _______ _____ _____    ______ ____
ROOT
ATOM      1  N   UNL     1       1.203   8.425  21.287  0.00  0.00    +0.000 N 
ATOM      2  C   UNL     1       1.547   8.106  19.990  0.00  0.00    +0.000 C 
ATOM      3  O   UNL     1       1.398   8.832  19.010  0.00  0.00    +0.000 OA
ATOM      4  H   UNL     1       1.436   7.772  22.020  0.00  0.00    +0.000 HD
ENDROOT
BRANCH   2   5
ATOM      5  C   UNL     1       2.214   6.781  19.749  0.00  0.00    +0.000 A 
ATOM      6  C   UNL     1       1.827   5.780  20.660  0.00  0.00    +0.000 A 
ATOM      7  C   UNL     1       2.402   4.521  20.628  0.00  0.00    +0.000 A 
ATOM      8  C   UNL     1       3.406   4.254  19.705  0.00  0.00    +0.000 A 
ATOM      9  C   UNL     1       3.842   5.209  18.754  0.00  0.00    +0.000 A 
ATOM     10  C   UNL     1       3.195   6.483  18.770  0.00  0.00    +0.000 A 
ATOM     11 CL   UNL     1       3.575   7.658  17.539  0.00  0.00    +0.000 Cl
BRANCH   9  12
ATOM     12  C   UNL     1       4.956   4.806  17.838  0.00  0.00    +0.000 A 
ATOM     13  C   UNL     1       6.305   4.953  18.230  0.00  0.00    +0.000 A 
ATOM     14  C   UNL     1       7.366   4.663  17.363  0.00  0.00    +0.000 A 
ATOM     15  C   UNL     1       7.109   4.171  16.091  0.00  0.00    +0.000 A 
ATOM     16  C   UNL     1       5.795   3.999  15.677  0.00  0.00    +0.000 A 
ATOM     17  C   UNL     1       4.737   4.344  16.528  0.00  0.00    +0.000 A 
ENDBRANCH   9  12
ENDBRANCH   2   5
BRANCH   1  22
ATOM     18  C   UNL     1       0.058  11.853  21.428  0.00  0.00    +0.000 A 
ATOM     19  C   UNL     1      -0.800  11.847  22.520  0.00  0.00    +0.000 A 
ATOM     20  C   UNL     1      -1.015  10.649  23.186  0.00  0.00    +0.000 A 
ATOM     21  C   UNL     1      -0.346   9.499  22.760  0.00  0.00    +0.000 A 
ATOM     22  C   UNL     1       0.515   9.585  21.674  0.00  0.00    +0.000 A 
ATOM     23  N   UNL     1       0.700  10.734  21.006  0.00  0.00    +0.000 NA
BRANCH  18  24
ATOM     24  C   UNL     1       0.379  13.138  20.697  0.00  0.00    +0.000 C 
BRANCH  24  25
ATOM     25  N   UNL     1      -0.686  13.598  19.786  0.00  0.00    +0.000 NA
ATOM     26  H   UNL     1      -1.585  13.414  20.230  0.00  0.00    +0.000 HD
BRANCH  25  27
ATOM     27  C   UNL     1      -0.676  12.896  18.486  0.00  0.00    +0.000 C 
BRANCH  27  28
ATOM     28  C   UNL     1      -1.824  11.892  18.279  0.00  0.00    +0.000 C 
BRANCH  28  32
ATOM     29  C   UNL     1      -2.841  10.400  14.954  0.00  0.00    +0.000 C 
ATOM     30  C   UNL     1      -2.699  10.484  16.450  0.00  0.00    +0.000 C 
ATOM     31  O   UNL     1      -3.076   9.585  17.195  0.00  0.00    +0.000 OA
ATOM     32  N   UNL     1      -2.105  11.641  16.883  0.00  0.00    +0.000 N 
ATOM     33  H   UNL     1      -1.836  12.375  16.234  0.00  0.00    +0.000 HD
ENDBRANCH  28  32
ENDBRANCH  27  28
ENDBRANCH  25  27
ENDBRANCH  24  25
ENDBRANCH  18  24
ENDBRANCH   1  22
TORSDOF 8
ENDMDL
MODEL 2
REMARK VINA RESULT:      -8.3      2.469      3.195
REMARK  Name = 
REMARK  9 active torsions:
REMARK  status: ('A' for Active; 'I' for Inactive)
REMARK    1  A    between atoms: C_1  and  C_2
REMARK    2  A    between atoms: N_4  and  C_5
REMARK    3  A    between atoms: C_5  and  C_6
REMARK    4  A    between atoms: C_6  and  N_7
REMARK    5  A    between atoms: N_7  and  C_8
REMARK    6  A    between atoms: C_8  and  C_9
REMARK    7  A    between atoms: C_13  and  N_14
REMARK    8  A    between atoms: C_15  and  C_17
REMARK    9  A    between atoms: C_21  and  C_22
REMARK                            x       y       z     vdW  Elec       q    Type
REMARK                         _______ _______ _______ _____ _____    ______ ____
ROOT
ATOM      1  N   UNL     1       1.087   9.042  18.822  0.00  0.00    +0.000 N 
ATOM      2  C   UNL     1       1.506   8.353  19.941  0.00  0.00    +0.000 C 
ATOM      3  O   UNL     1       1.351   8.715  21.106  0.00  0.00    +0.000 OA
ATOM      4  H   UNL     1       1.212   8.612  17.919  0.00  0.00    +0.000 HD
ENDROOT
BRANCH   2   5
ATOM      5  C   UNL     1       2.161   7.017  19.735  0.00  0.00    +0.000 A 
ATOM      6  C   UNL     1       1.759   6.040  20.665  0.00  0.00    +0.000 A 
ATOM      7  C   UNL     1       2.321   4.775  20.665  0.00  0.00    +0.000 A 
ATOM      8  C   UNL     1       3.329   4.478  19.756  0.00  0.00    +0.000 A 
ATOM      9  C   UNL     1       3.781   5.407  18.787  0.00  0.00    +0.000 A 
ATOM     10  C   UNL     1       3.146   6.687  18.770  0.00  0.00    +0.000 A 
ATOM     11 CL   UNL     1       3.547   7.830  17.515  0.00  0.00    +0.000 Cl
BRANCH   9  12
ATOM     12  C   UNL     1       4.898   4.973  17.889  0.00  0.00    +0.000 A 
ATOM     13  C   UNL     1       6.245   5.093  18.296  0.00  0.00    +0.000 A 
ATOM     14  C   UNL     1       7.310   4.773  17.446  0.00  0.00    +0.000 A 
ATOM     15  C   UNL     1       7.058   4.278  16.174  0.00  0.00    +0.000 A 
ATOM     16  C   UNL     1       5.746   4.131  15.744  0.00  0.00    +0.000 A 
ATOM     17  C   UNL     1       4.685   4.506  16.579  0.00  0.00    +0.000 A 
ENDBRANCH   9  12
ENDBRANCH   2   5
BRANCH   1  22
ATOM     18  C   UNL     1      -1.330  11.733  18.902  0.00  0.00    +0.000 A 
ATOM     19  C   UNL     1      -0.535  12.865  18.779  0.00  0.00    +0.000 A 
ATOM     20  C   UNL     1       0.841  12.702  18.708  0.00  0.00    +0.000 A 
ATOM     21  C   UNL     1       1.381  11.415  18.734  0.00  0.00    +0.000 A 
ATOM     22  C   UNL     1       0.524  10.327  18.835  0.00  0.00    +0.000 A 
ATOM     23  N   UNL     1      -0.806  10.482  18.937  0.00  0.00    +0.000 NA
BRANCH  18  24
ATOM     24  C   UNL     1      -2.839  11.839  18.924  0.00  0.00    +0.000 C 
BRANCH  24  25
ATOM     25  N   UNL     1      -3.458  11.941  17.590  0.00  0.00    +0.000 NA
ATOM     26  H   UNL     1      -3.794  12.896  17.467  0.00  0.00    +0.000 HD
BRANCH  25  27
ATOM     27  C   UNL     1      -4.610  11.034  17.418  0.00  0.00    +0.000 C 
BRANCH  27  28
ATOM     28  C   UNL     1      -5.949  11.573  17.953  0.00  0.00    +0.000 C 
BRANCH  28  32
ATOM     29  C   UNL     1      -7.685   9.362  20.487  0.00  0.00    +0.000 C 
ATOM     30  C   UNL     1      -6.886  10.536  19.988  0.00  0.00    +0.000 C 
ATOM     31  O   UNL     1      -6.414  11.377  20.748  0.00  0.00    +0.000 OA
ATOM     32  N   UNL     1      -6.732  10.561  18.626  0.00  0.00    +0.000 N 
ATOM     33  H   UNL     1      -7.167   9.862  18.031  0.00  0.00    +0.000 HD
ENDBRANCH  28  32
ENDBRANCH  27  28
ENDBRANCH  25  27
ENDBRANCH  24  25
ENDBRANCH  18  24
ENDBRANCH   1  22
TORSDOF 8
ENDMDL
MODEL 3
REMARK VINA RESULT:      -8.1      2.995      8.944
REMARK  Name = 
REMARK  9 active torsions:
REMARK  status: ('A' for Active; 'I' for Inactive)
REMARK    1  A    between atoms: C_1  and  C_2
REMARK    2  A    between atoms: N_4  and  C_5
REMARK    3  A    between atoms: C_5  and  C_6
REMARK    4  A    between atoms: C_6  and  N_7
REMARK    5  A    between atoms: N_7  and  C_8
REMARK    6  A    between atoms: C_8  and  C_9
REMARK    7  A    between atoms: C_13  and  N_14
REMARK    8  A    between atoms: C_15  and  C_17
REMARK    9  A    between atoms: C_21  and  C_22
REMARK                            x       y       z     vdW  Elec       q    Type
REMARK                         _______ _______ _______ _____ _____    ______ ____
ROOT
ATOM      1  N   UNL     1       1.474   6.295  20.884  0.00  0.00    +0.000 N 
ATOM      2  C   UNL     1       1.649   7.465  20.176  0.00  0.00    +0.000 C 
ATOM      3  O   UNL     1       2.144   7.558  19.054  0.00  0.00    +0.000 OA
ATOM      4  H   UNL     1       0.993   6.336  21.769  0.00  0.00    +0.000 HD
ENDROOT
BRANCH   2   5
ATOM      5  C   UNL     1       1.144   8.739  20.794  0.00  0.00    +0.000 A 
ATOM      6  C   UNL     1       0.633   8.571  22.095  0.00  0.00    +0.000 A 
ATOM      7  C   UNL     1       0.058   9.627  22.781  0.00  0.00    +0.000 A 
ATOM      8  C   UNL     1      -0.052  10.864  22.158  0.00  0.00    +0.000 A 
ATOM      9  C   UNL     1       0.444  11.109  20.854  0.00  0.00    +0.000 A 
ATOM     10  C   UNL     1       1.084  10.018  20.188  0.00  0.00    +0.000 A 
ATOM     11 CL   UNL     1       1.847  10.282  18.642  0.00  0.00    +0.000 Cl
BRANCH   9  12
ATOM     12  C   UNL     1       0.231  12.478  20.285  0.00  0.00    +0.000 A 
ATOM     13  C   UNL     1      -0.451  12.655  19.061  0.00  0.00    +0.000 A 
ATOM     14  C   UNL     1      -0.592  13.914  18.464  0.00  0.00    +0.000 A 
ATOM     15  C   UNL     1      -0.093  15.043  19.099  0.00  0.00    +0.000 A 
ATOM     16  C   UNL     1       0.570  14.909  20.312  0.00  0.00    +0.000 A 
ATOM     17  C   UNL     1       0.756  13.640  20.876  0.00  0.00    +0.000 A 
ENDBRANCH   9  12
ENDBRANCH   2   5
BRANCH   1  22
ATOM     18  C   UNL     1       3.653   3.660  19.701  0.00  0.00    +0.000 A 
ATOM     19  C   UNL     1       2.803   2.564  19.634  0.00  0.00    +0.000 A 
ATOM     20  C   UNL     1       1.484   2.724  20.035  0.00  0.00    +0.000 A 
ATOM     21  C   UNL     1       1.047   3.978  20.464  0.00  0.00    +0.000 A 
ATOM     22  C   UNL     1       1.947   5.036  20.483  0.00  0.00    +0.000 A 
ATOM     23  N   UNL     1       3.231   4.877  20.128  0.00  0.00    +0.000 NA
BRANCH  18  24
ATOM     24  C   UNL     1       5.085   3.565  19.222  0.00  0.00    +0.000 C 
BRANCH  24  25
ATOM     25  N   UNL     1       5.911   4.742  19.551  0.00  0.00    +0.000 NA
ATOM     26  H   UNL     1       5.319   5.425  20.021  0.00  0.00    +0.000 HD
BRANCH  25  27
ATOM     27  C   UNL     1       6.485   5.394  18.356  0.00  0.00    +0.000 C 
BRANCH  27  28
ATOM     28  C   UNL     1       7.461   4.523  17.544  0.00  0.00    +0.000 C 
BRANCH  28  32
ATOM     29  C   UNL     1       6.218   3.964  14.014  0.00  0.00    +0.000 C 
ATOM     30  C   UNL     1       6.957   4.651  15.131  0.00  0.00    +0.000 C 
ATOM     31  O   UNL     1       7.567   5.703  14.963  0.00  0.00    +0.000 OA
ATOM     32  N   UNL     1       6.870   3.998  16.334  0.00  0.00    +0.000 N 
ATOM     33  H   UNL     1       6.381   3.112  16.421  0.00  0.00    +0.000 HD
ENDBRANCH  28  32
ENDBRANCH  27  28
ENDBRANCH  25  27
ENDBRANCH  24  25
ENDBRANCH  18  24
ENDBRANCH   1  22
TORSDOF 8
ENDMDL
MODEL 4
REMARK VINA RESULT:      -8.0      1.516      1.897
REMARK  Name = 
REMARK  9 active torsions:
REMARK  status: ('A' for Active; 'I' for Inactive)
REMARK    1  A    between atoms: C_1  and  C_2
REMARK    2  A    between atoms: N_4  and  C_5
REMARK    3  A    between atoms: C_5  and  C_6
REMARK    4  A    between atoms: C_6  and  N_7
REMARK    5  A    between atoms: N_7  and  C_8
REMARK    6  A    between atoms: C_8  and  C_9
REMARK    7  A    between atoms: C_13  and  N_14
REMARK    8  A    between atoms: C_15  and  C_17
REMARK    9  A    between atoms: C_21  and  C_22
REMARK                            x       y       z     vdW  Elec       q    Type
REMARK                         _______ _______ _______ _____ _____    ______ ____
ROOT
ATOM      1  N   UNL     1       0.767   8.419  21.179  0.00  0.00    +0.000 N 
ATOM      2  C   UNL     1       1.418   8.246  19.976  0.00  0.00    +0.000 C 
ATOM      3  O   UNL     1       1.502   9.082  19.079  0.00  0.00    +0.000 OA
ATOM      4  H   UNL     1       0.824   7.683  21.866  0.00  0.00    +0.000 HD
ENDROOT
BRANCH   2   5
ATOM      5  C   UNL     1       2.140   6.947  19.752  0.00  0.00    +0.000 A 
ATOM      6  C   UNL     1       1.795   5.942  20.674  0.00  0.00    +0.000 A 
ATOM      7  C   UNL     1       2.422   4.708  20.658  0.00  0.00    +0.000 A 
ATOM      8  C   UNL     1       3.438   4.472  19.740  0.00  0.00    +0.000 A 
ATOM      9  C   UNL     1       3.834   5.432  18.778  0.00  0.00    +0.000 A 
ATOM     10  C   UNL     1       3.134   6.678  18.778  0.00  0.00    +0.000 A 
ATOM     11 CL   UNL     1       3.467   7.853  17.532  0.00  0.00    +0.000 Cl
BRANCH   9  12
ATOM     12  C   UNL     1       4.966   5.065  17.868  0.00  0.00    +0.000 A 
ATOM     13  C   UNL     1       4.721   4.607  16.555  0.00  0.00    +0.000 A 
ATOM     14  C   UNL     1       5.753   4.178  15.712  0.00  0.00    +0.000 A 
ATOM     15  C   UNL     1       7.072   4.238  16.143  0.00  0.00    +0.000 A 
ATOM     16  C   UNL     1       7.352   4.698  17.423  0.00  0.00    +0.000 A 
ATOM     17  C   UNL     1       6.310   5.073  18.281  0.00  0.00    +0.000 A 
ENDBRANCH   9  12
ENDBRANCH   2   5
BRANCH   1  22
ATOM     18  C   UNL     1      -1.037  11.545  20.951  0.00  0.00    +0.000 A 
ATOM     19  C   UNL     1      -1.466  11.750  22.256  0.00  0.00    +0.000 A 
ATOM     20  C   UNL     1      -1.165  10.788  23.209  0.00  0.00    +0.000 A 
ATOM     21  C   UNL     1      -0.423   9.665  22.839  0.00  0.00    +0.000 A 
ATOM     22  C   UNL     1      -0.008   9.537  21.519  0.00  0.00    +0.000 A 
ATOM     23  N   UNL     1      -0.325  10.449  20.587  0.00  0.00    +0.000 NA
BRANCH  18  24
ATOM     24  C   UNL     1      -1.282  12.585  19.879  0.00  0.00    +0.000 C 
BRANCH  24  25
ATOM     25  N   UNL     1      -2.464  12.318  19.037  0.00  0.00    +0.000 NA
ATOM     26  H   UNL     1      -3.105  11.729  19.567  0.00  0.00    +0.000 HD
BRANCH  25  27
ATOM     27  C   UNL     1      -2.131  11.607  17.786  0.00  0.00    +0.000 C 
BRANCH  27  28
ATOM     28  C   UNL     1      -3.334  11.284  16.881  0.00  0.00    +0.000 C 
BRANCH  28  32
ATOM     29  C   UNL     1      -6.706  10.817  18.533  0.00  0.00    +0.000 C 
ATOM     30  C   UNL     1      -5.672  11.465  17.653  0.00  0.00    +0.000 C 
ATOM     31  O   UNL     1      -5.893  12.504  17.038  0.00  0.00    +0.000 OA
ATOM     32  N   UNL     1      -4.476  10.795  17.621  0.00  0.00    +0.000 N 
ATOM     33  H   UNL     1      -4.346   9.920  18.120  0.00  0.00    +0.000 HD
ENDBRANCH  28  32
ENDBRANCH  27  28
ENDBRANCH  25  27
ENDBRANCH  24  25
ENDBRANCH  18  24
ENDBRANCH   1  22
TORSDOF 8
ENDMDL
MODEL 5
REMARK VINA RESULT:      -8.0      2.554      3.247
REMARK  Name = 
REMARK  9 active torsions:
REMARK  status: ('A' for Active; 'I' for Inactive)
REMARK    1  A    between atoms: C_1  and  C_2
REMARK    2  A    between atoms: N_4  and  C_5
REMARK    3  A    between atoms: C_5  and  C_6
REMARK    4  A    between atoms: C_6  and  N_7
REMARK    5  A    between atoms: N_7  and  C_8
REMARK    6  A    between atoms: C_8  and  C_9
REMARK    7  A    between atoms: C_13  and  N_14
REMARK    8  A    between atoms: C_15  and  C_17
REMARK    9  A    between atoms: C_21  and  C_22
REMARK                            x       y       z     vdW  Elec       q    Type
REMARK                         _______ _______ _______ _____ _____    ______ ____
ROOT
ATOM      1  N   UNL     1       1.112   9.046  18.885  0.00  0.00    +0.000 N 
ATOM      2  C   UNL     1       1.509   8.335  19.998  0.00  0.00    +0.000 C 
ATOM      3  O   UNL     1       1.345   8.682  21.166  0.00  0.00    +0.000 OA
ATOM      4  H   UNL     1       1.241   8.627  17.977  0.00  0.00    +0.000 HD
ENDROOT
BRANCH   2   5
ATOM      5  C   UNL     1       2.149   6.993  19.780  0.00  0.00    +0.000 A 
ATOM      6  C   UNL     1       1.723   6.009  20.691  0.00  0.00    +0.000 A 
ATOM      7  C   UNL     1       2.268   4.737  20.679  0.00  0.00    +0.000 A 
ATOM      8  C   UNL     1       3.283   4.439  19.778  0.00  0.00    +0.000 A 
ATOM      9  C   UNL     1       3.759   5.376  18.828  0.00  0.00    +0.000 A 
ATOM     10  C   UNL     1       3.141   6.665  18.822  0.00  0.00    +0.000 A 
ATOM     11 CL   UNL     1       3.572   7.821  17.590  0.00  0.00    +0.000 Cl
BRANCH   9  12
ATOM     12  C   UNL     1       4.881   4.940  17.937  0.00  0.00    +0.000 A 
ATOM     13  C   UNL     1       6.226   5.066  18.350  0.00  0.00    +0.000 A 
ATOM     14  C   UNL     1       7.296   4.745  17.506  0.00  0.00    +0.000 A 
ATOM     15  C   UNL     1       7.051   4.243  16.235  0.00  0.00    +0.000 A 
ATOM     16  C   UNL     1       5.741   4.091  15.800  0.00  0.00    +0.000 A 
ATOM     17  C   UNL     1       4.676   4.467  16.628  0.00  0.00    +0.000 A 
ENDBRANCH   9  12
ENDBRANCH   2   5
BRANCH   1  22
ATOM     18  C   UNL     1      -1.266  11.766  19.050  0.00  0.00    +0.000 A 
ATOM     19  C   UNL     1      -0.465  12.887  18.875  0.00  0.00    +0.000 A 
ATOM     20  C   UNL     1       0.903  12.707  18.738  0.00  0.00    +0.000 A 
ATOM     21  C   UNL     1       1.428  11.413  18.753  0.00  0.00    +0.000 A 
ATOM     22  C   UNL     1       0.564  10.337  18.909  0.00  0.00    +0.000 A 
ATOM     23  N   UNL     1      -0.756  10.509  19.075  0.00  0.00    +0.000 NA
BRANCH  18  24
ATOM     24  C   UNL     1      -2.771  11.892  19.146  0.00  0.00    +0.000 C 
BRANCH  24  25
ATOM     25  N   UNL     1      -3.232  13.046  19.940  0.00  0.00    +0.000 NA
ATOM     26  H   UNL     1      -2.568  13.808  19.809  0.00  0.00    +0.000 HD
BRANCH  25  27
ATOM     27  C   UNL     1      -3.305  12.759  21.387  0.00  0.00    +0.000 C 
BRANCH  27  28
ATOM     28  C   UNL     1      -4.633  13.146  22.062  0.00  0.00    +0.000 C 
BRANCH  28  32
ATOM     29  C   UNL     1      -7.538  11.106  20.749  0.00  0.00    +0.000 C 
ATOM     30  C   UNL     1      -6.475  12.173  20.738  0.00  0.00    +0.000 C 
ATOM     31  O   UNL     1      -6.359  12.972  19.814  0.00  0.00    +0.000 OA
ATOM     32  N   UNL     1      -5.676  12.166  21.852  0.00  0.00    +0.000 N 
ATOM     33  H   UNL     1      -5.786  11.466  22.579  0.00  0.00    +0.000 HD
ENDBRANCH  28  32
ENDBRANCH  27  28
ENDBRANCH  25  27
ENDBRANCH  24  25
ENDBRANCH  18  24
ENDBRANCH   1  22
TORSDOF 8
ENDMDL
MODEL 6
REMARK VINA RESULT:      -8.0      3.274      9.345
REMARK  Name = 
REMARK  9 active torsions:
REMARK  status: ('A' for Active; 'I' for Inactive)
REMARK    1  A    between atoms: C_1  and  C_2
REMARK    2  A    between atoms: N_4  and  C_5
REMARK    3  A    between atoms: C_5  and  C_6
REMARK    4  A    between atoms: C_6  and  N_7
REMARK    5  A    between atoms: N_7  and  C_8
REMARK    6  A    between atoms: C_8  and  C_9
REMARK    7  A    between atoms: C_13  and  N_14
REMARK    8  A    between atoms: C_15  and  C_17
REMARK    9  A    between atoms: C_21  and  C_22
REMARK                            x       y       z     vdW  Elec       q    Type
REMARK                         _______ _______ _______ _____ _____    ______ ____
ROOT
ATOM      1  N   UNL     1       1.986   7.915  19.078  0.00  0.00    +0.000 N 
ATOM      2  C   UNL     1       2.028   8.980  18.203  0.00  0.00    +0.000 C 
ATOM      3  O   UNL     1       2.446   8.943  17.048  0.00  0.00    +0.000 OA
ATOM      4  H   UNL     1       1.558   8.051  19.980  0.00  0.00    +0.000 HD
ENDROOT
BRANCH   2   5
ATOM      5  C   UNL     1       1.466  10.293  18.672  0.00  0.00    +0.000 A 
ATOM      6  C   UNL     1       2.189  11.412  18.218  0.00  0.00    +0.000 A 
ATOM      7  C   UNL     1       1.852  12.693  18.619  0.00  0.00    +0.000 A 
ATOM      8  C   UNL     1       0.807  12.874  19.516  0.00  0.00    +0.000 A 
ATOM      9  C   UNL     1       0.031  11.797  20.010  0.00  0.00    +0.000 A 
ATOM     10  C   UNL     1       0.362  10.489  19.539  0.00  0.00    +0.000 A 
ATOM     11 CL   UNL     1      -0.639   9.133  19.989  0.00  0.00    +0.000 Cl
BRANCH   9  12
ATOM     12  C   UNL     1      -1.045  12.123  20.999  0.00  0.00    +0.000 A 
ATOM     13  C   UNL     1      -2.218  12.800  20.597  0.00  0.00    +0.000 A 
ATOM     14  C   UNL     1      -3.202  13.191  21.514  0.00  0.00    +0.000 A 
ATOM     15  C   UNL     1      -3.063  12.876  22.858  0.00  0.00    +0.000 A 
ATOM     16  C   UNL     1      -1.929  12.198  23.288  0.00  0.00    +0.000 A 
ATOM     17  C   UNL     1      -0.923  11.858  22.375  0.00  0.00    +0.000 A 
ENDBRANCH   9  12
ENDBRANCH   2   5
BRANCH   1  22
ATOM     18  C   UNL     1       4.304   5.144  18.890  0.00  0.00    +0.000 A 
ATOM     19  C   UNL     1       3.565   4.167  18.235  0.00  0.00    +0.000 A 
ATOM     20  C   UNL     1       2.251   4.452  17.892  0.00  0.00    +0.000 A 
ATOM     21  C   UNL     1       1.723   5.710  18.187  0.00  0.00    +0.000 A 
ATOM     22  C   UNL     1       2.528   6.646  18.824  0.00  0.00    +0.000 A 
ATOM     23  N   UNL     1       3.789   6.363  19.188  0.00  0.00    +0.000 NA
BRANCH  18  24
ATOM     24  C   UNL     1       5.759   4.917  19.239  0.00  0.00    +0.000 C 
BRANCH  24  25
ATOM     25  N   UNL     1       6.480   4.051  18.287  0.00  0.00    +0.000 NA
ATOM     26  H   UNL     1       6.863   3.260  18.804  0.00  0.00    +0.000 HD
BRANCH  25  27
ATOM     27  C   UNL     1       7.606   4.739  17.622  0.00  0.00    +0.000 C 
BRANCH  27  28
ATOM     28  C   UNL     1       7.199   5.756  16.540  0.00  0.00    +0.000 C 
BRANCH  28  32
ATOM     29  C   UNL     1       6.438   3.909  13.326  0.00  0.00    +0.000 C 
ATOM     30  C   UNL     1       6.184   4.450  14.707  0.00  0.00    +0.000 C 
ATOM     31  O   UNL     1       5.143   4.225  15.318  0.00  0.00    +0.000 OA
ATOM     32  N   UNL     1       7.221   5.195  15.207  0.00  0.00    +0.000 N 
ATOM     33  H   UNL     1       8.052   5.384  14.655  0.00  0.00    +0.000 HD
ENDBRANCH  28  32
ENDBRANCH  27  28
ENDBRANCH  25  27
ENDBRANCH  24  25
ENDBRANCH  18  24
ENDBRANCH   1  22
TORSDOF 8
ENDMDL
MODEL 7
REMARK VINA RESULT:      -7.9      1.777      2.395
REMARK  Name = 
REMARK  9 active torsions:
REMARK  status: ('A' for Active; 'I' for Inactive)
REMARK    1  A    between atoms: C_1  and  C_2
REMARK    2  A    between atoms: N_4  and  C_5
REMARK    3  A    between atoms: C_5  and  C_6
REMARK    4  A    between atoms: C_6  and  N_7
REMARK    5  A    between atoms: N_7  and  C_8
REMARK    6  A    between atoms: C_8  and  C_9
REMARK    7  A    between atoms: C_13  and  N_14
REMARK    8  A    between atoms: C_15  and  C_17
REMARK    9  A    between atoms: C_21  and  C_22
REMARK                            x       y       z     vdW  Elec       q    Type
REMARK                         _______ _______ _______ _____ _____    ______ ____
ROOT
ATOM      1  N   UNL     1       1.476   9.015  20.753  0.00  0.00    +0.000 N 
ATOM      2  C   UNL     1       1.416   8.808  19.390  0.00  0.00    +0.000 C 
ATOM      3  O   UNL     1       0.698   9.420  18.602  0.00  0.00    +0.000 OA
ATOM      4  H   UNL     1       2.154   8.495  21.288  0.00  0.00    +0.000 HD
ENDROOT
BRANCH   2   5
ATOM      5  C   UNL     1       2.344   7.785  18.797  0.00  0.00    +0.000 A 
ATOM      6  C   UNL     1       3.153   8.289  17.762  0.00  0.00    +0.000 A 
ATOM      7  C   UNL     1       4.010   7.463  17.056  0.00  0.00    +0.000 A 
ATOM      8  C   UNL     1       4.044   6.105  17.348  0.00  0.00    +0.000 A 
ATOM      9  C   UNL     1       3.264   5.529  18.380  0.00  0.00    +0.000 A 
ATOM     10  C   UNL     1       2.428   6.410  19.132  0.00  0.00    +0.000 A 
ATOM     11 CL   UNL     1       1.550   5.799  20.510  0.00  0.00    +0.000 Cl
BRANCH   9  12
ATOM     12  C   UNL     1       3.366   4.046  18.570  0.00  0.00    +0.000 A 
ATOM     13  C   UNL     1       4.207   3.500  19.566  0.00  0.00    +0.000 A 
ATOM     14  C   UNL     1       4.386   2.119  19.711  0.00  0.00    +0.000 A 
ATOM     15  C   UNL     1       3.691   1.239  18.892  0.00  0.00    +0.000 A 
ATOM     16  C   UNL     1       2.844   1.740  17.913  0.00  0.00    +0.000 A 
ATOM     17  C   UNL     1       2.712   3.123  17.735  0.00  0.00    +0.000 A 
ENDBRANCH   9  12
ENDBRANCH   2   5
BRANCH   1  22
ATOM     18  C   UNL     1      -0.166  12.012  21.938  0.00  0.00    +0.000 A 
ATOM     19  C   UNL     1      -0.976  11.536  22.961  0.00  0.00    +0.000 A 
ATOM     20  C   UNL     1      -0.985  10.173  23.217  0.00  0.00    +0.000 A 
ATOM     21  C   UNL     1      -0.166   9.329  22.464  0.00  0.00    +0.000 A 
ATOM     22  C   UNL     1       0.636   9.878  21.471  0.00  0.00    +0.000 A 
ATOM     23  N   UNL     1       0.622  11.192  21.198  0.00  0.00    +0.000 NA
BRANCH  18  24
ATOM     24  C   UNL     1      -0.068  13.494  21.648  0.00  0.00    +0.000 C 
BRANCH  24  25
ATOM     25  N   UNL     1      -0.193  13.840  20.219  0.00  0.00    +0.000 NA
ATOM     26  H   UNL     1      -0.160  14.855  20.134  0.00  0.00    +0.000 HD
BRANCH  25  27
ATOM     27  C   UNL     1      -1.464  13.381  19.624  0.00  0.00    +0.000 C 
BRANCH  27  28
ATOM     28  C   UNL     1      -1.316  12.380  18.463  0.00  0.00    +0.000 C 
BRANCH  28  32
ATOM     29  C   UNL     1      -4.084  11.052  16.252  0.00  0.00    +0.000 C 
ATOM     30  C   UNL     1      -2.740  11.072  16.930  0.00  0.00    +0.000 C 
ATOM     31  O   UNL     1      -1.895  10.204  16.735  0.00  0.00    +0.000 OA
ATOM     32  N   UNL     1      -2.558  12.146  17.763  0.00  0.00    +0.000 N 
ATOM     33  H   UNL     1      -3.297  12.825  17.921  0.00  0.00    +0.000 HD
ENDBRANCH  28  32
ENDBRANCH  27  28
ENDBRANCH  25  27
ENDBRANCH  24  25
ENDBRANCH  18  24
ENDBRANCH   1  22
TORSDOF 8
ENDMDL
MODEL 8
REMARK VINA RESULT:      -7.9      1.637      1.786
REMARK  Name = 
REMARK  9 active torsions:
REMARK  status: ('A' for Active; 'I' for Inactive)
REMARK    1  A    between atoms: C_1  and  C_2
REMARK    2  A    between atoms: N_4  and  C_5
REMARK    3  A    between atoms: C_5  and  C_6
REMARK    4  A    between atoms: C_6  and  N_7
REMARK    5  A    between atoms: N_7  and  C_8
REMARK    6  A    between atoms: C_8  and  C_9
REMARK    7  A    between atoms: C_13  and  N_14
REMARK    8  A    between atoms: C_15  and  C_17
REMARK    9  A    between atoms: C_21  and  C_22
REMARK                            x       y       z     vdW  Elec       q    Type
REMARK                         _______ _______ _______ _____ _____    ______ ____
ROOT
ATOM      1  N   UNL     1       0.902   7.962  21.180  0.00  0.00    +0.000 N 
ATOM      2  C   UNL     1       1.630   7.854  20.014  0.00  0.00    +0.000 C 
ATOM      3  O   UNL     1       1.807   8.751  19.193  0.00  0.00    +0.000 OA
ATOM      4  H   UNL     1       0.883   7.175  21.810  0.00  0.00    +0.000 HD
ENDROOT
BRANCH   2   5
ATOM      5  C   UNL     1       2.320   6.547  19.739  0.00  0.00    +0.000 A 
ATOM      6  C   UNL     1       1.985   5.528  20.651  0.00  0.00    +0.000 A 
ATOM      7  C   UNL     1       2.587   4.284  20.588  0.00  0.00    +0.000 A 
ATOM      8  C   UNL     1       3.569   4.049  19.633  0.00  0.00    +0.000 A 
ATOM      9  C   UNL     1       3.953   5.023  18.680  0.00  0.00    +0.000 A 
ATOM     10  C   UNL     1       3.277   6.282  18.729  0.00  0.00    +0.000 A 
ATOM     11 CL   UNL     1       3.593   7.477  17.499  0.00  0.00    +0.000 Cl
BRANCH   9  12
ATOM     12  C   UNL     1       5.048   4.655  17.727  0.00  0.00    +0.000 A 
ATOM     13  C   UNL     1       6.404   4.839  18.075  0.00  0.00    +0.000 A 
ATOM     14  C   UNL     1       7.445   4.583  17.174  0.00  0.00    +0.000 A 
ATOM     15  C   UNL     1       7.161   4.088  15.908  0.00  0.00    +0.000 A 
ATOM     16  C   UNL     1       5.839   3.880  15.536  0.00  0.00    +0.000 A 
ATOM     17  C   UNL     1       4.800   4.192  16.422  0.00  0.00    +0.000 A 
ENDBRANCH   9  12
ENDBRANCH   2   5
BRANCH   1  22
ATOM     18  C   UNL     1      -1.084  10.980  21.001  0.00  0.00    +0.000 A 
ATOM     19  C   UNL     1      -1.268  11.309  22.338  0.00  0.00    +0.000 A 
ATOM     20  C   UNL     1      -0.738  10.466  23.304  0.00  0.00    +0.000 A 
ATOM     21  C   UNL     1      -0.019   9.337  22.909  0.00  0.00    +0.000 A 
ATOM     22  C   UNL     1       0.144   9.083  21.553  0.00  0.00    +0.000 A 
ATOM     23  N   UNL     1      -0.395   9.877  20.615  0.00  0.00    +0.000 NA
BRANCH  18  24
ATOM     24  C   UNL     1      -1.586  11.889  19.900  0.00  0.00    +0.000 C 
BRANCH  24  25
ATOM     25  N   UNL     1      -1.324  11.388  18.537  0.00  0.00    +0.000 NA
ATOM     26  H   UNL     1      -0.427  11.761  18.228  0.00  0.00    +0.000 HD
BRANCH  25  27
ATOM     27  C   UNL     1      -2.347  11.815  17.560  0.00  0.00    +0.000 C 
BRANCH  27  28
ATOM     28  C   UNL     1      -3.754  11.235  17.796  0.00  0.00    +0.000 C 
BRANCH  28  32
ATOM     29  C   UNL     1      -7.066  12.947  17.149  0.00  0.00    +0.000 C 
ATOM     30  C   UNL     1      -6.134  11.870  17.637  0.00  0.00    +0.000 C 
ATOM     31  O   UNL     1      -6.543  10.829  18.141  0.00  0.00    +0.000 OA
ATOM     32  N   UNL     1      -4.808  12.163  17.450  0.00  0.00    +0.000 N 
ATOM     33  H   UNL     1      -4.511  13.052  17.057  0.00  0.00    +0.000 HD
ENDBRANCH  28  32
ENDBRANCH  27  28
ENDBRANCH  25  27
ENDBRANCH  24  25
ENDBRANCH  18  24
ENDBRANCH   1  22
TORSDOF 8
ENDMDL
MODEL 9
REMARK VINA RESULT:      -7.8      2.684      3.778
REMARK  Name = 
REMARK  9 active torsions:
REMARK  status: ('A' for Active; 'I' for Inactive)
REMARK    1  A    between atoms: C_1  and  C_2
REMARK    2  A    between atoms: N_4  and  C_5
REMARK    3  A    between atoms: C_5  and  C_6
REMARK    4  A    between atoms: C_6  and  N_7
REMARK    5  A    between atoms: N_7  and  C_8
REMARK    6  A    between atoms: C_8  and  C_9
REMARK    7  A    between atoms: C_13  and  N_14
REMARK    8  A    between atoms: C_15  and  C_17
REMARK    9  A    between atoms: C_21  and  C_22
REMARK                            x       y       z     vdW  Elec       q    Type
REMARK                         _______ _______ _______ _____ _____    ______ ____
ROOT
ATOM      1  N   UNL     1       1.008   8.967  18.958  0.00  0.00    +0.000 N 
ATOM      2  C   UNL     1       1.474   8.262  20.047  0.00  0.00    +0.000 C 
ATOM      3  O   UNL     1       1.368   8.604  21.223  0.00  0.00    +0.000 OA
ATOM      4  H   UNL     1       1.095   8.552  18.043  0.00  0.00    +0.000 HD
ENDROOT
BRANCH   2   5
ATOM      5  C   UNL     1       2.123   6.930  19.792  0.00  0.00    +0.000 A 
ATOM      6  C   UNL     1       1.716   5.923  20.686  0.00  0.00    +0.000 A 
ATOM      7  C   UNL     1       2.273   4.656  20.641  0.00  0.00    +0.000 A 
ATOM      8  C   UNL     1       3.279   4.387  19.721  0.00  0.00    +0.000 A 
ATOM      9  C   UNL     1       3.734   5.348  18.786  0.00  0.00    +0.000 A 
ATOM     10  C   UNL     1       3.106   6.631  18.815  0.00  0.00    +0.000 A 
ATOM     11 CL   UNL     1       3.512   7.817  17.603  0.00  0.00    +0.000 Cl
BRANCH   9  12
ATOM     12  C   UNL     1       4.849   4.941  17.872  0.00  0.00    +0.000 A 
ATOM     13  C   UNL     1       6.186   5.300  18.154  0.00  0.00    +0.000 A 
ATOM     14  C   UNL     1       7.235   5.006  17.275  0.00  0.00    +0.000 A 
ATOM     15  C   UNL     1       6.985   4.300  16.106  0.00  0.00    +0.000 A 
ATOM     16  C   UNL     1       5.685   3.917  15.803  0.00  0.00    +0.000 A 
ATOM     17  C   UNL     1       4.631   4.264  16.659  0.00  0.00    +0.000 A 
ENDBRANCH   9  12
ENDBRANCH   2   5
BRANCH   1  22
ATOM     18  C   UNL     1      -1.413  11.655  19.023  0.00  0.00    +0.000 A 
ATOM     19  C   UNL     1      -0.613  12.790  19.051  0.00  0.00    +0.000 A 
ATOM     20  C   UNL     1       0.765  12.627  19.086  0.00  0.00    +0.000 A 
ATOM     21  C   UNL     1       1.303  11.339  19.065  0.00  0.00    +0.000 A 
ATOM     22  C   UNL     1       0.442  10.250  19.014  0.00  0.00    +0.000 A 
ATOM     23  N   UNL     1      -0.891  10.402  19.014  0.00  0.00    +0.000 NA
BRANCH  18  24
ATOM     24  C   UNL     1      -2.918  11.766  18.924  0.00  0.00    +0.000 C 
BRANCH  24  25
ATOM     25  N   UNL     1      -3.518  12.724  19.873  0.00  0.00    +0.000 NA
ATOM     26  H   UNL     1      -3.289  12.420  20.818  0.00  0.00    +0.000 HD
BRANCH  25  27
ATOM     27  C   UNL     1      -4.989  12.795  19.767  0.00  0.00    +0.000 C 
BRANCH  27  28
ATOM     28  C   UNL     1      -5.729  12.987  21.104  0.00  0.00    +0.000 C 
BRANCH  28  32
ATOM     29  C   UNL     1      -4.266  12.439  24.551  0.00  0.00    +0.000 C 
ATOM     30  C   UNL     1      -5.240  12.950  23.523  0.00  0.00    +0.000 C 
ATOM     31  O   UNL     1      -6.194  13.663  23.822  0.00  0.00    +0.000 OA
ATOM     32  N   UNL     1      -4.950  12.555  22.243  0.00  0.00    +0.000 N 
ATOM     33  H   UNL     1      -4.169  11.938  22.043  0.00  0.00    +0.000 HD
ENDBRANCH  28  32
ENDBRANCH  27  28
ENDBRANCH  25  27
ENDBRANCH  24  25
ENDBRANCH  18  24
ENDBRANCH   1  22
TORSDOF 8
ENDMDL
