MODEL 1
REMARK VINA RESULT:      -5.9      0.000      0.000
REMARK  Name = 
REMARK  8 active torsions:
REMARK  status: ('A' for Active; 'I' for Inactive)
REMARK    1  A    between atoms: C_1  and  C_2
REMARK    2  A    between atoms: C_2  and  C_3
REMARK    3  A    between atoms: C_2  and  C_4
REMARK    4  A    between atoms: C_2  and  O_5
REMARK    5  A    between atoms: O_5  and  C_6
REMARK    6  A    between atoms: C_6  and  C_8
REMARK    7  A    between atoms: C_8  and  N_9
REMARK    8  A    between atoms: N_9  and  C_10
REMARK                            x       y       z     vdW  Elec       q    Type
REMARK                         _______ _______ _______ _____ _____    ______ ____
ROOT
ATOM      1  C   UNL     1       3.733   3.147  17.670  0.00  0.00    +0.000 C 
ENDROOT
BRANCH   1   2
ATOM      2  C   UNL     1       4.041   2.929  19.150  0.00  0.00    +0.000 C 
ATOM      3  O   UNL     1       5.118   3.198  19.670  0.00  0.00    +0.000 OA
BRANCH   2   4
ATOM      4  O   UNL     1       2.966   2.365  19.774  0.00  0.00    +0.000 OA
BRANCH   4   6
ATOM      5  C   UNL     1       0.686   3.251  19.525  0.00  0.00    +0.000 C 
ATOM      6  C   UNL     1       1.958   3.211  20.385  0.00  0.00    +0.000 C 
ATOM      7  C   UNL     1       2.512   4.609  20.678  0.00  0.00    +0.000 C 
ATOM      8  C   UNL     1       1.609   2.539  21.722  0.00  0.00    +0.000 C 
ENDBRANCH   4   6
ENDBRANCH   2   4
ENDBRANCH   1   2
BRANCH   1   9
ATOM      9  N   UNL     1       3.642   4.591  17.393  0.00  0.00    +0.000 NA
ATOM     10  H   UNL     1       3.504   5.085  18.279  0.00  0.00    +0.000 HD
BRANCH   9  11
ATOM     11  C   UNL     1       4.794   5.137  16.666  0.00  0.00    +0.000 C 
ATOM     12  C   UNL     1       5.494   3.990  15.924  0.00  0.00    +0.000 C 
ATOM     13  C   UNL     1       6.788   4.467  15.279  0.00  0.00    +0.000 C 
ATOM     14  O   UNL     1       7.651   5.061  16.247  0.00  0.00    +0.000 OA
ATOM     15  C   UNL     1       7.065   6.210  16.852  0.00  0.00    +0.000 C 
ATOM     16  C   UNL     1       5.791   5.841  17.596  0.00  0.00    +0.000 C 
ENDBRANCH   9  11
ENDBRANCH   1   9
TORSDOF 5
ENDMDL
MODEL 2
REMARK VINA RESULT:      -5.8      1.629      2.177
REMARK  Name = 
REMARK  8 active torsions:
REMARK  status: ('A' for Active; 'I' for Inactive)
REMARK    1  A    between atoms: C_1  and  C_2
REMARK    2  A    between atoms: C_2  and  C_3
REMARK    3  A    between atoms: C_2  and  C_4
REMARK    4  A    between atoms: C_2  and  O_5
REMARK    5  A    between atoms: O_5  and  C_6
REMARK    6  A    between atoms: C_6  and  C_8
REMARK    7  A    between atoms: C_8  and  N_9
REMARK    8  A    between atoms: N_9  and  C_10
REMARK                            x       y       z     vdW  Elec       q    Type
REMARK                         _______ _______ _______ _____ _____    ______ ____
ROOT
ATOM      1  C   UNL     1       4.866   3.995  19.196  0.00  0.00    +0.000 C 
ENDROOT
BRANCH   1   2
ATOM      2  C   UNL     1       3.866   2.902  18.824  0.00  0.00    +0.000 C 
ATOM      3  O   UNL     1       4.011   2.139  17.876  0.00  0.00    +0.000 OA
BRANCH   2   4
ATOM      4  O   UNL     1       2.796   2.937  19.671  0.00  0.00    +0.000 OA
BRANCH   4   6
ATOM      5  C   UNL     1       0.584   2.258  18.839  0.00  0.00    +0.000 C 
ATOM      6  C   UNL     1       1.515   3.426  19.198  0.00  0.00    +0.000 C 
ATOM      7  C   UNL     1       1.691   4.412  18.039  0.00  0.00    +0.000 C 
ATOM      8  C   UNL     1       0.896   4.181  20.385  0.00  0.00    +0.000 C 
ENDBRANCH   4   6
ENDBRANCH   2   4
ENDBRANCH   1   2
BRANCH   1   9
ATOM      9  N   UNL     1       6.127   3.778  18.468  0.00  0.00    +0.000 NA
ATOM     10  H   UNL     1       6.131   2.823  18.100  0.00  0.00    +0.000 HD
BRANCH   9  11
ATOM     11  C   UNL     1       6.378   4.750  17.398  0.00  0.00    +0.000 C 
ATOM     12  C   UNL     1       5.355   5.887  17.520  0.00  0.00    +0.000 C 
ATOM     13  C   UNL     1       5.463   6.848  16.343  0.00  0.00    +0.000 C 
ATOM     14  O   UNL     1       5.323   6.153  15.105  0.00  0.00    +0.000 OA
ATOM     15  C   UNL     1       6.348   5.182  14.918  0.00  0.00    +0.000 C 
ATOM     16  C   UNL     1       6.292   4.118  16.002  0.00  0.00    +0.000 C 
ENDBRANCH   9  11
ENDBRANCH   1   9
TORSDOF 5
ENDMDL
MODEL 3
REMARK VINA RESULT:      -5.7      0.781      1.370
REMARK  Name = 
REMARK  8 active torsions:
REMARK  status: ('A' for Active; 'I' for Inactive)
REMARK    1  A    between atoms: C_1  and  C_2
REMARK    2  A    between atoms: C_2  and  C_3
REMARK    3  A    between atoms: C_2  and  C_4
REMARK    4  A    between atoms: C_2  and  O_5
REMARK    5  A    between atoms: O_5  and  C_6
REMARK    6  A    between atoms: C_6  and  C_8
REMARK    7  A    between atoms: C_8  and  N_9
REMARK    8  A    between atoms: N_9  and  C_10
REMARK                            x       y       z     vdW  Elec       q    Type
REMARK                         _______ _______ _______ _____ _____    ______ ____
ROOT
ATOM      1  C   UNL     1       3.667   3.196  17.844  0.00  0.00    +0.000 C 
ENDROOT
BRANCH   1   2
ATOM      2  C   UNL     1       3.949   2.783  19.287  0.00  0.00    +0.000 C 
ATOM      3  O   UNL     1       5.050   2.869  19.819  0.00  0.00    +0.000 OA
BRANCH   2   4
ATOM      4  O   UNL     1       2.817   2.281  19.860  0.00  0.00    +0.000 OA
BRANCH   4   6
ATOM      5  C   UNL     1       2.496   4.584  20.660  0.00  0.00    +0.000 C 
ATOM      6  C   UNL     1       1.921   3.161  20.586  0.00  0.00    +0.000 C 
ATOM      7  C   UNL     1       1.583   2.593  21.967  0.00  0.00    +0.000 C 
ATOM      8  C   UNL     1       0.629   3.213  19.755  0.00  0.00    +0.000 C 
ENDBRANCH   4   6
ENDBRANCH   2   4
ENDBRANCH   1   2
BRANCH   1   9
ATOM      9  N   UNL     1       4.868   2.967  17.022  0.00  0.00    +0.000 NA
ATOM     10  H   UNL     1       4.655   2.244  16.329  0.00  0.00    +0.000 HD
BRANCH   9  11
ATOM     11  C   UNL     1       5.392   4.174  16.374  0.00  0.00    +0.000 C 
ATOM     12  C   UNL     1       6.210   3.754  15.145  0.00  0.00    +0.000 C 
ATOM     13  C   UNL     1       6.911   4.954  14.520  0.00  0.00    +0.000 C 
ATOM     14  O   UNL     1       7.723   5.626  15.480  0.00  0.00    +0.000 OA
ATOM     15  C   UNL     1       6.956   6.138  16.566  0.00  0.00    +0.000 C 
ATOM     16  C   UNL     1       6.262   5.014  17.318  0.00  0.00    +0.000 C 
ENDBRANCH   9  11
ENDBRANCH   1   9
TORSDOF 5
ENDMDL
MODEL 4
REMARK VINA RESULT:      -5.7      1.491      1.706
REMARK  Name = 
REMARK  8 active torsions:
REMARK  status: ('A' for Active; 'I' for Inactive)
REMARK    1  A    between atoms: C_1  and  C_2
REMARK    2  A    between atoms: C_2  and  C_3
REMARK    3  A    between atoms: C_2  and  C_4
REMARK    4  A    between atoms: C_2  and  O_5
REMARK    5  A    between atoms: O_5  and  C_6
REMARK    6  A    between atoms: C_6  and  C_8
REMARK    7  A    between atoms: C_8  and  N_9
REMARK    8  A    between atoms: N_9  and  C_10
REMARK                            x       y       z     vdW  Elec       q    Type
REMARK                         _______ _______ _______ _____ _____    ______ ____
ROOT
ATOM      1  C   UNL     1       4.768   3.903  19.805  0.00  0.00    +0.000 C 
ENDROOT
BRANCH   1   2
ATOM      2  C   UNL     1       3.678   2.899  20.172  0.00  0.00    +0.000 C 
ATOM      3  O   UNL     1       3.573   2.379  21.277  0.00  0.00    +0.000 OA
BRANCH   2   4
ATOM      4  O   UNL     1       2.885   2.652  19.089  0.00  0.00    +0.000 OA
BRANCH   4   6
ATOM      5  C   UNL     1       1.538   4.209  17.745  0.00  0.00    +0.000 C 
ATOM      6  C   UNL     1       1.589   3.296  18.979  0.00  0.00    +0.000 C 
ATOM      7  C   UNL     1       1.226   4.035  20.271  0.00  0.00    +0.000 C 
ATOM      8  C   UNL     1       0.578   2.158  18.773  0.00  0.00    +0.000 C 
ENDBRANCH   4   6
ENDBRANCH   2   4
ENDBRANCH   1   2
BRANCH   1   9
ATOM      9  N   UNL     1       5.416   3.491  18.548  0.00  0.00    +0.000 NA
ATOM     10  H   UNL     1       4.830   2.783  18.096  0.00  0.00    +0.000 HD
BRANCH   9  11
ATOM     11  C   UNL     1       5.701   4.597  17.627  0.00  0.00    +0.000 C 
ATOM     12  C   UNL     1       5.991   4.015  16.237  0.00  0.00    +0.000 C 
ATOM     13  C   UNL     1       6.448   5.103  15.274  0.00  0.00    +0.000 C 
ATOM     14  O   UNL     1       7.580   5.799  15.793  0.00  0.00    +0.000 OA
ATOM     15  C   UNL     1       7.287   6.456  17.022  0.00  0.00    +0.000 C 
ATOM     16  C   UNL     1       6.886   5.454  18.092  0.00  0.00    +0.000 C 
ENDBRANCH   9  11
ENDBRANCH   1   9
TORSDOF 5
ENDMDL
MODEL 5
REMARK VINA RESULT:      -5.7      1.482      2.071
REMARK  Name = 
REMARK  8 active torsions:
REMARK  status: ('A' for Active; 'I' for Inactive)
REMARK    1  A    between atoms: C_1  and  C_2
REMARK    2  A    between atoms: C_2  and  C_3
REMARK    3  A    between atoms: C_2  and  C_4
REMARK    4  A    between atoms: C_2  and  O_5
REMARK    5  A    between atoms: O_5  and  C_6
REMARK    6  A    between atoms: C_6  and  C_8
REMARK    7  A    between atoms: C_8  and  N_9
REMARK    8  A    between atoms: N_9  and  C_10
REMARK                            x       y       z     vdW  Elec       q    Type
REMARK                         _______ _______ _______ _____ _____    ______ ____
ROOT
ATOM      1  C   UNL     1       4.713   4.660  19.437  0.00  0.00    +0.000 C 
ENDROOT
BRANCH   1   2
ATOM      2  C   UNL     1       3.447   4.032  18.858  0.00  0.00    +0.000 C 
ATOM      3  O   UNL     1       2.969   4.337  17.771  0.00  0.00    +0.000 OA
BRANCH   2   4
ATOM      4  O   UNL     1       2.927   3.129  19.739  0.00  0.00    +0.000 OA
BRANCH   4   6
ATOM      5  C   UNL     1       0.543   2.688  19.331  0.00  0.00    +0.000 C 
ATOM      6  C   UNL     1       1.588   3.319  20.263  0.00  0.00    +0.000 C 
ATOM      7  C   UNL     1       1.306   4.798  20.543  0.00  0.00    +0.000 C 
ATOM      8  C   UNL     1       1.555   2.560  21.599  0.00  0.00    +0.000 C 
ENDBRANCH   4   6
ENDBRANCH   2   4
ENDBRANCH   1   2
BRANCH   1   9
ATOM      9  N   UNL     1       5.889   3.877  19.019  0.00  0.00    +0.000 NA
ATOM     10  H   UNL     1       5.569   2.963  18.685  0.00  0.00    +0.000 HD
BRANCH   9  11
ATOM     11  C   UNL     1       6.724   4.538  18.011  0.00  0.00    +0.000 C 
ATOM     12  C   UNL     1       6.698   6.051  18.268  0.00  0.00    +0.000 C 
ATOM     13  C   UNL     1       7.419   6.806  17.159  0.00  0.00    +0.000 C 
ATOM     14  O   UNL     1       6.867   6.486  15.884  0.00  0.00    +0.000 OA
ATOM     15  C   UNL     1       7.003   5.102  15.573  0.00  0.00    +0.000 C 
ATOM     16  C   UNL     1       6.255   4.244  16.579  0.00  0.00    +0.000 C 
ENDBRANCH   9  11
ENDBRANCH   1   9
TORSDOF 5
ENDMDL
MODEL 6
REMARK VINA RESULT:      -5.6      1.922      5.808
REMARK  Name = 
REMARK  8 active torsions:
REMARK  status: ('A' for Active; 'I' for Inactive)
REMARK    1  A    between atoms: C_1  and  C_2
REMARK    2  A    between atoms: C_2  and  C_3
REMARK    3  A    between atoms: C_2  and  C_4
REMARK    4  A    between atoms: C_2  and  O_5
REMARK    5  A    between atoms: O_5  and  C_6
REMARK    6  A    between atoms: C_6  and  C_8
REMARK    7  A    between atoms: C_8  and  N_9
REMARK    8  A    between atoms: N_9  and  C_10
REMARK                            x       y       z     vdW  Elec       q    Type
REMARK                         _______ _______ _______ _____ _____    ______ ____
ROOT
ATOM      1  C   UNL     1       4.834   4.189  19.132  0.00  0.00    +0.000 C 
ENDROOT
BRANCH   1   2
ATOM      2  C   UNL     1       4.894   5.143  17.941  0.00  0.00    +0.000 C 
ATOM      3  O   UNL     1       4.306   4.951  16.883  0.00  0.00    +0.000 OA
BRANCH   2   4
ATOM      4  O   UNL     1       5.718   6.194  18.223  0.00  0.00    +0.000 OA
BRANCH   4   6
ATOM      5  C   UNL     1       7.646   7.461  17.375  0.00  0.00    +0.000 C 
ATOM      6  C   UNL     1       7.130   6.113  17.899  0.00  0.00    +0.000 C 
ATOM      7  C   UNL     1       7.412   4.960  16.931  0.00  0.00    +0.000 C 
ATOM      8  C   UNL     1       7.842   5.814  19.228  0.00  0.00    +0.000 C 
ENDBRANCH   4   6
ENDBRANCH   2   4
ENDBRANCH   1   2
BRANCH   1   9
ATOM      9  N   UNL     1       4.451   2.844  18.668  0.00  0.00    +0.000 NA
ATOM     10  H   UNL     1       5.216   2.197  18.879  0.00  0.00    +0.000 HD
BRANCH   9  11
ATOM     11  C   UNL     1       3.185   2.355  19.225  0.00  0.00    +0.000 C 
ATOM     12  C   UNL     1       2.066   2.624  18.209  0.00  0.00    +0.000 C 
ATOM     13  C   UNL     1       0.703   2.281  18.794  0.00  0.00    +0.000 C 
ATOM     14  O   UNL     1       0.480   2.989  20.012  0.00  0.00    +0.000 OA
ATOM     15  C   UNL     1       1.436   2.648  21.012  0.00  0.00    +0.000 C 
ATOM     16  C   UNL     1       2.842   3.016  20.566  0.00  0.00    +0.000 C 
ENDBRANCH   9  11
ENDBRANCH   1   9
TORSDOF 5
ENDMDL
MODEL 7
REMARK VINA RESULT:      -5.6      1.597      5.824
REMARK  Name = 
REMARK  8 active torsions:
REMARK  status: ('A' for Active; 'I' for Inactive)
REMARK    1  A    between atoms: C_1  and  C_2
REMARK    2  A    between atoms: C_2  and  C_3
REMARK    3  A    between atoms: C_2  and  C_4
REMARK    4  A    between atoms: C_2  and  O_5
REMARK    5  A    between atoms: O_5  and  C_6
REMARK    6  A    between atoms: C_6  and  C_8
REMARK    7  A    between atoms: C_8  and  N_9
REMARK    8  A    between atoms: N_9  and  C_10
REMARK                            x       y       z     vdW  Elec       q    Type
REMARK                         _______ _______ _______ _____ _____    ______ ____
ROOT
ATOM      1  C   UNL     1       4.135   3.498  17.564  0.00  0.00    +0.000 C 
ENDROOT
BRANCH   1   2
ATOM      2  C   UNL     1       5.096   4.532  18.147  0.00  0.00    +0.000 C 
ATOM      3  O   UNL     1       4.836   5.235  19.117  0.00  0.00    +0.000 OA
BRANCH   2   4
ATOM      4  O   UNL     1       6.244   4.572  17.411  0.00  0.00    +0.000 OA
BRANCH   4   6
ATOM      5  C   UNL     1       7.391   6.733  17.161  0.00  0.00    +0.000 C 
ATOM      6  C   UNL     1       6.485   5.680  16.505  0.00  0.00    +0.000 C 
ATOM      7  C   UNL     1       5.168   6.275  15.996  0.00  0.00    +0.000 C 
ATOM      8  C   UNL     1       7.239   5.080  15.308  0.00  0.00    +0.000 C 
ENDBRANCH   4   6
ENDBRANCH   2   4
ENDBRANCH   1   2
BRANCH   1   9
ATOM      9  N   UNL     1       4.131   2.294  18.412  0.00  0.00    +0.000 NA
ATOM     10  H   UNL     1       4.982   2.294  18.981  0.00  0.00    +0.000 HD
BRANCH   9  11
ATOM     11  C   UNL     1       2.939   2.158  19.257  0.00  0.00    +0.000 C 
ATOM     12  C   UNL     1       1.799   2.973  18.631  0.00  0.00    +0.000 C 
ATOM     13  C   UNL     1       0.581   2.999  19.544  0.00  0.00    +0.000 C 
ATOM     14  O   UNL     1       0.925   3.496  20.836  0.00  0.00    +0.000 OA
ATOM     15  C   UNL     1       1.888   2.672  21.487  0.00  0.00    +0.000 C 
ATOM     16  C   UNL     1       3.186   2.629  20.697  0.00  0.00    +0.000 C 
ENDBRANCH   9  11
ENDBRANCH   1   9
TORSDOF 5
ENDMDL
MODEL 8
REMARK VINA RESULT:      -5.6      1.371      1.814
REMARK  Name = 
REMARK  8 active torsions:
REMARK  status: ('A' for Active; 'I' for Inactive)
REMARK    1  A    between atoms: C_1  and  C_2
REMARK    2  A    between atoms: C_2  and  C_3
REMARK    3  A    between atoms: C_2  and  C_4
REMARK    4  A    between atoms: C_2  and  O_5
REMARK    5  A    between atoms: O_5  and  C_6
REMARK    6  A    between atoms: C_6  and  C_8
REMARK    7  A    between atoms: C_8  and  N_9
REMARK    8  A    between atoms: N_9  and  C_10
REMARK                            x       y       z     vdW  Elec       q    Type
REMARK                         _______ _______ _______ _____ _____    ______ ____
ROOT
ATOM      1  C   UNL     1       4.795   4.072  19.195  0.00  0.00    +0.000 C 
ENDROOT
BRANCH   1   2
ATOM      2  C   UNL     1       4.290   2.773  19.819  0.00  0.00    +0.000 C 
ATOM      3  O   UNL     1       5.001   1.993  20.442  0.00  0.00    +0.000 OA
BRANCH   2   4
ATOM      4  O   UNL     1       2.963   2.606  19.545  0.00  0.00    +0.000 OA
BRANCH   4   6
ATOM      5  C   UNL     1       0.576   3.167  19.723  0.00  0.00    +0.000 C 
ATOM      6  C   UNL     1       1.966   3.264  20.368  0.00  0.00    +0.000 C 
ATOM      7  C   UNL     1       2.369   4.709  20.678  0.00  0.00    +0.000 C 
ATOM      8  C   UNL     1       1.936   2.477  21.688  0.00  0.00    +0.000 C 
ENDBRANCH   4   6
ENDBRANCH   2   4
ENDBRANCH   1   2
BRANCH   1   9
ATOM      9  N   UNL     1       6.047   3.814  18.464  0.00  0.00    +0.000 NA
ATOM     10  H   UNL     1       6.022   2.857  18.102  0.00  0.00    +0.000 HD
BRANCH   9  11
ATOM     11  C   UNL     1       6.322   4.772  17.387  0.00  0.00    +0.000 C 
ATOM     12  C   UNL     1       5.147   5.753  17.292  0.00  0.00    +0.000 C 
ATOM     13  C   UNL     1       5.300   6.675  16.089  0.00  0.00    +0.000 C 
ATOM     14  O   UNL     1       5.446   5.922  14.887  0.00  0.00    +0.000 OA
ATOM     15  C   UNL     1       6.611   5.101  14.907  0.00  0.00    +0.000 C 
ATOM     16  C   UNL     1       6.537   4.082  16.033  0.00  0.00    +0.000 C 
ENDBRANCH   9  11
ENDBRANCH   1   9
TORSDOF 5
ENDMDL
MODEL 9
REMARK VINA RESULT:      -5.6      1.376      1.919
REMARK  Name = 
REMARK  8 active torsions:
REMARK  status: ('A' for Active; 'I' for Inactive)
REMARK    1  A    between atoms: C_1  and  C_2
REMARK    2  A    between atoms: C_2  and  C_3
REMARK    3  A    between atoms: C_2  and  C_4
REMARK    4  A    between atoms: C_2  and  O_5
REMARK    5  A    between atoms: O_5  and  C_6
REMARK    6  A    between atoms: C_6  and  C_8
REMARK    7  A    between atoms: C_8  and  N_9
REMARK    8  A    between atoms: N_9  and  C_10
REMARK                            x       y       z     vdW  Elec       q    Type
REMARK                         _______ _______ _______ _____ _____    ______ ____
ROOT
ATOM      1  C   UNL     1       4.223   2.582  17.921  0.00  0.00    +0.000 C 
ENDROOT
BRANCH   1   2
ATOM      2  C   UNL     1       2.909   3.354  18.008  0.00  0.00    +0.000 C 
ATOM      3  O   UNL     1       2.127   3.478  17.072  0.00  0.00    +0.000 OA
BRANCH   2   4
ATOM      4  O   UNL     1       2.768   3.901  19.251  0.00  0.00    +0.000 OA
BRANCH   4   6
ATOM      5  C   UNL     1       2.363   2.859  21.441  0.00  0.00    +0.000 C 
ATOM      6  C   UNL     1       1.741   3.406  20.147  0.00  0.00    +0.000 C 
ATOM      7  C   UNL     1       0.843   2.380  19.449  0.00  0.00    +0.000 C 
ATOM      8  C   UNL     1       0.884   4.629  20.510  0.00  0.00    +0.000 C 
ENDBRANCH   4   6
ENDBRANCH   2   4
ENDBRANCH   1   2
BRANCH   1   9
ATOM      9  N   UNL     1       5.319   3.410  18.455  0.00  0.00    +0.000 NA
ATOM     10  H   UNL     1       6.143   2.817  18.583  0.00  0.00    +0.000 HD
BRANCH   9  11
ATOM     11  C   UNL     1       5.642   4.581  17.632  0.00  0.00    +0.000 C 
ATOM     12  C   UNL     1       5.948   4.108  16.205  0.00  0.00    +0.000 C 
ATOM     13  C   UNL     1       6.444   5.261  15.342  0.00  0.00    +0.000 C 
ATOM     14  O   UNL     1       7.578   5.890  15.936  0.00  0.00    +0.000 OA
ATOM     15  C   UNL     1       7.273   6.452  17.209  0.00  0.00    +0.000 C 
ATOM     16  C   UNL     1       6.833   5.374  18.187  0.00  0.00    +0.000 C 
ENDBRANCH   9  11
ENDBRANCH   1   9
TORSDOF 5
ENDMDL
