MODEL 1
REMARK VINA RESULT:      -8.0      0.000      0.000
REMARK  Name = 
REMARK  6 active torsions:
REMARK  status: ('A' for Active; 'I' for Inactive)
REMARK    1  A    between atoms: C_1  and  C_2
REMARK    2  A    between atoms: C_4  and  C_5
REMARK    3  A    between atoms: C_7  and  N_8
REMARK    4  A    between atoms: N_8  and  S_9
REMARK    5  A    between atoms: S_9  and  C_12
REMARK    6  A    between atoms: C_15  and  N_16
REMARK                            x       y       z     vdW  Elec       q    Type
REMARK                         _______ _______ _______ _____ _____    ______ ____
ROOT
ATOM      1  S   UNL     1       3.735   3.333  19.072  0.00  0.00    +0.000 S 
ATOM      2  O   UNL     1       3.395   2.782  17.775  0.00  0.00    +0.000 OA
ATOM      3  O   UNL     1       3.363   2.651  20.293  0.00  0.00    +0.000 OA
ENDROOT
BRANCH   1   4
ATOM      4  C   UNL     1       3.081   4.988  19.135  0.00  0.00    +0.000 A 
ATOM      5  C   UNL     1       3.045   5.765  17.974  0.00  0.00    +0.000 A 
ATOM      6  C   UNL     1       2.536   7.067  18.024  0.00  0.00    +0.000 A 
ATOM      7  C   UNL     1       2.051   7.590  19.233  0.00  0.00    +0.000 A 
ATOM      8  C   UNL     1       2.085   6.796  20.392  0.00  0.00    +0.000 A 
ATOM      9  C   UNL     1       2.585   5.492  20.340  0.00  0.00    +0.000 A 
BRANCH   7  10
ATOM     10  N   UNL     1       1.510   8.907  19.299  0.00  0.00    +0.000 N 
ATOM     11  C   UNL     1       0.803   9.483  20.336  0.00  0.00    +0.000 A 
ATOM     12  C   UNL     1       0.517  10.776  19.967  0.00  0.00    +0.000 A 
ATOM     13  C   UNL     1       1.072  10.903  18.686  0.00  0.00    +0.000 A 
ATOM     14  N   UNL     1       1.667   9.784  18.273  0.00  0.00    +0.000 NA
ENDBRANCH   7  10
ENDBRANCH   1   4
BRANCH   1  15
ATOM     15  N   UNL     1       5.388   3.580  19.050  0.00  0.00    +0.000 N 
ATOM     16  H   UNL     1       5.950   3.124  19.763  0.00  0.00    +0.000 HD
BRANCH  15  23
ATOM     17  C   UNL     1       6.433   4.498  14.323  0.00  0.00    +0.000 C 
ATOM     18  C   UNL     1       6.517   4.885  15.769  0.00  0.00    +0.000 A 
ATOM     19  C   UNL     1       7.139   6.076  16.167  0.00  0.00    +0.000 A 
ATOM     20  C   UNL     1       7.198   6.440  17.520  0.00  0.00    +0.000 A 
ATOM     21  C   UNL     1       7.876   7.708  17.947  0.00  0.00    +0.000 C 
ATOM     22  C   UNL     1       6.609   5.603  18.479  0.00  0.00    +0.000 A 
ATOM     23  C   UNL     1       5.984   4.424  18.085  0.00  0.00    +0.000 A 
ATOM     24  C   UNL     1       5.958   4.051  16.743  0.00  0.00    +0.000 A 
ENDBRANCH  15  23
ENDBRANCH   1  15
TORSDOF 4
ENDMDL
MODEL 2
REMARK VINA RESULT:      -8.0      0.472      1.976
REMARK  Name = 
REMARK  6 active torsions:
REMARK  status: ('A' for Active; 'I' for Inactive)
REMARK    1  A    between atoms: C_1  and  C_2
REMARK    2  A    between atoms: C_4  and  C_5
REMARK    3  A    between atoms: C_7  and  N_8
REMARK    4  A    between atoms: N_8  and  S_9
REMARK    5  A    between atoms: S_9  and  C_12
REMARK    6  A    between atoms: C_15  and  N_16
REMARK                            x       y       z     vdW  Elec       q    Type
REMARK                         _______ _______ _______ _____ _____    ______ ____
ROOT
ATOM      1  S   UNL     1       3.450   3.221  19.112  0.00  0.00    +0.000 S 
ATOM      2  O   UNL     1       3.121   2.687  17.805  0.00  0.00    +0.000 OA
ATOM      3  O   UNL     1       2.999   2.564  20.320  0.00  0.00    +0.000 OA
ENDROOT
BRANCH   1   4
ATOM      4  C   UNL     1       2.892   4.911  19.152  0.00  0.00    +0.000 A 
ATOM      5  C   UNL     1       2.858   5.659  17.973  0.00  0.00    +0.000 A 
ATOM      6  C   UNL     1       2.424   6.989  18.005  0.00  0.00    +0.000 A 
ATOM      7  C   UNL     1       2.012   7.569  19.215  0.00  0.00    +0.000 A 
ATOM      8  C   UNL     1       2.042   6.803  20.393  0.00  0.00    +0.000 A 
ATOM      9  C   UNL     1       2.467   5.471  20.360  0.00  0.00    +0.000 A 
BRANCH   7  10
ATOM     10  N   UNL     1       1.548   8.915  19.264  0.00  0.00    +0.000 N 
ATOM     11  C   UNL     1       1.586   9.863  18.261  0.00  0.00    +0.000 A 
ATOM     12  C   UNL     1       0.995  11.003  18.752  0.00  0.00    +0.000 A 
ATOM     13  C   UNL     1       0.638  10.671  20.066  0.00  0.00    +0.000 A 
ATOM     14  N   UNL     1       0.970   9.420  20.386  0.00  0.00    +0.000 NA
ENDBRANCH   7  10
ENDBRANCH   1   4
BRANCH   1  15
ATOM     15  N   UNL     1       5.115   3.371  19.144  0.00  0.00    +0.000 N 
ATOM     16  H   UNL     1       5.629   2.851  19.849  0.00  0.00    +0.000 HD
BRANCH  15  23
ATOM     17  C   UNL     1       8.042   7.261  18.388  0.00  0.00    +0.000 C 
ATOM     18  C   UNL     1       7.211   6.138  17.844  0.00  0.00    +0.000 A 
ATOM     19  C   UNL     1       7.122   5.902  16.466  0.00  0.00    +0.000 A 
ATOM     20  C   UNL     1       6.356   4.838  15.966  0.00  0.00    +0.000 A 
ATOM     21  C   UNL     1       6.249   4.594  14.490  0.00  0.00    +0.000 C 
ATOM     22  C   UNL     1       5.690   3.994  16.866  0.00  0.00    +0.000 A 
ATOM     23  C   UNL     1       5.785   4.221  18.236  0.00  0.00    +0.000 A 
ATOM     24  C   UNL     1       6.518   5.300  18.724  0.00  0.00    +0.000 A 
ENDBRANCH  15  23
ENDBRANCH   1  15
TORSDOF 4
ENDMDL
MODEL 3
REMARK VINA RESULT:      -8.0      0.491      1.312
REMARK  Name = 
REMARK  6 active torsions:
REMARK  status: ('A' for Active; 'I' for Inactive)
REMARK    1  A    between atoms: C_1  and  C_2
REMARK    2  A    between atoms: C_4  and  C_5
REMARK    3  A    between atoms: C_7  and  N_8
REMARK    4  A    between atoms: N_8  and  S_9
REMARK    5  A    between atoms: S_9  and  C_12
REMARK    6  A    between atoms: C_15  and  N_16
REMARK                            x       y       z     vdW  Elec       q    Type
REMARK                         _______ _______ _______ _____ _____    ______ ____
ROOT
ATOM      1  S   UNL     1       3.553   3.108  19.149  0.00  0.00    +0.000 S 
ATOM      2  O   UNL     1       3.112   2.501  17.908  0.00  0.00    +0.000 OA
ATOM      3  O   UNL     1       3.230   2.510  20.427  0.00  0.00    +0.000 OA
ENDROOT
BRANCH   1   4
ATOM      4  C   UNL     1       2.970   4.790  19.155  0.00  0.00    +0.000 A 
ATOM      5  C   UNL     1       2.635   5.405  20.364  0.00  0.00    +0.000 A 
ATOM      6  C   UNL     1       2.172   6.725  20.368  0.00  0.00    +0.000 A 
ATOM      7  C   UNL     1       2.055   7.437  19.163  0.00  0.00    +0.000 A 
ATOM      8  C   UNL     1       2.404   6.810  17.955  0.00  0.00    +0.000 A 
ATOM      9  C   UNL     1       2.874   5.494  17.951  0.00  0.00    +0.000 A 
BRANCH   7  10
ATOM     10  N   UNL     1       1.605   8.789  19.149  0.00  0.00    +0.000 N 
ATOM     11  C   UNL     1       1.795   9.737  18.164  0.00  0.00    +0.000 A 
ATOM     12  C   UNL     1       1.154  10.883  18.570  0.00  0.00    +0.000 A 
ATOM     13  C   UNL     1       0.612  10.554  19.820  0.00  0.00    +0.000 A 
ATOM     14  N   UNL     1       0.880   9.299  20.180  0.00  0.00    +0.000 NA
ENDBRANCH   7  10
ENDBRANCH   1   4
BRANCH   1  15
ATOM     15  N   UNL     1       5.210   3.282  19.014  0.00  0.00    +0.000 N 
ATOM     16  H   UNL     1       5.799   2.773  19.666  0.00  0.00    +0.000 HD
BRANCH  15  23
ATOM     17  C   UNL     1       6.027   4.299  14.263  0.00  0.00    +0.000 C 
ATOM     18  C   UNL     1       6.196   4.647  15.711  0.00  0.00    +0.000 A 
ATOM     19  C   UNL     1       6.865   5.813  16.105  0.00  0.00    +0.000 A 
ATOM     20  C   UNL     1       7.003   6.140  17.463  0.00  0.00    +0.000 A 
ATOM     21  C   UNL     1       7.733   7.381  17.885  0.00  0.00    +0.000 C 
ATOM     22  C   UNL     1       6.446   5.292  18.430  0.00  0.00    +0.000 A 
ATOM     23  C   UNL     1       5.774   4.137  18.040  0.00  0.00    +0.000 A 
ATOM     24  C   UNL     1       5.669   3.800  16.693  0.00  0.00    +0.000 A 
ENDBRANCH  15  23
ENDBRANCH   1  15
TORSDOF 4
ENDMDL
MODEL 4
REMARK VINA RESULT:      -7.9      0.592      2.244
REMARK  Name = 
REMARK  6 active torsions:
REMARK  status: ('A' for Active; 'I' for Inactive)
REMARK    1  A    between atoms: C_1  and  C_2
REMARK    2  A    between atoms: C_4  and  C_5
REMARK    3  A    between atoms: C_7  and  N_8
REMARK    4  A    between atoms: N_8  and  S_9
REMARK    5  A    between atoms: S_9  and  C_12
REMARK    6  A    between atoms: C_15  and  N_16
REMARK                            x       y       z     vdW  Elec       q    Type
REMARK                         _______ _______ _______ _____ _____    ______ ____
ROOT
ATOM      1  S   UNL     1       3.646   3.199  19.007  0.00  0.00    +0.000 S 
ATOM      2  O   UNL     1       3.295   2.787  17.662  0.00  0.00    +0.000 OA
ATOM      3  O   UNL     1       3.301   2.382  20.151  0.00  0.00    +0.000 OA
ENDROOT
BRANCH   1   4
ATOM      4  C   UNL     1       2.971   4.827  19.258  0.00  0.00    +0.000 A 
ATOM      5  C   UNL     1       2.391   5.156  20.486  0.00  0.00    +0.000 A 
ATOM      6  C   UNL     1       1.855   6.435  20.681  0.00  0.00    +0.000 A 
ATOM      7  C   UNL     1       1.910   7.389  19.652  0.00  0.00    +0.000 A 
ATOM      8  C   UNL     1       2.504   7.047  18.426  0.00  0.00    +0.000 A 
ATOM      9  C   UNL     1       3.047   5.774  18.233  0.00  0.00    +0.000 A 
BRANCH   7  10
ATOM     10  N   UNL     1       1.389   8.701  19.840  0.00  0.00    +0.000 N 
ATOM     11  C   UNL     1       1.045   9.624  18.872  0.00  0.00    +0.000 A 
ATOM     12  C   UNL     1       0.555  10.733  19.520  0.00  0.00    +0.000 A 
ATOM     13  C   UNL     1       0.649  10.411  20.880  0.00  0.00    +0.000 A 
ATOM     14  N   UNL     1       1.153   9.194  21.084  0.00  0.00    +0.000 NA
ENDBRANCH   7  10
ENDBRANCH   1   4
BRANCH   1  15
ATOM     15  N   UNL     1       5.296   3.472  18.991  0.00  0.00    +0.000 N 
ATOM     16  H   UNL     1       5.858   3.050  19.724  0.00  0.00    +0.000 HD
BRANCH  15  23
ATOM     17  C   UNL     1       7.780   7.568  17.844  0.00  0.00    +0.000 C 
ATOM     18  C   UNL     1       7.096   6.305  17.418  0.00  0.00    +0.000 A 
ATOM     19  C   UNL     1       7.067   5.912  16.073  0.00  0.00    +0.000 A 
ATOM     20  C   UNL     1       6.438   4.719  15.685  0.00  0.00    +0.000 A 
ATOM     21  C   UNL     1       6.395   4.307  14.243  0.00  0.00    +0.000 C 
ATOM     22  C   UNL     1       5.851   3.906  16.664  0.00  0.00    +0.000 A 
ATOM     23  C   UNL     1       5.886   4.290  18.002  0.00  0.00    +0.000 A 
ATOM     24  C   UNL     1       6.481   5.493  18.377  0.00  0.00    +0.000 A 
ENDBRANCH  15  23
ENDBRANCH   1  15
TORSDOF 4
ENDMDL
MODEL 5
REMARK VINA RESULT:      -7.8      1.007      2.114
REMARK  Name = 
REMARK  6 active torsions:
REMARK  status: ('A' for Active; 'I' for Inactive)
REMARK    1  A    between atoms: C_1  and  C_2
REMARK    2  A    between atoms: C_4  and  C_5
REMARK    3  A    between atoms: C_7  and  N_8
REMARK    4  A    between atoms: N_8  and  S_9
REMARK    5  A    between atoms: S_9  and  C_12
REMARK    6  A    between atoms: C_15  and  N_16
REMARK                            x       y       z     vdW  Elec       q    Type
REMARK                         _______ _______ _______ _____ _____    ______ ____
ROOT
ATOM      1  S   UNL     1       2.819   3.116  18.266  0.00  0.00    +0.000 S 
ATOM      2  O   UNL     1       2.568   3.145  16.838  0.00  0.00    +0.000 OA
ATOM      3  O   UNL     1       2.210   2.110  19.110  0.00  0.00    +0.000 OA
ENDROOT
BRANCH   1   4
ATOM      4  C   UNL     1       2.396   4.720  18.913  0.00  0.00    +0.000 A 
ATOM      5  C   UNL     1       2.515   5.850  18.099  0.00  0.00    +0.000 A 
ATOM      6  C   UNL     1       2.188   7.111  18.609  0.00  0.00    +0.000 A 
ATOM      7  C   UNL     1       1.730   7.242  19.930  0.00  0.00    +0.000 A 
ATOM      8  C   UNL     1       1.607   6.097  20.735  0.00  0.00    +0.000 A 
ATOM      9  C   UNL     1       1.926   4.836  20.224  0.00  0.00    +0.000 A 
BRANCH   7  10
ATOM     10  N   UNL     1       1.373   8.516  20.460  0.00  0.00    +0.000 N 
ATOM     11  C   UNL     1       1.260   8.882  21.787  0.00  0.00    +0.000 A 
ATOM     12  C   UNL     1       0.929  10.216  21.816  0.00  0.00    +0.000 A 
ATOM     13  C   UNL     1       0.844  10.583  20.467  0.00  0.00    +0.000 A 
ATOM     14  N   UNL     1       1.105   9.568  19.643  0.00  0.00    +0.000 NA
ENDBRANCH   7  10
ENDBRANCH   1   4
BRANCH   1  15
ATOM     15  N   UNL     1       4.481   3.063  18.441  0.00  0.00    +0.000 N 
ATOM     16  H   UNL     1       4.869   2.425  19.130  0.00  0.00    +0.000 HD
BRANCH  15  23
ATOM     17  C   UNL     1       7.723   6.769  18.284  0.00  0.00    +0.000 C 
ATOM     18  C   UNL     1       6.904   5.732  17.577  0.00  0.00    +0.000 A 
ATOM     19  C   UNL     1       6.986   5.564  16.188  0.00  0.00    +0.000 A 
ATOM     20  C   UNL     1       6.228   4.579  15.537  0.00  0.00    +0.000 A 
ATOM     21  C   UNL     1       6.305   4.408  14.048  0.00  0.00    +0.000 C 
ATOM     22  C   UNL     1       5.395   3.744  16.295  0.00  0.00    +0.000 A 
ATOM     23  C   UNL     1       5.319   3.904  17.675  0.00  0.00    +0.000 A 
ATOM     24  C   UNL     1       6.047   4.906  18.313  0.00  0.00    +0.000 A 
ENDBRANCH  15  23
ENDBRANCH   1  15
TORSDOF 4
ENDMDL
MODEL 6
REMARK VINA RESULT:      -7.6      0.727      1.250
REMARK  Name = 
REMARK  6 active torsions:
REMARK  status: ('A' for Active; 'I' for Inactive)
REMARK    1  A    between atoms: C_1  and  C_2
REMARK    2  A    between atoms: C_4  and  C_5
REMARK    3  A    between atoms: C_7  and  N_8
REMARK    4  A    between atoms: N_8  and  S_9
REMARK    5  A    between atoms: S_9  and  C_12
REMARK    6  A    between atoms: C_15  and  N_16
REMARK                            x       y       z     vdW  Elec       q    Type
REMARK                         _______ _______ _______ _____ _____    ______ ____
ROOT
ATOM      1  S   UNL     1       2.974   3.852  19.043  0.00  0.00    +0.000 S 
ATOM      2  O   UNL     1       2.653   3.411  17.700  0.00  0.00    +0.000 OA
ATOM      3  O   UNL     1       2.461   3.151  20.201  0.00  0.00    +0.000 OA
ENDROOT
BRANCH   1   4
ATOM      4  C   UNL     1       2.499   5.563  19.170  0.00  0.00    +0.000 A 
ATOM      5  C   UNL     1       2.034   6.067  20.387  0.00  0.00    +0.000 A 
ATOM      6  C   UNL     1       1.656   7.410  20.485  0.00  0.00    +0.000 A 
ATOM      7  C   UNL     1       1.754   8.255  19.368  0.00  0.00    +0.000 A 
ATOM      8  C   UNL     1       2.231   7.738  18.152  0.00  0.00    +0.000 A 
ATOM      9  C   UNL     1       2.617   6.398  18.055  0.00  0.00    +0.000 A 
BRANCH   7  10
ATOM     10  N   UNL     1       1.392   9.631  19.454  0.00  0.00    +0.000 N 
ATOM     11  C   UNL     1       0.810  10.290  20.518  0.00  0.00    +0.000 A 
ATOM     12  C   UNL     1       0.680  11.611  20.158  0.00  0.00    +0.000 A 
ATOM     13  C   UNL     1       1.192  11.669  18.856  0.00  0.00    +0.000 A 
ATOM     14  N   UNL     1       1.620  10.484  18.420  0.00  0.00    +0.000 NA
ENDBRANCH   7  10
ENDBRANCH   1   4
BRANCH   1  15
ATOM     15  N   UNL     1       4.643   3.916  19.121  0.00  0.00    +0.000 N 
ATOM     16  H   UNL     1       5.099   3.521  19.938  0.00  0.00    +0.000 HD
BRANCH  15  23
ATOM     17  C   UNL     1       6.124   3.942  14.423  0.00  0.00    +0.000 C 
ATOM     18  C   UNL     1       6.144   4.552  15.792  0.00  0.00    +0.000 A 
ATOM     19  C   UNL     1       6.859   5.728  16.054  0.00  0.00    +0.000 A 
ATOM     20  C   UNL     1       6.858   6.301  17.334  0.00  0.00    +0.000 A 
ATOM     21  C   UNL     1       7.637   7.552  17.618  0.00  0.00    +0.000 C 
ATOM     22  C   UNL     1       6.114   5.693  18.355  0.00  0.00    +0.000 A 
ATOM     23  C   UNL     1       5.395   4.529  18.095  0.00  0.00    +0.000 A 
ATOM     24  C   UNL     1       5.428   3.946  16.830  0.00  0.00    +0.000 A 
ENDBRANCH  15  23
ENDBRANCH   1  15
TORSDOF 4
ENDMDL
MODEL 7
REMARK VINA RESULT:      -7.6      0.721      2.187
REMARK  Name = 
REMARK  6 active torsions:
REMARK  status: ('A' for Active; 'I' for Inactive)
REMARK    1  A    between atoms: C_1  and  C_2
REMARK    2  A    between atoms: C_4  and  C_5
REMARK    3  A    between atoms: C_7  and  N_8
REMARK    4  A    between atoms: N_8  and  S_9
REMARK    5  A    between atoms: S_9  and  C_12
REMARK    6  A    between atoms: C_15  and  N_16
REMARK                            x       y       z     vdW  Elec       q    Type
REMARK                         _______ _______ _______ _____ _____    ______ ____
ROOT
ATOM      1  S   UNL     1       2.936   3.804  18.818  0.00  0.00    +0.000 S 
ATOM      2  O   UNL     1       2.638   3.409  17.455  0.00  0.00    +0.000 OA
ATOM      3  O   UNL     1       2.383   3.080  19.942  0.00  0.00    +0.000 OA
ENDROOT
BRANCH   1   4
ATOM      4  C   UNL     1       2.491   5.520  18.984  0.00  0.00    +0.000 A 
ATOM      5  C   UNL     1       2.142   6.029  20.238  0.00  0.00    +0.000 A 
ATOM      6  C   UNL     1       1.788   7.376  20.367  0.00  0.00    +0.000 A 
ATOM      7  C   UNL     1       1.792   8.219  19.245  0.00  0.00    +0.000 A 
ATOM      8  C   UNL     1       2.153   7.697  17.991  0.00  0.00    +0.000 A 
ATOM      9  C   UNL     1       2.516   6.354  17.862  0.00  0.00    +0.000 A 
BRANCH   7  10
ATOM     10  N   UNL     1       1.453   9.599  19.361  0.00  0.00    +0.000 N 
ATOM     11  C   UNL     1       0.814  10.230  20.409  0.00  0.00    +0.000 A 
ATOM     12  C   UNL     1       0.734  11.566  20.094  0.00  0.00    +0.000 A 
ATOM     13  C   UNL     1       1.334  11.662  18.832  0.00  0.00    +0.000 A 
ATOM     14  N   UNL     1       1.766  10.485  18.379  0.00  0.00    +0.000 NA
ENDBRANCH   7  10
ENDBRANCH   1   4
BRANCH   1  15
ATOM     15  N   UNL     1       4.604   3.833  18.936  0.00  0.00    +0.000 N 
ATOM     16  H   UNL     1       5.033   3.403  19.749  0.00  0.00    +0.000 HD
BRANCH  15  23
ATOM     17  C   UNL     1       7.648   7.496  17.678  0.00  0.00    +0.000 C 
ATOM     18  C   UNL     1       6.878   6.265  17.306  0.00  0.00    +0.000 A 
ATOM     19  C   UNL     1       6.957   5.719  16.019  0.00  0.00    +0.000 A 
ATOM     20  C   UNL     1       6.246   4.557  15.685  0.00  0.00    +0.000 A 
ATOM     21  C   UNL     1       6.319   3.981  14.301  0.00  0.00    +0.000 C 
ATOM     22  C   UNL     1       5.463   3.929  16.664  0.00  0.00    +0.000 A 
ATOM     23  C   UNL     1       5.391   4.465  17.947  0.00  0.00    +0.000 A 
ATOM     24  C   UNL     1       6.071   5.639  18.263  0.00  0.00    +0.000 A 
ENDBRANCH  15  23
ENDBRANCH   1  15
TORSDOF 4
ENDMDL
MODEL 8
REMARK VINA RESULT:      -7.6      0.855      2.001
REMARK  Name = 
REMARK  6 active torsions:
REMARK  status: ('A' for Active; 'I' for Inactive)
REMARK    1  A    between atoms: C_1  and  C_2
REMARK    2  A    between atoms: C_4  and  C_5
REMARK    3  A    between atoms: C_7  and  N_8
REMARK    4  A    between atoms: N_8  and  S_9
REMARK    5  A    between atoms: S_9  and  C_12
REMARK    6  A    between atoms: C_15  and  N_16
REMARK                            x       y       z     vdW  Elec       q    Type
REMARK                         _______ _______ _______ _____ _____    ______ ____
ROOT
ATOM      1  S   UNL     1       2.905   3.918  18.985  0.00  0.00    +0.000 S 
ATOM      2  O   UNL     1       2.579   3.597  17.610  0.00  0.00    +0.000 OA
ATOM      3  O   UNL     1       2.402   3.113  20.078  0.00  0.00    +0.000 OA
ENDROOT
BRANCH   1   4
ATOM      4  C   UNL     1       2.423   5.608  19.266  0.00  0.00    +0.000 A 
ATOM      5  C   UNL     1       2.522   6.540  18.230  0.00  0.00    +0.000 A 
ATOM      6  C   UNL     1       2.148   7.870  18.452  0.00  0.00    +0.000 A 
ATOM      7  C   UNL     1       1.662   8.267  19.708  0.00  0.00    +0.000 A 
ATOM      8  C   UNL     1       1.559   7.318  20.739  0.00  0.00    +0.000 A 
ATOM      9  C   UNL     1       1.924   5.988  20.515  0.00  0.00    +0.000 A 
BRANCH   7  10
ATOM     10  N   UNL     1       1.257   9.612  19.947  0.00  0.00    +0.000 N 
ATOM     11  C   UNL     1       0.770  10.156  21.118  0.00  0.00    +0.000 A 
ATOM     12  C   UNL     1       0.547  11.493  20.887  0.00  0.00    +0.000 A 
ATOM     13  C   UNL     1       0.909  11.679  19.546  0.00  0.00    +0.000 A 
ATOM     14  N   UNL     1       1.333  10.554  18.970  0.00  0.00    +0.000 NA
ENDBRANCH   7  10
ENDBRANCH   1   4
BRANCH   1  15
ATOM     15  N   UNL     1       4.575   3.983  19.060  0.00  0.00    +0.000 N 
ATOM     16  H   UNL     1       5.032   3.597  19.881  0.00  0.00    +0.000 HD
BRANCH  15  23
ATOM     17  C   UNL     1       7.693   7.515  17.623  0.00  0.00    +0.000 C 
ATOM     18  C   UNL     1       6.847   6.322  17.297  0.00  0.00    +0.000 A 
ATOM     19  C   UNL     1       6.820   5.781  16.005  0.00  0.00    +0.000 A 
ATOM     20  C   UNL     1       6.038   4.653  15.714  0.00  0.00    +0.000 A 
ATOM     21  C   UNL     1       5.997   4.083  14.326  0.00  0.00    +0.000 C 
ATOM     22  C   UNL     1       5.292   4.055  16.739  0.00  0.00    +0.000 A 
ATOM     23  C   UNL     1       5.325   4.585  18.025  0.00  0.00    +0.000 A 
ATOM     24  C   UNL     1       6.076   5.726  18.301  0.00  0.00    +0.000 A 
ENDBRANCH  15  23
ENDBRANCH   1  15
TORSDOF 4
ENDMDL
MODEL 9
REMARK VINA RESULT:      -7.4      2.270      6.909
REMARK  Name = 
REMARK  6 active torsions:
REMARK  status: ('A' for Active; 'I' for Inactive)
REMARK    1  A    between atoms: C_1  and  C_2
REMARK    2  A    between atoms: C_4  and  C_5
REMARK    3  A    between atoms: C_7  and  N_8
REMARK    4  A    between atoms: N_8  and  S_9
REMARK    5  A    between atoms: S_9  and  C_12
REMARK    6  A    between atoms: C_15  and  N_16
REMARK                            x       y       z     vdW  Elec       q    Type
REMARK                         _______ _______ _______ _____ _____    ______ ____
ROOT
ATOM      1  S   UNL     1       2.817   4.821  19.074  0.00  0.00    +0.000 S 
ATOM      2  O   UNL     1       3.242   3.768  19.975  0.00  0.00    +0.000 OA
ATOM      3  O   UNL     1       1.449   4.897  18.608  0.00  0.00    +0.000 OA
ENDROOT
BRANCH   1   4
ATOM      4  C   UNL     1       3.891   4.772  17.654  0.00  0.00    +0.000 A 
ATOM      5  C   UNL     1       4.289   3.541  17.127  0.00  0.00    +0.000 A 
ATOM      6  C   UNL     1       5.136   3.503  16.015  0.00  0.00    +0.000 A 
ATOM      7  C   UNL     1       5.577   4.696  15.420  0.00  0.00    +0.000 A 
ATOM      8  C   UNL     1       5.162   5.927  15.955  0.00  0.00    +0.000 A 
ATOM      9  C   UNL     1       4.309   5.967  17.061  0.00  0.00    +0.000 A 
BRANCH   7  10
ATOM     10  N   UNL     1       6.425   4.677  14.275  0.00  0.00    +0.000 N 
ATOM     11  C   UNL     1       6.291   3.912  13.134  0.00  0.00    +0.000 A 
ATOM     12  C   UNL     1       7.320   4.255  12.288  0.00  0.00    +0.000 A 
ATOM     13  C   UNL     1       8.043   5.224  12.996  0.00  0.00    +0.000 A 
ATOM     14  N   UNL     1       7.517   5.482  14.193  0.00  0.00    +0.000 NA
ENDBRANCH   7  10
ENDBRANCH   1   4
BRANCH   1  15
ATOM     15  N   UNL     1       3.236   6.260  19.816  0.00  0.00    +0.000 N 
ATOM     16  H   UNL     1       4.160   6.333  20.231  0.00  0.00    +0.000 HD
BRANCH  15  23
ATOM     17  C   UNL     1       1.245  10.254  17.729  0.00  0.00    +0.000 C 
ATOM     18  C   UNL     1       1.338   9.305  18.886  0.00  0.00    +0.000 A 
ATOM     19  C   UNL     1       0.513   9.446  20.009  0.00  0.00    +0.000 A 
ATOM     20  C   UNL     1       0.595   8.544  21.080  0.00  0.00    +0.000 A 
ATOM     21  C   UNL     1      -0.279   8.703  22.289  0.00  0.00    +0.000 C 
ATOM     22  C   UNL     1       1.505   7.480  21.009  0.00  0.00    +0.000 A 
ATOM     23  C   UNL     1       2.319   7.333  19.890  0.00  0.00    +0.000 A 
ATOM     24  C   UNL     1       2.258   8.252  18.845  0.00  0.00    +0.000 A 
ENDBRANCH  15  23
ENDBRANCH   1  15
TORSDOF 4
ENDMDL
