MODEL 1
REMARK VINA RESULT:      -7.8      0.000      0.000
REMARK  Name = 
REMARK  3 active torsions:
REMARK  status: ('A' for Active; 'I' for Inactive)
REMARK    1  A    between atoms: C_4  and  O_5
REMARK    2  A    between atoms: O_5  and  C_6
REMARK    3  A    between atoms: C_6  and  C_7
REMARK                            x       y       z     vdW  Elec       q    Type
REMARK                         _______ _______ _______ _____ _____    ______ ____
ROOT
ATOM      1  N   UNL     1       7.974   5.586  19.878  0.00  0.00    +0.000 N 
ATOM      2  C   UNL     1       7.273   5.205  18.751  0.00  0.00    +0.000 A 
ATOM      3  N   UNL     1       6.127   4.538  18.957  0.00  0.00    +0.000 NA
ATOM      4  C   UNL     1       5.394   4.126  17.889  0.00  0.00    +0.000 A 
ATOM      5  C   UNL     1       5.858   4.420  16.600  0.00  0.00    +0.000 A 
ATOM      6  N   UNL     1       5.397   4.162  15.322  0.00  0.00    +0.000 NA
ATOM      7  C   UNL     1       6.291   4.699  14.520  0.00  0.00    +0.000 A 
ATOM      8  N   UNL     1       7.298   5.309  15.216  0.00  0.00    +0.000 N 
ATOM      9  C   UNL     1       7.041   5.136  16.544  0.00  0.00    +0.000 A 
ATOM     10  N   UNL     1       7.787   5.568  17.567  0.00  0.00    +0.000 NA
ATOM     11  H   UNL     1       7.351   5.616  20.673  0.00  0.00    +0.000 HD
ATOM     12  H   UNL     1       8.532   6.405  19.688  0.00  0.00    +0.000 HD
ATOM     13  H   UNL     1       8.097   5.793  14.835  0.00  0.00    +0.000 HD
ENDROOT
BRANCH   4  14
ATOM     14  O   UNL     1       4.240   3.445  18.225  0.00  0.00    +0.000 OA
BRANCH  14  15
ATOM     15  C   UNL     1       3.041   3.995  17.682  0.00  0.00    +0.000 C 
BRANCH  15  16
ATOM     16  C   UNL     1       2.625   5.217  18.477  0.00  0.00    +0.000 A 
ATOM     17  C   UNL     1       2.280   5.080  19.831  0.00  0.00    +0.000 A 
ATOM     18  C   UNL     1       1.934   6.197  20.594  0.00  0.00    +0.000 A 
ATOM     19  C   UNL     1       1.939   7.465  20.015  0.00  0.00    +0.000 A 
ATOM     20  C   UNL     1       2.296   7.612  18.677  0.00  0.00    +0.000 A 
ATOM     21 CL   UNL     1       2.312   9.179  17.966  0.00  0.00    +0.000 Cl
ATOM     22  C   UNL     1       2.643   6.500  17.909  0.00  0.00    +0.000 A 
ENDBRANCH  15  16
ENDBRANCH  14  15
ENDBRANCH   4  14
TORSDOF 3
ENDMDL
MODEL 2
REMARK VINA RESULT:      -7.7      2.022      3.447
REMARK  Name = 
REMARK  3 active torsions:
REMARK  status: ('A' for Active; 'I' for Inactive)
REMARK    1  A    between atoms: C_4  and  O_5
REMARK    2  A    between atoms: O_5  and  C_6
REMARK    3  A    between atoms: C_6  and  C_7
REMARK                            x       y       z     vdW  Elec       q    Type
REMARK                         _______ _______ _______ _____ _____    ______ ____
ROOT
ATOM      1  N   UNL     1       6.873   4.639  13.578  0.00  0.00    +0.000 N 
ATOM      2  C   UNL     1       6.664   4.649  14.943  0.00  0.00    +0.000 A 
ATOM      3  N   UNL     1       5.656   3.889  15.399  0.00  0.00    +0.000 NA
ATOM      4  C   UNL     1       5.392   3.863  16.732  0.00  0.00    +0.000 A 
ATOM      5  C   UNL     1       6.189   4.628  17.592  0.00  0.00    +0.000 A 
ATOM      6  N   UNL     1       6.208   4.848  18.957  0.00  0.00    +0.000 NA
ATOM      7  C   UNL     1       7.206   5.683  19.157  0.00  0.00    +0.000 A 
ATOM      8  N   UNL     1       7.845   6.000  17.990  0.00  0.00    +0.000 N 
ATOM      9  C   UNL     1       7.206   5.342  16.981  0.00  0.00    +0.000 A 
ATOM     10  N   UNL     1       7.506   5.389  15.678  0.00  0.00    +0.000 NA
ATOM     11  H   UNL     1       6.472   3.802  13.178  0.00  0.00    +0.000 HD
ATOM     12  H   UNL     1       7.838   4.844  13.366  0.00  0.00    +0.000 HD
ATOM     13  H   UNL     1       8.636   6.616  17.876  0.00  0.00    +0.000 HD
ENDROOT
BRANCH   4  14
ATOM     14  O   UNL     1       4.330   3.051  17.081  0.00  0.00    +0.000 OA
BRANCH  14  15
ATOM     15  C   UNL     1       3.050   3.679  17.016  0.00  0.00    +0.000 C 
BRANCH  15  16
ATOM     16  C   UNL     1       2.637   4.158  18.394  0.00  0.00    +0.000 A 
ATOM     17  C   UNL     1       2.609   5.535  18.671  0.00  0.00    +0.000 A 
ATOM     18  C   UNL     1       2.193   6.001  19.919  0.00  0.00    +0.000 A 
ATOM     19  C   UNL     1       1.790   5.098  20.901  0.00  0.00    +0.000 A 
ATOM     20  C   UNL     1       1.799   3.732  20.630  0.00  0.00    +0.000 A 
ATOM     21 CL   UNL     1       1.290   2.619  21.840  0.00  0.00    +0.000 Cl
ATOM     22  C   UNL     1       2.213   3.259  19.384  0.00  0.00    +0.000 A 
ENDBRANCH  15  16
ENDBRANCH  14  15
ENDBRANCH   4  14
TORSDOF 3
ENDMDL
MODEL 3
REMARK VINA RESULT:      -7.5      1.542      3.128
REMARK  Name = 
REMARK  3 active torsions:
REMARK  status: ('A' for Active; 'I' for Inactive)
REMARK    1  A    between atoms: C_4  and  O_5
REMARK    2  A    between atoms: O_5  and  C_6
REMARK    3  A    between atoms: C_6  and  C_7
REMARK                            x       y       z     vdW  Elec       q    Type
REMARK                         _______ _______ _______ _____ _____    ______ ____
ROOT
ATOM      1  N   UNL     1       6.564   3.957  13.126  0.00  0.00    +0.000 N 
ATOM      2  C   UNL     1       6.449   4.343  14.447  0.00  0.00    +0.000 A 
ATOM      3  N   UNL     1       5.590   3.640  15.202  0.00  0.00    +0.000 NA
ATOM      4  C   UNL     1       5.423   3.976  16.508  0.00  0.00    +0.000 A 
ATOM      5  C   UNL     1       6.162   5.044  17.029  0.00  0.00    +0.000 A 
ATOM      6  N   UNL     1       6.244   5.654  18.268  0.00  0.00    +0.000 NA
ATOM      7  C   UNL     1       7.126   6.619  18.118  0.00  0.00    +0.000 A 
ATOM      8  N   UNL     1       7.634   6.652  16.848  0.00  0.00    +0.000 N 
ATOM      9  C   UNL     1       7.026   5.658  16.139  0.00  0.00    +0.000 A 
ATOM     10  N   UNL     1       7.228   5.356  14.851  0.00  0.00    +0.000 NA
ATOM     11  H   UNL     1       6.257   3.000  13.022  0.00  0.00    +0.000 HD
ATOM     12  H   UNL     1       7.474   4.199  12.765  0.00  0.00    +0.000 HD
ATOM     13  H   UNL     1       8.323   7.292  16.483  0.00  0.00    +0.000 HD
ENDROOT
BRANCH   4  14
ATOM     14  O   UNL     1       4.510   3.186  17.181  0.00  0.00    +0.000 OA
BRANCH  14  15
ATOM     15  C   UNL     1       3.143   3.460  16.877  0.00  0.00    +0.000 C 
BRANCH  15  16
ATOM     16  C   UNL     1       2.383   3.782  18.147  0.00  0.00    +0.000 A 
ATOM     17  C   UNL     1       1.652   2.772  18.794  0.00  0.00    +0.000 A 
ATOM     18  C   UNL     1       0.978   3.034  19.988  0.00  0.00    +0.000 A 
ATOM     19  C   UNL     1       1.035   4.306  20.555  0.00  0.00    +0.000 A 
ATOM     20  C   UNL     1       1.770   5.310  19.930  0.00  0.00    +0.000 A 
ATOM     21 CL   UNL     1       1.848   6.877  20.636  0.00  0.00    +0.000 Cl
ATOM     22  C   UNL     1       2.447   5.054  18.736  0.00  0.00    +0.000 A 
ENDBRANCH  15  16
ENDBRANCH  14  15
ENDBRANCH   4  14
TORSDOF 3
ENDMDL
MODEL 4
REMARK VINA RESULT:      -7.5      2.281      2.927
REMARK  Name = 
REMARK  3 active torsions:
REMARK  status: ('A' for Active; 'I' for Inactive)
REMARK    1  A    between atoms: C_4  and  O_5
REMARK    2  A    between atoms: O_5  and  C_6
REMARK    3  A    between atoms: C_6  and  C_7
REMARK                            x       y       z     vdW  Elec       q    Type
REMARK                         _______ _______ _______ _____ _____    ______ ____
ROOT
ATOM      1  N   UNL     1       7.924   5.874  19.568  0.00  0.00    +0.000 N 
ATOM      2  C   UNL     1       7.179   5.703  18.418  0.00  0.00    +0.000 A 
ATOM      3  N   UNL     1       5.904   6.123  18.463  0.00  0.00    +0.000 NA
ATOM      4  C   UNL     1       5.115   5.974  17.366  0.00  0.00    +0.000 A 
ATOM      5  C   UNL     1       5.662   5.392  16.216  0.00  0.00    +0.000 A 
ATOM      6  N   UNL     1       5.173   5.083  14.960  0.00  0.00    +0.000 NA
ATOM      7  C   UNL     1       6.187   4.538  14.322  0.00  0.00    +0.000 A 
ATOM      8  N   UNL     1       7.314   4.497  15.096  0.00  0.00    +0.000 N 
ATOM      9  C   UNL     1       6.995   5.032  16.310  0.00  0.00    +0.000 A 
ATOM     10  N   UNL     1       7.809   5.167  17.363  0.00  0.00    +0.000 NA
ATOM     11  H   UNL     1       7.509   6.598  20.138  0.00  0.00    +0.000 HD
ATOM     12  H   UNL     1       8.904   5.956  19.346  0.00  0.00    +0.000 HD
ATOM     13  H   UNL     1       8.218   4.131  14.839  0.00  0.00    +0.000 HD
ENDROOT
BRANCH   4  14
ATOM     14  O   UNL     1       3.824   6.437  17.534  0.00  0.00    +0.000 OA
BRANCH  14  15
ATOM     15  C   UNL     1       3.323   6.344  18.867  0.00  0.00    +0.000 C 
BRANCH  15  16
ATOM     16  C   UNL     1       2.476   5.097  19.017  0.00  0.00    +0.000 A 
ATOM     17  C   UNL     1       1.930   4.487  17.876  0.00  0.00    +0.000 A 
ATOM     18  C   UNL     1       1.181   3.313  17.986  0.00  0.00    +0.000 A 
ATOM     19  C   UNL     1       0.978   2.731  19.236  0.00  0.00    +0.000 A 
ATOM     20  C   UNL     1       1.529   3.320  20.371  0.00  0.00    +0.000 A 
ATOM     21 CL   UNL     1       1.286   2.595  21.913  0.00  0.00    +0.000 Cl
ATOM     22  C   UNL     1       2.279   4.492  20.268  0.00  0.00    +0.000 A 
ENDBRANCH  15  16
ENDBRANCH  14  15
ENDBRANCH   4  14
TORSDOF 3
ENDMDL
MODEL 5
REMARK VINA RESULT:      -7.5      2.081      2.461
REMARK  Name = 
REMARK  3 active torsions:
REMARK  status: ('A' for Active; 'I' for Inactive)
REMARK    1  A    between atoms: C_4  and  O_5
REMARK    2  A    between atoms: O_5  and  C_6
REMARK    3  A    between atoms: C_6  and  C_7
REMARK                            x       y       z     vdW  Elec       q    Type
REMARK                         _______ _______ _______ _____ _____    ______ ____
ROOT
ATOM      1  N   UNL     1       7.532   6.337  18.729  0.00  0.00    +0.000 N 
ATOM      2  C   UNL     1       7.058   5.660  17.623  0.00  0.00    +0.000 A 
ATOM      3  N   UNL     1       6.062   4.786  17.839  0.00  0.00    +0.000 NA
ATOM      4  C   UNL     1       5.557   4.080  16.793  0.00  0.00    +0.000 A 
ATOM      5  C   UNL     1       6.090   4.294  15.516  0.00  0.00    +0.000 A 
ATOM      6  N   UNL     1       5.841   3.769  14.261  0.00  0.00    +0.000 NA
ATOM      7  C   UNL     1       6.686   4.380  13.459  0.00  0.00    +0.000 A 
ATOM      8  N   UNL     1       7.457   5.289  14.129  0.00  0.00    +0.000 N 
ATOM      9  C   UNL     1       7.095   5.243  15.443  0.00  0.00    +0.000 A 
ATOM     10  N   UNL     1       7.614   5.965  16.442  0.00  0.00    +0.000 NA
ATOM     11  H   UNL     1       6.832   6.334  19.457  0.00  0.00    +0.000 HD
ATOM     12  H   UNL     1       7.923   7.227  18.459  0.00  0.00    +0.000 HD
ATOM     13  H   UNL     1       8.175   5.883  13.742  0.00  0.00    +0.000 HD
ENDROOT
BRANCH   4  14
ATOM     14  O   UNL     1       4.541   3.209  17.138  0.00  0.00    +0.000 OA
BRANCH  14  15
ATOM     15  C   UNL     1       3.226   3.751  17.029  0.00  0.00    +0.000 C 
BRANCH  15  16
ATOM     16  C   UNL     1       2.742   4.216  18.387  0.00  0.00    +0.000 A 
ATOM     17  C   UNL     1       2.652   5.591  18.659  0.00  0.00    +0.000 A 
ATOM     18  C   UNL     1       2.170   6.044  19.888  0.00  0.00    +0.000 A 
ATOM     19  C   UNL     1       1.762   5.128  20.857  0.00  0.00    +0.000 A 
ATOM     20  C   UNL     1       1.831   3.763  20.590  0.00  0.00    +0.000 A 
ATOM     21 CL   UNL     1       1.317   2.634  21.782  0.00  0.00    +0.000 Cl
ATOM     22  C   UNL     1       2.312   3.304  19.363  0.00  0.00    +0.000 A 
ENDBRANCH  15  16
ENDBRANCH  14  15
ENDBRANCH   4  14
TORSDOF 3
ENDMDL
MODEL 6
REMARK VINA RESULT:      -7.4      1.611      2.011
REMARK  Name = 
REMARK  3 active torsions:
REMARK  status: ('A' for Active; 'I' for Inactive)
REMARK    1  A    between atoms: C_4  and  O_5
REMARK    2  A    between atoms: O_5  and  C_6
REMARK    3  A    between atoms: C_6  and  C_7
REMARK                            x       y       z     vdW  Elec       q    Type
REMARK                         _______ _______ _______ _____ _____    ______ ____
ROOT
ATOM      1  N   UNL     1       8.084   7.666  18.334  0.00  0.00    +0.000 N 
ATOM      2  C   UNL     1       7.488   6.599  17.691  0.00  0.00    +0.000 A 
ATOM      3  N   UNL     1       6.829   5.725  18.468  0.00  0.00    +0.000 NA
ATOM      4  C   UNL     1       6.229   4.647  17.897  0.00  0.00    +0.000 A 
ATOM      5  C   UNL     1       6.311   4.487  16.508  0.00  0.00    +0.000 A 
ATOM      6  N   UNL     1       5.847   3.542  15.612  0.00  0.00    +0.000 NA
ATOM      7  C   UNL     1       6.261   3.954  14.433  0.00  0.00    +0.000 A 
ATOM      8  N   UNL     1       6.955   5.129  14.519  0.00  0.00    +0.000 N 
ATOM      9  C   UNL     1       7.002   5.481  15.836  0.00  0.00    +0.000 A 
ATOM     10  N   UNL     1       7.598   6.560  16.355  0.00  0.00    +0.000 NA
ATOM     11  H   UNL     1       7.640   7.815  19.230  0.00  0.00    +0.000 HD
ATOM     12  H   UNL     1       8.161   8.456  17.712  0.00  0.00    +0.000 HD
ATOM     13  H   UNL     1       7.372   5.648  13.761  0.00  0.00    +0.000 HD
ENDROOT
BRANCH   4  14
ATOM     14  O   UNL     1       5.588   3.816  18.796  0.00  0.00    +0.000 OA
BRANCH  14  15
ATOM     15  C   UNL     1       4.405   3.193  18.297  0.00  0.00    +0.000 C 
BRANCH  15  16
ATOM     16  C   UNL     1       3.201   3.653  19.094  0.00  0.00    +0.000 A 
ATOM     17  C   UNL     1       2.277   2.705  19.564  0.00  0.00    +0.000 A 
ATOM     18  C   UNL     1       1.183   3.100  20.336  0.00  0.00    +0.000 A 
ATOM     19  C   UNL     1       1.004   4.445  20.655  0.00  0.00    +0.000 A 
ATOM     20  C   UNL     1       1.924   5.390  20.206  0.00  0.00    +0.000 A 
ATOM     21 CL   UNL     1       1.709   7.049  20.610  0.00  0.00    +0.000 Cl
ATOM     22  C   UNL     1       3.021   5.001  19.435  0.00  0.00    +0.000 A 
ENDBRANCH  15  16
ENDBRANCH  14  15
ENDBRANCH   4  14
TORSDOF 3
ENDMDL
MODEL 7
REMARK VINA RESULT:      -7.4      2.132      2.488
REMARK  Name = 
REMARK  3 active torsions:
REMARK  status: ('A' for Active; 'I' for Inactive)
REMARK    1  A    between atoms: C_4  and  O_5
REMARK    2  A    between atoms: O_5  and  C_6
REMARK    3  A    between atoms: C_6  and  C_7
REMARK                            x       y       z     vdW  Elec       q    Type
REMARK                         _______ _______ _______ _____ _____    ______ ____
ROOT
ATOM      1  N   UNL     1       8.222   5.245  19.713  0.00  0.00    +0.000 N 
ATOM      2  C   UNL     1       7.434   5.337  18.583  0.00  0.00    +0.000 A 
ATOM      3  N   UNL     1       6.363   6.142  18.665  0.00  0.00    +0.000 NA
ATOM      4  C   UNL     1       5.541   6.269  17.590  0.00  0.00    +0.000 A 
ATOM      5  C   UNL     1       5.844   5.556  16.423  0.00  0.00    +0.000 A 
ATOM      6  N   UNL     1       5.252   5.436  15.179  0.00  0.00    +0.000 NA
ATOM      7  C   UNL     1       6.021   4.604  14.511  0.00  0.00    +0.000 A 
ATOM      8  N   UNL     1       7.093   4.193  15.254  0.00  0.00    +0.000 N 
ATOM      9  C   UNL     1       6.993   4.786  16.479  0.00  0.00    +0.000 A 
ATOM     10  N   UNL     1       7.833   4.640  17.509  0.00  0.00    +0.000 NA
ATOM     11  H   UNL     1       8.076   6.056  20.298  0.00  0.00    +0.000 HD
ATOM     12  H   UNL     1       9.172   5.011  19.465  0.00  0.00    +0.000 HD
ATOM     13  H   UNL     1       7.825   3.560  14.971  0.00  0.00    +0.000 HD
ENDROOT
BRANCH   4  14
ATOM     14  O   UNL     1       4.471   7.118  17.795  0.00  0.00    +0.000 OA
BRANCH  14  15
ATOM     15  C   UNL     1       3.216   6.623  17.330  0.00  0.00    +0.000 C 
BRANCH  15  16
ATOM     16  C   UNL     1       2.559   5.784  18.407  0.00  0.00    +0.000 A 
ATOM     17  C   UNL     1       2.465   6.284  19.716  0.00  0.00    +0.000 A 
ATOM     18  C   UNL     1       1.827   5.547  20.716  0.00  0.00    +0.000 A 
ATOM     19  C   UNL     1       1.268   4.306  20.417  0.00  0.00    +0.000 A 
ATOM     20  C   UNL     1       1.342   3.809  19.118  0.00  0.00    +0.000 A 
ATOM     21 CL   UNL     1       0.641   2.282  18.747  0.00  0.00    +0.000 Cl
ATOM     22  C   UNL     1       1.977   4.542  18.114  0.00  0.00    +0.000 A 
ENDBRANCH  15  16
ENDBRANCH  14  15
ENDBRANCH   4  14
TORSDOF 3
ENDMDL
MODEL 8
REMARK VINA RESULT:      -7.4      1.675      2.099
REMARK  Name = 
REMARK  3 active torsions:
REMARK  status: ('A' for Active; 'I' for Inactive)
REMARK    1  A    between atoms: C_4  and  O_5
REMARK    2  A    between atoms: O_5  and  C_6
REMARK    3  A    between atoms: C_6  and  C_7
REMARK                            x       y       z     vdW  Elec       q    Type
REMARK                         _______ _______ _______ _____ _____    ______ ____
ROOT
ATOM      1  N   UNL     1       7.599   5.160  19.103  0.00  0.00    +0.000 N 
ATOM      2  C   UNL     1       7.026   4.915  17.871  0.00  0.00    +0.000 A 
ATOM      3  N   UNL     1       5.770   4.441  17.880  0.00  0.00    +0.000 NA
ATOM      4  C   UNL     1       5.153   4.169  16.699  0.00  0.00    +0.000 A 
ATOM      5  C   UNL     1       5.848   4.401  15.506  0.00  0.00    +0.000 A 
ATOM      6  N   UNL     1       5.553   4.238  14.165  0.00  0.00    +0.000 NA
ATOM      7  C   UNL     1       6.634   4.633  13.525  0.00  0.00    +0.000 A 
ATOM      8  N   UNL     1       7.607   5.061  14.386  0.00  0.00    +0.000 N 
ATOM      9  C   UNL     1       7.125   4.914  15.653  0.00  0.00    +0.000 A 
ATOM     10  N   UNL     1       7.766   5.204  16.791  0.00  0.00    +0.000 NA
ATOM     11  H   UNL     1       6.875   5.281  19.798  0.00  0.00    +0.000 HD
ATOM     12  H   UNL     1       8.302   5.880  19.029  0.00  0.00    +0.000 HD
ATOM     13  H   UNL     1       8.522   5.412  14.146  0.00  0.00    +0.000 HD
ENDROOT
BRANCH   4  14
ATOM     14  O   UNL     1       3.867   3.681  16.834  0.00  0.00    +0.000 OA
BRANCH  14  15
ATOM     15  C   UNL     1       3.710   2.679  17.837  0.00  0.00    +0.000 C 
BRANCH  15  16
ATOM     16  C   UNL     1       2.758   3.164  18.911  0.00  0.00    +0.000 A 
ATOM     17  C   UNL     1       2.039   2.230  19.675  0.00  0.00    +0.000 A 
ATOM     18  C   UNL     1       1.187   2.652  20.698  0.00  0.00    +0.000 A 
ATOM     19  C   UNL     1       1.052   4.011  20.976  0.00  0.00    +0.000 A 
ATOM     20  C   UNL     1       1.774   4.944  20.234  0.00  0.00    +0.000 A 
ATOM     21 CL   UNL     1       1.614   6.621  20.585  0.00  0.00    +0.000 Cl
ATOM     22  C   UNL     1       2.627   4.528  19.211  0.00  0.00    +0.000 A 
ENDBRANCH  15  16
ENDBRANCH  14  15
ENDBRANCH   4  14
TORSDOF 3
ENDMDL
MODEL 9
REMARK VINA RESULT:      -7.3      3.158      6.201
REMARK  Name = 
REMARK  3 active torsions:
REMARK  status: ('A' for Active; 'I' for Inactive)
REMARK    1  A    between atoms: C_4  and  O_5
REMARK    2  A    between atoms: O_5  and  C_6
REMARK    3  A    between atoms: C_6  and  C_7
REMARK                            x       y       z     vdW  Elec       q    Type
REMARK                         _______ _______ _______ _____ _____    ______ ____
ROOT
ATOM      1  N   UNL     1       4.837   2.298  19.720  0.00  0.00    +0.000 N 
ATOM      2  C   UNL     1       4.418   3.528  19.255  0.00  0.00    +0.000 A 
ATOM      3  N   UNL     1       4.881   3.903  18.053  0.00  0.00    +0.000 NA
ATOM      4  C   UNL     1       4.514   5.109  17.543  0.00  0.00    +0.000 A 
ATOM      5  C   UNL     1       3.652   5.922  18.291  0.00  0.00    +0.000 A 
ATOM      6  N   UNL     1       3.092   7.171  18.101  0.00  0.00    +0.000 NA
ATOM      7  C   UNL     1       2.368   7.390  19.178  0.00  0.00    +0.000 A 
ATOM      8  N   UNL     1       2.418   6.335  20.048  0.00  0.00    +0.000 N 
ATOM      9  C   UNL     1       3.237   5.392  19.500  0.00  0.00    +0.000 A 
ATOM     10  N   UNL     1       3.566   4.211  20.034  0.00  0.00    +0.000 NA
ATOM     11  H   UNL     1       5.137   1.724  18.944  0.00  0.00    +0.000 HD
ATOM     12  H   UNL     1       4.157   1.908  20.355  0.00  0.00    +0.000 HD
ATOM     13  H   UNL     1       1.951   6.257  20.939  0.00  0.00    +0.000 HD
ENDROOT
BRANCH   4  14
ATOM     14  O   UNL     1       5.058   5.387  16.304  0.00  0.00    +0.000 OA
BRANCH  14  15
ATOM     15  C   UNL     1       6.359   4.845  16.087  0.00  0.00    +0.000 C 
BRANCH  15  16
ATOM     16  C   UNL     1       6.600   4.652  14.603  0.00  0.00    +0.000 A 
ATOM     17  C   UNL     1       7.610   5.387  13.962  0.00  0.00    +0.000 A 
ATOM     18  C   UNL     1       7.877   5.196  12.605  0.00  0.00    +0.000 A 
ATOM     19  C   UNL     1       7.146   4.261  11.876  0.00  0.00    +0.000 A 
ATOM     20  C   UNL     1       6.153   3.515  12.507  0.00  0.00    +0.000 A 
ATOM     21 CL   UNL     1       5.258   2.352  11.608  0.00  0.00    +0.000 Cl
ATOM     22  C   UNL     1       5.881   3.700  13.863  0.00  0.00    +0.000 A 
ENDBRANCH  15  16
ENDBRANCH  14  15
ENDBRANCH   4  14
TORSDOF 3
ENDMDL
