MODEL 1
REMARK VINA RESULT:      -6.7      0.000      0.000
REMARK  Name = 
REMARK  2 active torsions:
REMARK  status: ('A' for Active; 'I' for Inactive)
REMARK    1  A    between atoms: N_1  and  C_2
REMARK    2  A    between atoms: C_5  and  C_6
REMARK                            x       y       z     vdW  Elec       q    Type
REMARK                         _______ _______ _______ _____ _____    ______ ____
ROOT
ATOM      1  C   UNL     1       7.699   5.273  18.488  0.00  0.00    +0.000 C 
ATOM      2  C   UNL     1       6.474   4.827  18.186  0.00  0.00    +0.000 C 
ATOM      3  C   UNL     1       5.405   4.606  19.096  0.00  0.00    +0.000 C 
ATOM      4  C   UNL     1       4.390   4.156  18.364  0.00  0.00    +0.000 C 
ATOM      5  O   UNL     1       4.649   4.052  16.982  0.00  0.00    +0.000 OA
ATOM      6  C   UNL     1       5.955   4.477  16.840  0.00  0.00    +0.000 C 
ATOM      7  S   UNL     1       6.620   4.512  15.322  0.00  0.00    +0.000 S 
ENDROOT
BRANCH   4   8
ATOM      8  C   UNL     1       3.046   3.837  18.859  0.00  0.00    +0.000 A 
ATOM      9  C   UNL     1       2.539   4.448  20.014  0.00  0.00    +0.000 A 
ATOM     10  C   UNL     1       1.295   4.071  20.529  0.00  0.00    +0.000 A 
ATOM     11  C   UNL     1       0.536   3.092  19.889  0.00  0.00    +0.000 A 
ATOM     12  C   UNL     1       1.007   2.505  18.720  0.00  0.00    +0.000 A 
ATOM     13  C   UNL     1       2.251   2.882  18.205  0.00  0.00    +0.000 A 
ENDBRANCH   4   8
BRANCH   1  14
ATOM     14  N   UNL     1       8.195   5.605  19.728  0.00  0.00    +0.000 N 
ATOM     15  H   UNL     1       9.211   5.659  19.768  0.00  0.00    +0.000 HD
ATOM     16  H   UNL     1       7.805   5.074  20.503  0.00  0.00    +0.000 HD
ENDBRANCH   1  14
TORSDOF 2
ENDMDL
MODEL 2
REMARK VINA RESULT:      -6.6      0.126      1.292
REMARK  Name = 
REMARK  2 active torsions:
REMARK  status: ('A' for Active; 'I' for Inactive)
REMARK    1  A    between atoms: N_1  and  C_2
REMARK    2  A    between atoms: C_5  and  C_6
REMARK                            x       y       z     vdW  Elec       q    Type
REMARK                         _______ _______ _______ _____ _____    ______ ____
ROOT
ATOM      1  C   UNL     1       7.693   5.329  18.526  0.00  0.00    +0.000 C 
ATOM      2  C   UNL     1       6.488   4.838  18.215  0.00  0.00    +0.000 C 
ATOM      3  C   UNL     1       5.433   4.548  19.122  0.00  0.00    +0.000 C 
ATOM      4  C   UNL     1       4.436   4.073  18.380  0.00  0.00    +0.000 C 
ATOM      5  O   UNL     1       4.695   4.013  16.996  0.00  0.00    +0.000 OA
ATOM      6  C   UNL     1       5.981   4.498  16.863  0.00  0.00    +0.000 C 
ATOM      7  S   UNL     1       6.640   4.599  15.345  0.00  0.00    +0.000 S 
ENDROOT
BRANCH   4   8
ATOM      8  C   UNL     1       3.108   3.684  18.871  0.00  0.00    +0.000 A 
ATOM      9  C   UNL     1       2.373   2.672  18.238  0.00  0.00    +0.000 A 
ATOM     10  C   UNL     1       1.074   2.371  18.656  0.00  0.00    +0.000 A 
ATOM     11  C   UNL     1       0.498   3.064  19.720  0.00  0.00    +0.000 A 
ATOM     12  C   UNL     1       1.229   4.043  20.384  0.00  0.00    +0.000 A 
ATOM     13  C   UNL     1       2.529   4.344  19.966  0.00  0.00    +0.000 A 
ENDBRANCH   4   8
BRANCH   1  14
ATOM     14  N   UNL     1       8.178   5.652  19.773  0.00  0.00    +0.000 N 
ATOM     15  H   UNL     1       7.467   5.980  20.423  0.00  0.00    +0.000 HD
ATOM     16  H   UNL     1       9.006   6.244  19.773  0.00  0.00    +0.000 HD
ENDBRANCH   1  14
TORSDOF 2
ENDMDL
MODEL 3
REMARK VINA RESULT:      -6.6      2.200      2.449
REMARK  Name = 
REMARK  2 active torsions:
REMARK  status: ('A' for Active; 'I' for Inactive)
REMARK    1  A    between atoms: N_1  and  C_2
REMARK    2  A    between atoms: C_5  and  C_6
REMARK                            x       y       z     vdW  Elec       q    Type
REMARK                         _______ _______ _______ _____ _____    ______ ____
ROOT
ATOM      1  C   UNL     1       6.511   4.516  15.117  0.00  0.00    +0.000 C 
ATOM      2  C   UNL     1       5.763   4.786  16.194  0.00  0.00    +0.000 C 
ATOM      3  C   UNL     1       4.560   4.132  16.574  0.00  0.00    +0.000 C 
ATOM      4  C   UNL     1       4.159   4.730  17.693  0.00  0.00    +0.000 C 
ATOM      5  O   UNL     1       4.999   5.763  18.154  0.00  0.00    +0.000 OA
ATOM      6  C   UNL     1       6.025   5.815  17.231  0.00  0.00    +0.000 C 
ATOM      7  S   UNL     1       7.241   6.919  17.453  0.00  0.00    +0.000 S 
ENDROOT
BRANCH   4   8
ATOM      8  C   UNL     1       2.984   4.361  18.491  0.00  0.00    +0.000 A 
ATOM      9  C   UNL     1       2.694   5.019  19.695  0.00  0.00    +0.000 A 
ATOM     10  C   UNL     1       1.625   4.601  20.493  0.00  0.00    +0.000 A 
ATOM     11  C   UNL     1       0.824   3.532  20.093  0.00  0.00    +0.000 A 
ATOM     12  C   UNL     1       1.073   2.895  18.882  0.00  0.00    +0.000 A 
ATOM     13  C   UNL     1       2.142   3.314  18.084  0.00  0.00    +0.000 A 
ENDBRANCH   4   8
BRANCH   1  14
ATOM     14  N   UNL     1       6.285   3.566  14.148  0.00  0.00    +0.000 N 
ATOM     15  H   UNL     1       5.489   3.767  13.546  0.00  0.00    +0.000 HD
ATOM     16  H   UNL     1       6.285   2.604  14.481  0.00  0.00    +0.000 HD
ENDBRANCH   1  14
TORSDOF 2
ENDMDL
MODEL 4
REMARK VINA RESULT:      -6.6      2.183      2.754
REMARK  Name = 
REMARK  2 active torsions:
REMARK  status: ('A' for Active; 'I' for Inactive)
REMARK    1  A    between atoms: N_1  and  C_2
REMARK    2  A    between atoms: C_5  and  C_6
REMARK                            x       y       z     vdW  Elec       q    Type
REMARK                         _______ _______ _______ _____ _____    ______ ____
ROOT
ATOM      1  C   UNL     1       6.509   4.525  15.106  0.00  0.00    +0.000 C 
ATOM      2  C   UNL     1       5.785   4.765  16.206  0.00  0.00    +0.000 C 
ATOM      3  C   UNL     1       4.613   4.073  16.615  0.00  0.00    +0.000 C 
ATOM      4  C   UNL     1       4.228   4.649  17.751  0.00  0.00    +0.000 C 
ATOM      5  O   UNL     1       5.051   5.702  18.197  0.00  0.00    +0.000 OA
ATOM      6  C   UNL     1       6.048   5.792  17.244  0.00  0.00    +0.000 C 
ATOM      7  S   UNL     1       7.238   6.929  17.442  0.00  0.00    +0.000 S 
ENDROOT
BRANCH   4   8
ATOM      8  C   UNL     1       3.088   4.240  18.580  0.00  0.00    +0.000 A 
ATOM      9  C   UNL     1       2.194   3.253  18.142  0.00  0.00    +0.000 A 
ATOM     10  C   UNL     1       1.062   2.935  18.898  0.00  0.00    +0.000 A 
ATOM     11  C   UNL     1       0.817   3.586  20.106  0.00  0.00    +0.000 A 
ATOM     12  C   UNL     1       1.715   4.539  20.574  0.00  0.00    +0.000 A 
ATOM     13  C   UNL     1       2.848   4.856  19.818  0.00  0.00    +0.000 A 
ENDBRANCH   4   8
BRANCH   1  14
ATOM     14  N   UNL     1       6.282   3.576  14.135  0.00  0.00    +0.000 N 
ATOM     15  H   UNL     1       7.023   3.506  13.441  0.00  0.00    +0.000 HD
ATOM     16  H   UNL     1       5.357   3.608  13.711  0.00  0.00    +0.000 HD
ENDBRANCH   1  14
TORSDOF 2
ENDMDL
MODEL 5
REMARK VINA RESULT:      -6.4      1.020      1.304
REMARK  Name = 
REMARK  2 active torsions:
REMARK  status: ('A' for Active; 'I' for Inactive)
REMARK    1  A    between atoms: N_1  and  C_2
REMARK    2  A    between atoms: C_5  and  C_6
REMARK                            x       y       z     vdW  Elec       q    Type
REMARK                         _______ _______ _______ _____ _____    ______ ____
ROOT
ATOM      1  C   UNL     1       7.461   5.829  18.076  0.00  0.00    +0.000 C 
ATOM      2  C   UNL     1       6.279   5.202  18.065  0.00  0.00    +0.000 C 
ATOM      3  C   UNL     1       5.487   4.870  19.197  0.00  0.00    +0.000 C 
ATOM      4  C   UNL     1       4.411   4.251  18.719  0.00  0.00    +0.000 C 
ATOM      5  O   UNL     1       4.365   4.125  17.316  0.00  0.00    +0.000 OA
ATOM      6  C   UNL     1       5.530   4.725  16.876  0.00  0.00    +0.000 C 
ATOM      7  S   UNL     1       5.825   4.790  15.246  0.00  0.00    +0.000 S 
ENDROOT
BRANCH   4   8
ATOM      8  C   UNL     1       3.274   3.766  19.511  0.00  0.00    +0.000 A 
ATOM      9  C   UNL     1       1.961   4.132  19.187  0.00  0.00    +0.000 A 
ATOM     10  C   UNL     1       0.893   3.739  20.000  0.00  0.00    +0.000 A 
ATOM     11  C   UNL     1       1.122   2.964  21.137  0.00  0.00    +0.000 A 
ATOM     12  C   UNL     1       2.415   2.560  21.450  0.00  0.00    +0.000 A 
ATOM     13  C   UNL     1       3.482   2.952  20.636  0.00  0.00    +0.000 A 
ENDBRANCH   4   8
BRANCH   1  14
ATOM     14  N   UNL     1       8.169   6.280  19.167  0.00  0.00    +0.000 N 
ATOM     15  H   UNL     1       7.586   6.578  19.946  0.00  0.00    +0.000 HD
ATOM     16  H   UNL     1       8.904   6.951  18.955  0.00  0.00    +0.000 HD
ENDBRANCH   1  14
TORSDOF 2
ENDMDL
MODEL 6
REMARK VINA RESULT:      -6.3      1.424      1.441
REMARK  Name = 
REMARK  2 active torsions:
REMARK  status: ('A' for Active; 'I' for Inactive)
REMARK    1  A    between atoms: N_1  and  C_2
REMARK    2  A    between atoms: C_5  and  C_6
REMARK                            x       y       z     vdW  Elec       q    Type
REMARK                         _______ _______ _______ _____ _____    ______ ____
ROOT
ATOM      1  C   UNL     1       7.060   6.533  16.602  0.00  0.00    +0.000 C 
ATOM      2  C   UNL     1       6.000   5.744  16.809  0.00  0.00    +0.000 C 
ATOM      3  C   UNL     1       5.088   5.819  17.897  0.00  0.00    +0.000 C 
ATOM      4  C   UNL     1       4.207   4.842  17.702  0.00  0.00    +0.000 C 
ATOM      5  O   UNL     1       4.412   4.074  16.538  0.00  0.00    +0.000 OA
ATOM      6  C   UNL     1       5.533   4.628  15.950  0.00  0.00    +0.000 C 
ATOM      7  S   UNL     1       6.080   3.989  14.522  0.00  0.00    +0.000 S 
ENDROOT
BRANCH   4   8
ATOM      8  C   UNL     1       3.038   4.557  18.542  0.00  0.00    +0.000 A 
ATOM      9  C   UNL     1       2.790   5.294  19.708  0.00  0.00    +0.000 A 
ATOM     10  C   UNL     1       1.726   4.956  20.549  0.00  0.00    +0.000 A 
ATOM     11  C   UNL     1       0.888   3.889  20.230  0.00  0.00    +0.000 A 
ATOM     12  C   UNL     1       1.096   3.173  19.056  0.00  0.00    +0.000 A 
ATOM     13  C   UNL     1       2.160   3.512  18.215  0.00  0.00    +0.000 A 
ENDBRANCH   4   8
BRANCH   1  14
ATOM     14  N   UNL     1       7.505   7.574  17.386  0.00  0.00    +0.000 N 
ATOM     15  H   UNL     1       8.334   7.355  17.935  0.00  0.00    +0.000 HD
ATOM     16  H   UNL     1       6.785   8.034  17.939  0.00  0.00    +0.000 HD
ENDBRANCH   1  14
TORSDOF 2
ENDMDL
MODEL 7
REMARK VINA RESULT:      -6.3      2.278      2.582
REMARK  Name = 
REMARK  2 active torsions:
REMARK  status: ('A' for Active; 'I' for Inactive)
REMARK    1  A    between atoms: N_1  and  C_2
REMARK    2  A    between atoms: C_5  and  C_6
REMARK                            x       y       z     vdW  Elec       q    Type
REMARK                         _______ _______ _______ _____ _____    ______ ____
ROOT
ATOM      1  C   UNL     1       6.445   4.444  15.341  0.00  0.00    +0.000 C 
ATOM      2  C   UNL     1       5.816   4.670  16.500  0.00  0.00    +0.000 C 
ATOM      3  C   UNL     1       4.722   3.931  17.027  0.00  0.00    +0.000 C 
ATOM      4  C   UNL     1       4.416   4.510  18.185  0.00  0.00    +0.000 C 
ATOM      5  O   UNL     1       5.225   5.610  18.538  0.00  0.00    +0.000 OA
ATOM      6  C   UNL     1       6.123   5.728  17.494  0.00  0.00    +0.000 C 
ATOM      7  S   UNL     1       7.269   6.923  17.563  0.00  0.00    +0.000 S 
ENDROOT
BRANCH   4   8
ATOM      8  C   UNL     1       3.379   4.063  19.123  0.00  0.00    +0.000 A 
ATOM      9  C   UNL     1       2.117   4.672  19.147  0.00  0.00    +0.000 A 
ATOM     10  C   UNL     1       1.167   4.300  20.103  0.00  0.00    +0.000 A 
ATOM     11  C   UNL     1       1.461   3.308  21.038  0.00  0.00    +0.000 A 
ATOM     12  C   UNL     1       2.694   2.667  21.003  0.00  0.00    +0.000 A 
ATOM     13  C   UNL     1       3.643   3.038  20.045  0.00  0.00    +0.000 A 
ENDBRANCH   4   8
BRANCH   1  14
ATOM     14  N   UNL     1       6.175   3.467  14.409  0.00  0.00    +0.000 N 
ATOM     15  H   UNL     1       5.599   3.782  13.632  0.00  0.00    +0.000 HD
ATOM     16  H   UNL     1       5.854   2.582  14.795  0.00  0.00    +0.000 HD
ENDBRANCH   1  14
TORSDOF 2
ENDMDL
MODEL 8
REMARK VINA RESULT:      -6.2      1.401      1.908
REMARK  Name = 
REMARK  2 active torsions:
REMARK  status: ('A' for Active; 'I' for Inactive)
REMARK    1  A    between atoms: N_1  and  C_2
REMARK    2  A    between atoms: C_5  and  C_6
REMARK                            x       y       z     vdW  Elec       q    Type
REMARK                         _______ _______ _______ _____ _____    ______ ____
ROOT
ATOM      1  C   UNL     1       7.069   6.588  16.618  0.00  0.00    +0.000 C 
ATOM      2  C   UNL     1       6.046   5.757  16.850  0.00  0.00    +0.000 C 
ATOM      3  C   UNL     1       5.162   5.794  17.963  0.00  0.00    +0.000 C 
ATOM      4  C   UNL     1       4.315   4.784  17.788  0.00  0.00    +0.000 C 
ATOM      5  O   UNL     1       4.519   4.027  16.616  0.00  0.00    +0.000 OA
ATOM      6  C   UNL     1       5.601   4.625  16.001  0.00  0.00    +0.000 C 
ATOM      7  S   UNL     1       6.134   4.011  14.556  0.00  0.00    +0.000 S 
ENDROOT
BRANCH   4   8
ATOM      8  C   UNL     1       3.181   4.451  18.659  0.00  0.00    +0.000 A 
ATOM      9  C   UNL     1       2.208   3.527  18.255  0.00  0.00    +0.000 A 
ATOM     10  C   UNL     1       1.085   3.284  19.052  0.00  0.00    +0.000 A 
ATOM     11  C   UNL     1       0.928   3.949  20.268  0.00  0.00    +0.000 A 
ATOM     12  C   UNL     1       1.905   4.838  20.702  0.00  0.00    +0.000 A 
ATOM     13  C   UNL     1       3.028   5.080  19.905  0.00  0.00    +0.000 A 
ENDBRANCH   4   8
BRANCH   1  14
ATOM     14  N   UNL     1       7.494   7.643  17.392  0.00  0.00    +0.000 N 
ATOM     15  H   UNL     1       7.228   8.557  17.032  0.00  0.00    +0.000 HD
ATOM     16  H   UNL     1       8.473   7.607  17.669  0.00  0.00    +0.000 HD
ENDBRANCH   1  14
TORSDOF 2
ENDMDL
MODEL 9
REMARK VINA RESULT:      -6.2      2.303      2.642
REMARK  Name = 
REMARK  2 active torsions:
REMARK  status: ('A' for Active; 'I' for Inactive)
REMARK    1  A    between atoms: N_1  and  C_2
REMARK    2  A    between atoms: C_5  and  C_6
REMARK                            x       y       z     vdW  Elec       q    Type
REMARK                         _______ _______ _______ _____ _____    ______ ____
ROOT
ATOM      1  C   UNL     1       6.495   4.480  15.489  0.00  0.00    +0.000 C 
ATOM      2  C   UNL     1       5.886   4.744  16.651  0.00  0.00    +0.000 C 
ATOM      3  C   UNL     1       4.797   4.027  17.216  0.00  0.00    +0.000 C 
ATOM      4  C   UNL     1       4.512   4.642  18.361  0.00  0.00    +0.000 C 
ATOM      5  O   UNL     1       5.332   5.747  18.668  0.00  0.00    +0.000 OA
ATOM      6  C   UNL     1       6.214   5.829  17.608  0.00  0.00    +0.000 C 
ATOM      7  S   UNL     1       7.368   7.020  17.623  0.00  0.00    +0.000 S 
ENDROOT
BRANCH   4   8
ATOM      8  C   UNL     1       3.488   4.229  19.328  0.00  0.00    +0.000 A 
ATOM      9  C   UNL     1       3.592   3.012  20.014  0.00  0.00    +0.000 A 
ATOM     10  C   UNL     1       2.568   2.586  20.865  0.00  0.00    +0.000 A 
ATOM     11  C   UNL     1       1.434   3.377  21.052  0.00  0.00    +0.000 A 
ATOM     12  C   UNL     1       1.334   4.606  20.409  0.00  0.00    +0.000 A 
ATOM     13  C   UNL     1       2.359   5.031  19.560  0.00  0.00    +0.000 A 
ENDBRANCH   4   8
BRANCH   1  14
ATOM     14  N   UNL     1       6.206   3.478  14.591  0.00  0.00    +0.000 N 
ATOM     15  H   UNL     1       5.453   2.860  14.886  0.00  0.00    +0.000 HD
ATOM     16  H   UNL     1       7.014   2.964  14.245  0.00  0.00    +0.000 HD
ENDBRANCH   1  14
TORSDOF 2
ENDMDL
