MODEL 1
REMARK VINA RESULT:     -10.5      0.000      0.000
REMARK  Name = 
REMARK  3 active torsions:
REMARK  status: ('A' for Active; 'I' for Inactive)
REMARK    1  A    between atoms: C_2  and  C_3
REMARK    2  A    between atoms: C_2  and  C_19
REMARK    3  A    between atoms: C_7  and  C_8
REMARK                            x       y       z     vdW  Elec       q    Type
REMARK                         _______ _______ _______ _____ _____    ______ ____
ROOT
ATOM      1  O   UNL     1       1.753  11.538  18.206  0.00  0.00    +0.000 OA
ATOM      2  C   UNL     1       0.877  10.782  18.620  0.00  0.00    +0.000 C 
ENDROOT
BRANCH   2   3
ATOM      3  C   UNL     1      -0.532  11.025  18.419  0.00  0.00    +0.000 A 
ATOM      4  N   UNL     1      -1.310  11.595  19.318  0.00  0.00    +0.000 NA
ATOM      5  C   UNL     1      -2.562  11.549  18.787  0.00  0.00    +0.000 A 
ATOM      6  N   UNL     1      -3.653  12.054  19.375  0.00  0.00    +0.000 NA
ATOM      7  C   UNL     1      -4.813  11.921  18.708  0.00  0.00    +0.000 A 
ATOM      8  N   UNL     1      -5.888  12.635  19.196  0.00  0.00    +0.000 N 
ATOM      9  C   UNL     1      -7.284  12.254  19.101  0.00  0.00    +0.000 C 
ATOM     10  C   UNL     1      -7.760  11.480  20.327  0.00  0.00    +0.000 C 
ATOM     11  C   UNL     1      -7.505  12.097  21.708  0.00  0.00    +0.000 C 
ATOM     12  N   UNL     1      -7.244  13.537  21.767  0.00  0.00    +0.000 NA
ATOM     13  C   UNL     1      -5.841  13.825  21.395  0.00  0.00    +0.000 C 
ATOM     14  C   UNL     1      -5.593  13.897  19.884  0.00  0.00    +0.000 C 
ATOM     15  C   UNL     1      -4.897  11.187  17.515  0.00  0.00    +0.000 A 
ATOM     16  C   UNL     1      -3.756  10.662  16.889  0.00  0.00    +0.000 A 
ATOM     17  C   UNL     1      -2.569  10.907  17.561  0.00  0.00    +0.000 A 
ATOM     18  N   UNL     1      -1.247  10.670  17.299  0.00  0.00    +0.000 N 
ATOM     19  H   UNL     1      -7.361  13.834  22.736  0.00  0.00    +0.000 HD
ATOM     20  H   UNL     1      -0.852  10.250  16.468  0.00  0.00    +0.000 HD
ENDBRANCH   2   3
BRANCH   2  21
ATOM     21  C   UNL     1       1.270   9.513  19.298  0.00  0.00    +0.000 A 
ATOM     22  C   UNL     1       0.900   9.260  20.619  0.00  0.00    +0.000 A 
ATOM     23  C   UNL     1       1.273   8.057  21.175  0.00  0.00    +0.000 A 
ATOM     24  N   UNL     1       1.955   7.109  20.503  0.00  0.00    +0.000 NA
ATOM     25  C   UNL     1       2.268   7.330  19.202  0.00  0.00    +0.000 A 
ATOM     26  C   UNL     1       1.952   8.535  18.575  0.00  0.00    +0.000 A 
BRANCH  25  27
ATOM     27  C   UNL     1       2.913   6.218  18.475  0.00  0.00    +0.000 A 
ATOM     28  C   UNL     1       3.978   6.496  17.609  0.00  0.00    +0.000 A 
ATOM     29  N   UNL     1       4.593   5.600  16.808  0.00  0.00    +0.000 NA
ATOM     30  C   UNL     1       4.120   4.340  16.858  0.00  0.00    +0.000 A 
ATOM     31  C   UNL     1       3.080   3.913  17.679  0.00  0.00    +0.000 A 
ATOM     32  C   UNL     1       2.640   2.575  17.645  0.00  0.00    +0.000 A 
ATOM     33  C   UNL     1       1.602   2.143  18.468  0.00  0.00    +0.000 A 
ATOM     34  C   UNL     1       1.018   3.034  19.353  0.00  0.00    +0.000 A 
ATOM     35  C   UNL     1       1.440   4.369  19.381  0.00  0.00    +0.000 A 
ATOM     36  C   UNL     1       2.470   4.858  18.537  0.00  0.00    +0.000 A 
ENDBRANCH  25  27
ENDBRANCH   2  21
TORSDOF 3
ENDMDL
MODEL 2
REMARK VINA RESULT:     -10.5      0.997      2.115
REMARK  Name = 
REMARK  3 active torsions:
REMARK  status: ('A' for Active; 'I' for Inactive)
REMARK    1  A    between atoms: C_2  and  C_3
REMARK    2  A    between atoms: C_2  and  C_19
REMARK    3  A    between atoms: C_7  and  C_8
REMARK                            x       y       z     vdW  Elec       q    Type
REMARK                         _______ _______ _______ _____ _____    ______ ____
ROOT
ATOM      1  O   UNL     1       1.966  11.204  18.196  0.00  0.00    +0.000 OA
ATOM      2  C   UNL     1       1.068  10.445  18.555  0.00  0.00    +0.000 C 
ENDROOT
BRANCH   2   3
ATOM      3  C   UNL     1      -0.332  10.736  18.357  0.00  0.00    +0.000 A 
ATOM      4  N   UNL     1      -1.089  11.329  19.259  0.00  0.00    +0.000 NA
ATOM      5  C   UNL     1      -2.343  11.327  18.730  0.00  0.00    +0.000 A 
ATOM      6  N   UNL     1      -3.416  11.867  19.322  0.00  0.00    +0.000 NA
ATOM      7  C   UNL     1      -4.581  11.774  18.657  0.00  0.00    +0.000 A 
ATOM      8  N   UNL     1      -5.630  12.522  19.148  0.00  0.00    +0.000 N 
ATOM      9  C   UNL     1      -7.039  12.188  19.056  0.00  0.00    +0.000 C 
ATOM     10  C   UNL     1      -7.537  11.428  20.282  0.00  0.00    +0.000 C 
ATOM     11  C   UNL     1      -7.259  12.034  21.663  0.00  0.00    +0.000 C 
ATOM     12  N   UNL     1      -6.950  13.465  21.723  0.00  0.00    +0.000 NA
ATOM     13  C   UNL     1      -5.539  13.706  21.349  0.00  0.00    +0.000 C 
ATOM     14  C   UNL     1      -5.291  13.772  19.837  0.00  0.00    +0.000 C 
ATOM     15  C   UNL     1      -4.691  11.044  17.463  0.00  0.00    +0.000 A 
ATOM     16  C   UNL     1      -3.570  10.483  16.834  0.00  0.00    +0.000 A 
ATOM     17  C   UNL     1      -2.374  10.687  17.504  0.00  0.00    +0.000 A 
ATOM     18  N   UNL     1      -1.061  10.406  17.238  0.00  0.00    +0.000 N 
ATOM     19  H   UNL     1      -7.055  13.763  22.694  0.00  0.00    +0.000 HD
ATOM     20  H   UNL     1      -0.682   9.975  16.406  0.00  0.00    +0.000 HD
ENDBRANCH   2   3
BRANCH   2  21
ATOM     21  C   UNL     1       1.423   9.127  19.156  0.00  0.00    +0.000 A 
ATOM     22  C   UNL     1       1.159   8.855  20.498  0.00  0.00    +0.000 A 
ATOM     23  C   UNL     1       1.488   7.609  20.981  0.00  0.00    +0.000 A 
ATOM     24  N   UNL     1       2.028   6.637  20.220  0.00  0.00    +0.000 NA
ATOM     25  C   UNL     1       2.236   6.881  18.902  0.00  0.00    +0.000 A 
ATOM     26  C   UNL     1       1.957   8.128  18.343  0.00  0.00    +0.000 A 
BRANCH  25  27
ATOM     27  C   UNL     1       2.722   5.750  18.086  0.00  0.00    +0.000 A 
ATOM     28  C   UNL     1       1.905   4.624  17.927  0.00  0.00    +0.000 A 
ATOM     29  N   UNL     1       2.256   3.482  17.298  0.00  0.00    +0.000 NA
ATOM     30  C   UNL     1       3.504   3.444  16.795  0.00  0.00    +0.000 A 
ATOM     31  C   UNL     1       4.422   4.489  16.862  0.00  0.00    +0.000 A 
ATOM     32  C   UNL     1       5.715   4.347  16.324  0.00  0.00    +0.000 A 
ATOM     33  C   UNL     1       6.634   5.392  16.386  0.00  0.00    +0.000 A 
ATOM     34  C   UNL     1       6.259   6.597  16.957  0.00  0.00    +0.000 A 
ATOM     35  C   UNL     1       4.980   6.740  17.508  0.00  0.00    +0.000 A 
ATOM     36  C   UNL     1       4.024   5.691  17.495  0.00  0.00    +0.000 A 
ENDBRANCH  25  27
ENDBRANCH   2  21
TORSDOF 3
ENDMDL
MODEL 3
REMARK VINA RESULT:     -10.2      2.378     10.379
REMARK  Name = 
REMARK  3 active torsions:
REMARK  status: ('A' for Active; 'I' for Inactive)
REMARK    1  A    between atoms: C_2  and  C_3
REMARK    2  A    between atoms: C_2  and  C_19
REMARK    3  A    between atoms: C_7  and  C_8
REMARK                            x       y       z     vdW  Elec       q    Type
REMARK                         _______ _______ _______ _____ _____    ______ ____
ROOT
ATOM      1  O   UNL     1       0.004   9.840  23.767  0.00  0.00    +0.000 OA
ATOM      2  C   UNL     1      -0.057  10.311  22.633  0.00  0.00    +0.000 C 
ENDROOT
BRANCH   2   3
ATOM      3  C   UNL     1       0.505   9.653  21.477  0.00  0.00    +0.000 A 
ATOM      4  N   UNL     1       1.202   8.535  21.540  0.00  0.00    +0.000 NA
ATOM      5  C   UNL     1       1.624   8.307  20.267  0.00  0.00    +0.000 A 
ATOM      6  N   UNL     1       2.346   7.245  19.887  0.00  0.00    +0.000 NA
ATOM      7  C   UNL     1       2.680   7.176  18.587  0.00  0.00    +0.000 A 
ATOM      8  N   UNL     1       3.218   5.984  18.152  0.00  0.00    +0.000 N 
ATOM      9  C   UNL     1       4.173   5.816  17.073  0.00  0.00    +0.000 C 
ATOM     10  C   UNL     1       5.616   5.820  17.568  0.00  0.00    +0.000 C 
ATOM     11  C   UNL     1       5.984   4.865  18.711  0.00  0.00    +0.000 C 
ATOM     12  N   UNL     1       5.096   3.726  18.953  0.00  0.00    +0.000 NA
ATOM     13  C   UNL     1       3.901   4.154  19.714  0.00  0.00    +0.000 C 
ATOM     14  C   UNL     1       2.791   4.766  18.851  0.00  0.00    +0.000 C 
ATOM     15  C   UNL     1       2.390   8.222  17.696  0.00  0.00    +0.000 A 
ATOM     16  C   UNL     1       1.628   9.334  18.085  0.00  0.00    +0.000 A 
ATOM     17  C   UNL     1       1.222   9.316  19.410  0.00  0.00    +0.000 A 
ATOM     18  N   UNL     1       0.422  10.114  20.184  0.00  0.00    +0.000 N 
ATOM     19  H   UNL     1       5.599   3.061  19.540  0.00  0.00    +0.000 HD
ATOM     20  H   UNL     1      -0.091  10.935  19.893  0.00  0.00    +0.000 HD
ENDBRANCH   2   3
BRANCH   2  21
ATOM     21  C   UNL     1      -0.803  11.583  22.410  0.00  0.00    +0.000 A 
ATOM     22  C   UNL     1      -0.158  12.720  21.926  0.00  0.00    +0.000 A 
ATOM     23  C   UNL     1      -0.912  13.852  21.718  0.00  0.00    +0.000 A 
ATOM     24  N   UNL     1      -2.241  13.909  21.936  0.00  0.00    +0.000 NA
ATOM     25  C   UNL     1      -2.880  12.789  22.355  0.00  0.00    +0.000 A 
ATOM     26  C   UNL     1      -2.182  11.610  22.617  0.00  0.00    +0.000 A 
BRANCH  25  27
ATOM     27  C   UNL     1      -4.351  12.867  22.470  0.00  0.00    +0.000 A 
ATOM     28  C   UNL     1      -4.923  13.109  23.725  0.00  0.00    +0.000 A 
ATOM     29  N   UNL     1      -6.246  13.106  23.998  0.00  0.00    +0.000 NA
ATOM     30  C   UNL     1      -7.063  12.839  22.962  0.00  0.00    +0.000 A 
ATOM     31  C   UNL     1      -6.640  12.594  21.658  0.00  0.00    +0.000 A 
ATOM     32  C   UNL     1      -7.571  12.302  20.642  0.00  0.00    +0.000 A 
ATOM     33  C   UNL     1      -7.151  12.060  19.336  0.00  0.00    +0.000 A 
ATOM     34  C   UNL     1      -5.804  12.140  19.027  0.00  0.00    +0.000 A 
ATOM     35  C   UNL     1      -4.871  12.415  20.034  0.00  0.00    +0.000 A 
ATOM     36  C   UNL     1      -5.252  12.635  21.384  0.00  0.00    +0.000 A 
ENDBRANCH  25  27
ENDBRANCH   2  21
TORSDOF 3
ENDMDL
MODEL 4
REMARK VINA RESULT:     -10.2      1.462      2.443
REMARK  Name = 
REMARK  3 active torsions:
REMARK  status: ('A' for Active; 'I' for Inactive)
REMARK    1  A    between atoms: C_2  and  C_3
REMARK    2  A    between atoms: C_2  and  C_19
REMARK    3  A    between atoms: C_7  and  C_8
REMARK                            x       y       z     vdW  Elec       q    Type
REMARK                         _______ _______ _______ _____ _____    ______ ____
ROOT
ATOM      1  O   UNL     1       2.207  10.865  17.856  0.00  0.00    +0.000 OA
ATOM      2  C   UNL     1       1.315  10.273  18.460  0.00  0.00    +0.000 C 
ENDROOT
BRANCH   2   3
ATOM      3  C   UNL     1      -0.034  10.778  18.561  0.00  0.00    +0.000 A 
ATOM      4  N   UNL     1      -0.468  11.505  19.572  0.00  0.00    +0.000 NA
ATOM      5  C   UNL     1      -1.795  11.689  19.335  0.00  0.00    +0.000 A 
ATOM      6  N   UNL     1      -2.612  12.406  20.116  0.00  0.00    +0.000 NA
ATOM      7  C   UNL     1      -3.898  12.484  19.733  0.00  0.00    +0.000 A 
ATOM      8  N   UNL     1      -4.684  13.400  20.399  0.00  0.00    +0.000 N 
ATOM      9  C   UNL     1      -6.110  13.292  20.642  0.00  0.00    +0.000 C 
ATOM     10  C   UNL     1      -6.424  12.650  21.990  0.00  0.00    +0.000 C 
ATOM     11  C   UNL     1      -5.751  13.237  23.237  0.00  0.00    +0.000 C 
ATOM     12  N   UNL     1      -5.226  14.601  23.143  0.00  0.00    +0.000 NA
ATOM     13  C   UNL     1      -3.918  14.606  22.452  0.00  0.00    +0.000 C 
ATOM     14  C   UNL     1      -4.014  14.597  20.922  0.00  0.00    +0.000 C 
ATOM     15  C   UNL     1      -4.386  11.753  18.638  0.00  0.00    +0.000 A 
ATOM     16  C   UNL     1      -3.534  11.006  17.811  0.00  0.00    +0.000 A 
ATOM     17  C   UNL     1      -2.200  11.033  18.185  0.00  0.00    +0.000 A 
ATOM     18  N   UNL     1      -1.039  10.542  17.652  0.00  0.00    +0.000 N 
ATOM     19  H   UNL     1      -5.061  14.935  24.093  0.00  0.00    +0.000 HD
ATOM     20  H   UNL     1      -0.929  10.036  16.784  0.00  0.00    +0.000 HD
ENDBRANCH   2   3
BRANCH   2  21
ATOM     21  C   UNL     1       1.601   8.937  19.058  0.00  0.00    +0.000 A 
ATOM     22  C   UNL     1       1.270   8.658  20.384  0.00  0.00    +0.000 A 
ATOM     23  C   UNL     1       1.537   7.396  20.865  0.00  0.00    +0.000 A 
ATOM     24  N   UNL     1       2.078   6.416  20.115  0.00  0.00    +0.000 NA
ATOM     25  C   UNL     1       2.350   6.668  18.810  0.00  0.00    +0.000 A 
ATOM     26  C   UNL     1       2.136   7.930  18.256  0.00  0.00    +0.000 A 
BRANCH  25  27
ATOM     27  C   UNL     1       2.833   5.531  18.001  0.00  0.00    +0.000 A 
ATOM     28  C   UNL     1       2.015   4.404  17.853  0.00  0.00    +0.000 A 
ATOM     29  N   UNL     1       2.364   3.258  17.230  0.00  0.00    +0.000 NA
ATOM     30  C   UNL     1       3.611   3.215  16.724  0.00  0.00    +0.000 A 
ATOM     31  C   UNL     1       4.529   4.261  16.781  0.00  0.00    +0.000 A 
ATOM     32  C   UNL     1       5.820   4.115  16.240  0.00  0.00    +0.000 A 
ATOM     33  C   UNL     1       6.740   5.160  16.292  0.00  0.00    +0.000 A 
ATOM     34  C   UNL     1       6.366   6.369  16.856  0.00  0.00    +0.000 A 
ATOM     35  C   UNL     1       5.089   6.517  17.409  0.00  0.00    +0.000 A 
ATOM     36  C   UNL     1       4.133   5.467  17.407  0.00  0.00    +0.000 A 
ENDBRANCH  25  27
ENDBRANCH   2  21
TORSDOF 3
ENDMDL
MODEL 5
REMARK VINA RESULT:      -9.7      2.432     10.059
REMARK  Name = 
REMARK  3 active torsions:
REMARK  status: ('A' for Active; 'I' for Inactive)
REMARK    1  A    between atoms: C_2  and  C_3
REMARK    2  A    between atoms: C_2  and  C_19
REMARK    3  A    between atoms: C_7  and  C_8
REMARK                            x       y       z     vdW  Elec       q    Type
REMARK                         _______ _______ _______ _____ _____    ______ ____
ROOT
ATOM      1  O   UNL     1       0.255   8.981  22.621  0.00  0.00    +0.000 OA
ATOM      2  C   UNL     1       0.623   8.972  21.449  0.00  0.00    +0.000 C 
ENDROOT
BRANCH   2   3
ATOM      3  C   UNL     1       1.334   7.862  20.857  0.00  0.00    +0.000 A 
ATOM      4  N   UNL     1       2.381   8.003  20.068  0.00  0.00    +0.000 NA
ATOM      5  C   UNL     1       2.686   6.744  19.653  0.00  0.00    +0.000 A 
ATOM      6  N   UNL     1       3.715   6.439  18.853  0.00  0.00    +0.000 NA
ATOM      7  C   UNL     1       3.872   5.140  18.540  0.00  0.00    +0.000 A 
ATOM      8  N   UNL     1       5.050   4.796  17.914  0.00  0.00    +0.000 N 
ATOM      9  C   UNL     1       5.235   3.711  16.969  0.00  0.00    +0.000 C 
ATOM     10  C   UNL     1       5.069   4.165  15.522  0.00  0.00    +0.000 C 
ATOM     11  C   UNL     1       5.886   5.376  15.053  0.00  0.00    +0.000 C 
ATOM     12  N   UNL     1       7.068   5.739  15.838  0.00  0.00    +0.000 NA
ATOM     13  C   UNL     1       6.673   6.492  17.049  0.00  0.00    +0.000 C 
ATOM     14  C   UNL     1       6.232   5.610  18.223  0.00  0.00    +0.000 C 
ATOM     15  C   UNL     1       2.936   4.171  18.934  0.00  0.00    +0.000 A 
ATOM     16  C   UNL     1       1.860   4.482  19.778  0.00  0.00    +0.000 A 
ATOM     17  C   UNL     1       1.793   5.814  20.156  0.00  0.00    +0.000 A 
ATOM     18  N   UNL     1       0.998   6.537  21.003  0.00  0.00    +0.000 N 
ATOM     19  H   UNL     1       7.636   6.368  15.270  0.00  0.00    +0.000 HD
ATOM     20  H   UNL     1       0.251   6.189  21.589  0.00  0.00    +0.000 HD
ENDBRANCH   2   3
BRANCH   2  21
ATOM     21  C   UNL     1       0.266  10.116  20.563  0.00  0.00    +0.000 A 
ATOM     22  C   UNL     1       1.070  11.254  20.498  0.00  0.00    +0.000 A 
ATOM     23  C   UNL     1       0.696  12.262  19.639  0.00  0.00    +0.000 A 
ATOM     24  N   UNL     1      -0.390  12.195  18.844  0.00  0.00    +0.000 NA
ATOM     25  C   UNL     1      -1.143  11.067  18.865  0.00  0.00    +0.000 A 
ATOM     26  C   UNL     1      -0.848  10.013  19.729  0.00  0.00    +0.000 A 
BRANCH  25  27
ATOM     27  C   UNL     1      -2.255  10.993  17.896  0.00  0.00    +0.000 A 
ATOM     28  C   UNL     1      -2.031  10.402  16.646  0.00  0.00    +0.000 A 
ATOM     29  N   UNL     1      -2.918  10.355  15.629  0.00  0.00    +0.000 NA
ATOM     30  C   UNL     1      -4.110  10.938  15.857  0.00  0.00    +0.000 A 
ATOM     31  C   UNL     1      -4.481  11.549  17.052  0.00  0.00    +0.000 A 
ATOM     32  C   UNL     1      -5.746  12.153  17.189  0.00  0.00    +0.000 A 
ATOM     33  C   UNL     1      -6.122  12.761  18.385  0.00  0.00    +0.000 A 
ATOM     34  C   UNL     1      -5.251  12.745  19.461  0.00  0.00    +0.000 A 
ATOM     35  C   UNL     1      -3.986  12.160  19.328  0.00  0.00    +0.000 A 
ATOM     36  C   UNL     1      -3.550  11.559  18.118  0.00  0.00    +0.000 A 
ENDBRANCH  25  27
ENDBRANCH   2  21
TORSDOF 3
ENDMDL
MODEL 6
REMARK VINA RESULT:      -9.6      2.360     10.475
REMARK  Name = 
REMARK  3 active torsions:
REMARK  status: ('A' for Active; 'I' for Inactive)
REMARK    1  A    between atoms: C_2  and  C_3
REMARK    2  A    between atoms: C_2  and  C_19
REMARK    3  A    between atoms: C_7  and  C_8
REMARK                            x       y       z     vdW  Elec       q    Type
REMARK                         _______ _______ _______ _____ _____    ______ ____
ROOT
ATOM      1  O   UNL     1      -0.272   9.862  23.553  0.00  0.00    +0.000 OA
ATOM      2  C   UNL     1      -0.256  10.337  22.419  0.00  0.00    +0.000 C 
ENDROOT
BRANCH   2   3
ATOM      3  C   UNL     1       0.369   9.675  21.298  0.00  0.00    +0.000 A 
ATOM      4  N   UNL     1       1.083   8.572  21.406  0.00  0.00    +0.000 NA
ATOM      5  C   UNL     1       1.566   8.336  20.157  0.00  0.00    +0.000 A 
ATOM      6  N   UNL     1       2.324   7.284  19.823  0.00  0.00    +0.000 NA
ATOM      7  C   UNL     1       2.716   7.205  18.540  0.00  0.00    +0.000 A 
ATOM      8  N   UNL     1       3.295   6.018  18.145  0.00  0.00    +0.000 N 
ATOM      9  C   UNL     1       4.300   5.855  17.112  0.00  0.00    +0.000 C 
ATOM     10  C   UNL     1       5.719   5.893  17.670  0.00  0.00    +0.000 C 
ATOM     11  C   UNL     1       6.054   4.960  18.840  0.00  0.00    +0.000 C 
ATOM     12  N   UNL     1       5.177   3.807  19.058  0.00  0.00    +0.000 NA
ATOM     13  C   UNL     1       3.942   4.221  19.760  0.00  0.00    +0.000 C 
ATOM     14  C   UNL     1       2.861   4.801  18.841  0.00  0.00    +0.000 C 
ATOM     15  C   UNL     1       2.447   8.234  17.623  0.00  0.00    +0.000 A 
ATOM     16  C   UNL     1       1.647   9.336  17.964  0.00  0.00    +0.000 A 
ATOM     17  C   UNL     1       1.183   9.326  19.269  0.00  0.00    +0.000 A 
ATOM     18  N   UNL     1       0.335  10.118  19.997  0.00  0.00    +0.000 N 
ATOM     19  H   UNL     1       5.667   3.159  19.675  0.00  0.00    +0.000 HD
ATOM     20  H   UNL     1      -0.180  10.925  19.672  0.00  0.00    +0.000 HD
ENDBRANCH   2   3
BRANCH   2  21
ATOM     21  C   UNL     1      -0.971  11.618  22.156  0.00  0.00    +0.000 A 
ATOM     22  C   UNL     1      -0.291  12.836  22.161  0.00  0.00    +0.000 A 
ATOM     23  C   UNL     1      -1.008  13.978  21.883  0.00  0.00    +0.000 A 
ATOM     24  N   UNL     1      -2.322  13.974  21.584  0.00  0.00    +0.000 NA
ATOM     25  C   UNL     1      -2.973  12.786  21.525  0.00  0.00    +0.000 A 
ATOM     26  C   UNL     1      -2.325  11.588  21.822  0.00  0.00    +0.000 A 
BRANCH  25  27
ATOM     27  C   UNL     1      -4.382  12.823  21.082  0.00  0.00    +0.000 A 
ATOM     28  C   UNL     1      -4.665  12.823  19.710  0.00  0.00    +0.000 A 
ATOM     29  N   UNL     1      -5.892  12.955  19.162  0.00  0.00    +0.000 NA
ATOM     30  C   UNL     1      -6.913  13.106  20.026  0.00  0.00    +0.000 A 
ATOM     31  C   UNL     1      -6.787  13.111  21.413  0.00  0.00    +0.000 A 
ATOM     32  C   UNL     1      -7.913  13.297  22.237  0.00  0.00    +0.000 A 
ATOM     33  C   UNL     1      -7.791  13.299  23.625  0.00  0.00    +0.000 A 
ATOM     34  C   UNL     1      -6.550  13.083  24.200  0.00  0.00    +0.000 A 
ATOM     35  C   UNL     1      -5.423  12.912  23.388  0.00  0.00    +0.000 A 
ATOM     36  C   UNL     1      -5.497  12.936  21.971  0.00  0.00    +0.000 A 
ENDBRANCH  25  27
ENDBRANCH   2  21
TORSDOF 3
ENDMDL
MODEL 7
REMARK VINA RESULT:      -9.5      1.576      3.060
REMARK  Name = 
REMARK  3 active torsions:
REMARK  status: ('A' for Active; 'I' for Inactive)
REMARK    1  A    between atoms: C_2  and  C_3
REMARK    2  A    between atoms: C_2  and  C_19
REMARK    3  A    between atoms: C_7  and  C_8
REMARK                            x       y       z     vdW  Elec       q    Type
REMARK                         _______ _______ _______ _____ _____    ______ ____
ROOT
ATOM      1  O   UNL     1       1.977  10.870  18.009  0.00  0.00    +0.000 OA
ATOM      2  C   UNL     1       1.244  10.370  18.859  0.00  0.00    +0.000 C 
ENDROOT
BRANCH   2   3
ATOM      3  C   UNL     1       0.050  11.019  19.347  0.00  0.00    +0.000 A 
ATOM      4  N   UNL     1      -1.116  10.960  18.734  0.00  0.00    +0.000 NA
ATOM      5  C   UNL     1      -1.938  11.771  19.454  0.00  0.00    +0.000 A 
ATOM      6  N   UNL     1      -3.234  11.970  19.181  0.00  0.00    +0.000 NA
ATOM      7  C   UNL     1      -3.900  12.806  19.997  0.00  0.00    +0.000 A 
ATOM      8  N   UNL     1      -5.272  12.833  19.862  0.00  0.00    +0.000 N 
ATOM      9  C   UNL     1      -6.136  13.970  20.117  0.00  0.00    +0.000 C 
ATOM     10  C   UNL     1      -6.402  14.792  18.859  0.00  0.00    +0.000 C 
ATOM     11  C   UNL     1      -6.906  14.052  17.613  0.00  0.00    +0.000 C 
ATOM     12  N   UNL     1      -7.517  12.736  17.810  0.00  0.00    +0.000 NA
ATOM     13  C   UNL     1      -6.474  11.701  17.984  0.00  0.00    +0.000 C 
ATOM     14  C   UNL     1      -5.922  11.598  19.410  0.00  0.00    +0.000 C 
ATOM     15  C   UNL     1      -3.245  13.526  21.009  0.00  0.00    +0.000 A 
ATOM     16  C   UNL     1      -1.889  13.316  21.304  0.00  0.00    +0.000 A 
ATOM     17  C   UNL     1      -1.266  12.374  20.502  0.00  0.00    +0.000 A 
ATOM     18  N   UNL     1      -0.022  11.802  20.476  0.00  0.00    +0.000 N 
ATOM     19  H   UNL     1      -8.029  12.501  16.958  0.00  0.00    +0.000 HD
ATOM     20  H   UNL     1       0.740  11.962  21.120  0.00  0.00    +0.000 HD
ENDBRANCH   2   3
BRANCH   2  21
ATOM     21  C   UNL     1       1.544   9.001  19.367  0.00  0.00    +0.000 A 
ATOM     22  C   UNL     1       1.220   8.631  20.672  0.00  0.00    +0.000 A 
ATOM     23  C   UNL     1       1.500   7.343  21.068  0.00  0.00    +0.000 A 
ATOM     24  N   UNL     1       2.048   6.420  20.254  0.00  0.00    +0.000 NA
ATOM     25  C   UNL     1       2.314   6.761  18.968  0.00  0.00    +0.000 A 
ATOM     26  C   UNL     1       2.086   8.054  18.499  0.00  0.00    +0.000 A 
BRANCH  25  27
ATOM     27  C   UNL     1       2.806   5.685  18.084  0.00  0.00    +0.000 A 
ATOM     28  C   UNL     1       1.996   4.565  17.859  0.00  0.00    +0.000 A 
ATOM     29  N   UNL     1       2.353   3.465  17.161  0.00  0.00    +0.000 NA
ATOM     30  C   UNL     1       3.601   3.466  16.654  0.00  0.00    +0.000 A 
ATOM     31  C   UNL     1       4.512   4.511  16.784  0.00  0.00    +0.000 A 
ATOM     32  C   UNL     1       5.805   4.411  16.236  0.00  0.00    +0.000 A 
ATOM     33  C   UNL     1       6.717   5.456  16.361  0.00  0.00    +0.000 A 
ATOM     34  C   UNL     1       6.335   6.621  17.004  0.00  0.00    +0.000 A 
ATOM     35  C   UNL     1       5.056   6.723  17.565  0.00  0.00    +0.000 A 
ATOM     36  C   UNL     1       4.108   5.670  17.489  0.00  0.00    +0.000 A 
ENDBRANCH  25  27
ENDBRANCH   2  21
TORSDOF 3
ENDMDL
MODEL 8
REMARK VINA RESULT:      -9.3      2.861      3.388
REMARK  Name = 
REMARK  3 active torsions:
REMARK  status: ('A' for Active; 'I' for Inactive)
REMARK    1  A    between atoms: C_2  and  C_3
REMARK    2  A    between atoms: C_2  and  C_19
REMARK    3  A    between atoms: C_7  and  C_8
REMARK                            x       y       z     vdW  Elec       q    Type
REMARK                         _______ _______ _______ _____ _____    ______ ____
ROOT
ATOM      1  O   UNL     1       1.465   8.470  22.282  0.00  0.00    +0.000 OA
ATOM      2  C   UNL     1       1.056   9.223  21.401  0.00  0.00    +0.000 C 
ENDROOT
BRANCH   2   3
ATOM      3  C   UNL     1       0.289  10.414  21.678  0.00  0.00    +0.000 A 
ATOM      4  N   UNL     1      -0.891  10.403  22.267  0.00  0.00    +0.000 NA
ATOM      5  C   UNL     1      -1.310  11.697  22.252  0.00  0.00    +0.000 A 
ATOM      6  N   UNL     1      -2.461  12.128  22.783  0.00  0.00    +0.000 NA
ATOM      7  C   UNL     1      -2.719  13.443  22.678  0.00  0.00    +0.000 A 
ATOM      8  N   UNL     1      -3.779  13.923  23.417  0.00  0.00    +0.000 N 
ATOM      9  C   UNL     1      -4.628  15.047  23.071  0.00  0.00    +0.000 C 
ATOM     10  C   UNL     1      -5.878  14.617  22.309  0.00  0.00    +0.000 C 
ATOM     11  C   UNL     1      -6.745  13.509  22.920  0.00  0.00    +0.000 C 
ATOM     12  N   UNL     1      -6.595  13.248  24.354  0.00  0.00    +0.000 NA
ATOM     13  C   UNL     1      -5.391  12.426  24.607  0.00  0.00    +0.000 C 
ATOM     14  C   UNL     1      -4.085  13.226  24.672  0.00  0.00    +0.000 C 
ATOM     15  C   UNL     1      -1.883  14.301  21.945  0.00  0.00    +0.000 A 
ATOM     16  C   UNL     1      -0.672  13.858  21.393  0.00  0.00    +0.000 A 
ATOM     17  C   UNL     1      -0.398  12.517  21.609  0.00  0.00    +0.000 A 
ATOM     18  N   UNL     1       0.662  11.694  21.340  0.00  0.00    +0.000 N 
ATOM     19  H   UNL     1      -7.400  12.696  24.653  0.00  0.00    +0.000 HD
ATOM     20  H   UNL     1       1.541  11.947  20.911  0.00  0.00    +0.000 HD
ENDBRANCH   2   3
BRANCH   2  21
ATOM     21  C   UNL     1       1.419   8.949  19.981  0.00  0.00    +0.000 A 
ATOM     22  C   UNL     1       1.123   9.866  18.973  0.00  0.00    +0.000 A 
ATOM     23  C   UNL     1       1.511   9.563  17.688  0.00  0.00    +0.000 A 
ATOM     24  N   UNL     1       2.180   8.440  17.361  0.00  0.00    +0.000 NA
ATOM     25  C   UNL     1       2.518   7.572  18.347  0.00  0.00    +0.000 A 
ATOM     26  C   UNL     1       2.136   7.794  19.670  0.00  0.00    +0.000 A 
BRANCH  25  27
ATOM     27  C   UNL     1       3.349   6.415  17.958  0.00  0.00    +0.000 A 
ATOM     28  C   UNL     1       4.615   6.643  17.404  0.00  0.00    +0.000 A 
ATOM     29  N   UNL     1       5.439   5.692  16.911  0.00  0.00    +0.000 NA
ATOM     30  C   UNL     1       4.979   4.428  16.962  0.00  0.00    +0.000 A 
ATOM     31  C   UNL     1       3.750   4.049  17.496  0.00  0.00    +0.000 A 
ATOM     32  C   UNL     1       3.346   2.700  17.485  0.00  0.00    +0.000 A 
ATOM     33  C   UNL     1       2.119   2.317  18.022  0.00  0.00    +0.000 A 
ATOM     34  C   UNL     1       1.302   3.271  18.603  0.00  0.00    +0.000 A 
ATOM     35  C   UNL     1       1.690   4.616  18.605  0.00  0.00    +0.000 A 
ATOM     36  C   UNL     1       2.916   5.054  18.039  0.00  0.00    +0.000 A 
ENDBRANCH  25  27
ENDBRANCH   2  21
TORSDOF 3
ENDMDL
MODEL 9
REMARK VINA RESULT:      -9.3      4.200      6.936
REMARK  Name = 
REMARK  3 active torsions:
REMARK  status: ('A' for Active; 'I' for Inactive)
REMARK    1  A    between atoms: C_2  and  C_3
REMARK    2  A    between atoms: C_2  and  C_19
REMARK    3  A    between atoms: C_7  and  C_8
REMARK                            x       y       z     vdW  Elec       q    Type
REMARK                         _______ _______ _______ _____ _____    ______ ____
ROOT
ATOM      1  O   UNL     1      -0.769  10.249  17.789  0.00  0.00    +0.000 OA
ATOM      2  C   UNL     1       0.298  10.460  18.360  0.00  0.00    +0.000 C 
ENDROOT
BRANCH   2   3
ATOM      3  C   UNL     1       0.920  11.763  18.409  0.00  0.00    +0.000 A 
ATOM      4  N   UNL     1       2.222  11.947  18.507  0.00  0.00    +0.000 NA
ATOM      5  C   UNL     1       2.383  13.293  18.620  0.00  0.00    +0.000 A 
ATOM      6  N   UNL     1       3.568  13.909  18.714  0.00  0.00    +0.000 NA
ATOM      7  C   UNL     1       3.545  15.249  18.821  0.00  0.00    +0.000 A 
ATOM      8  N   UNL     1       4.753  15.898  18.686  0.00  0.00    +0.000 N 
ATOM      9  C   UNL     1       5.132  17.148  19.317  0.00  0.00    +0.000 C 
ATOM     10  C   UNL     1       5.855  16.934  20.643  0.00  0.00    +0.000 C 
ATOM     11  C   UNL     1       7.061  15.985  20.657  0.00  0.00    +0.000 C 
ATOM     12  N   UNL     1       7.711  15.701  19.376  0.00  0.00    +0.000 NA
ATOM     13  C   UNL     1       6.942  14.690  18.617  0.00  0.00    +0.000 C 
ATOM     14  C   UNL     1       5.759  15.262  17.827  0.00  0.00    +0.000 C 
ATOM     15  C   UNL     1       2.339  15.957  18.949  0.00  0.00    +0.000 A 
ATOM     16  C   UNL     1       1.094  15.319  18.844  0.00  0.00    +0.000 A 
ATOM     17  C   UNL     1       1.165  13.951  18.636  0.00  0.00    +0.000 A 
ATOM     18  N   UNL     1       0.248  12.963  18.398  0.00  0.00    +0.000 N 
ATOM     19  H   UNL     1       8.624  15.291  19.577  0.00  0.00    +0.000 HD
ATOM     20  H   UNL     1      -0.752  13.066  18.296  0.00  0.00    +0.000 HD
ENDBRANCH   2   3
BRANCH   2  21
ATOM     21  C   UNL     1       0.960   9.349  19.103  0.00  0.00    +0.000 A 
ATOM     22  C   UNL     1       0.800   9.210  20.481  0.00  0.00    +0.000 A 
ATOM     23  C   UNL     1       1.417   8.146  21.099  0.00  0.00    +0.000 A 
ATOM     24  N   UNL     1       2.145   7.224  20.438  0.00  0.00    +0.000 NA
ATOM     25  C   UNL     1       2.257   7.327  19.091  0.00  0.00    +0.000 A 
ATOM     26  C   UNL     1       1.686   8.392  18.394  0.00  0.00    +0.000 A 
BRANCH  25  27
ATOM     27  C   UNL     1       2.967   6.232  18.398  0.00  0.00    +0.000 A 
ATOM     28  C   UNL     1       4.063   6.540  17.583  0.00  0.00    +0.000 A 
ATOM     29  N   UNL     1       4.741   5.661  16.814  0.00  0.00    +0.000 NA
ATOM     30  C   UNL     1       4.302   4.388  16.844  0.00  0.00    +0.000 A 
ATOM     31  C   UNL     1       3.237   3.932  17.617  0.00  0.00    +0.000 A 
ATOM     32  C   UNL     1       2.838   2.582  17.566  0.00  0.00    +0.000 A 
ATOM     33  C   UNL     1       1.775   2.122  18.340  0.00  0.00    +0.000 A 
ATOM     34  C   UNL     1       1.124   2.997  19.194  0.00  0.00    +0.000 A 
ATOM     35  C   UNL     1       1.506   4.343  19.238  0.00  0.00    +0.000 A 
ATOM     36  C   UNL     1       2.561   4.861  18.443  0.00  0.00    +0.000 A 
ENDBRANCH  25  27
ENDBRANCH   2  21
TORSDOF 3
ENDMDL
