MODEL 1
REMARK VINA RESULT:      -7.8      0.000      0.000
REMARK  Name = 
REMARK  5 active torsions:
REMARK  status: ('A' for Active; 'I' for Inactive)
REMARK    1  A    between atoms: C_4  and  C_6
REMARK    2  A    between atoms: N_14  and  C_15
REMARK    3  A    between atoms: C_18  and  S_19
REMARK    4  A    between atoms: S_19  and  C_20
REMARK    5  A    between atoms: C_20  and  C_23
REMARK                            x       y       z     vdW  Elec       q    Type
REMARK                         _______ _______ _______ _____ _____    ______ ____
ROOT
ATOM      1  O   UNL     1       1.966   9.746  17.515  0.00  0.00    +0.000 OA
ATOM      2  C   UNL     1       1.846   8.907  18.407  0.00  0.00    +0.000 C 
ATOM      3  N   UNL     1       2.333   7.641  18.170  0.00  0.00    +0.000 N 
ATOM      4  C   UNL     1       2.335   6.559  19.029  0.00  0.00    +0.000 C 
ATOM      5  O   UNL     1       1.895   6.628  20.175  0.00  0.00    +0.000 OA
ATOM      6  N   UNL     1       1.267   9.108  19.633  0.00  0.00    +0.000 N 
ATOM      7  H   UNL     1       2.744   7.550  17.251  0.00  0.00    +0.000 HD
ATOM      8  H   UNL     1       1.403   8.362  20.318  0.00  0.00    +0.000 HD
ENDROOT
BRANCH   4   9
ATOM      9  C   UNL     1       2.917   5.294  18.548  0.00  0.00    +0.000 A 
ATOM     10  C   UNL     1       2.232   4.442  17.687  0.00  0.00    +0.000 A 
ATOM     11  F   UNL     1       0.970   4.708  17.323  0.00  0.00    +0.000 F 
ATOM     12  C   UNL     1       2.845   3.301  17.165  0.00  0.00    +0.000 A 
ATOM     13  C   UNL     1       4.160   2.996  17.515  0.00  0.00    +0.000 A 
ATOM     14  C   UNL     1       4.847   3.826  18.401  0.00  0.00    +0.000 A 
ATOM     15  C   UNL     1       4.225   4.964  18.911  0.00  0.00    +0.000 A 
ATOM     16  F   UNL     1       4.917   5.716  19.781  0.00  0.00    +0.000 F 
ENDBRANCH   4   9
BRANCH   6  17
ATOM     17  C   UNL     1       0.539  10.233  20.070  0.00  0.00    +0.000 A 
ATOM     18  C   UNL     1       1.036  11.144  20.999  0.00  0.00    +0.000 A 
ATOM     19  C   UNL     1       0.304  12.293  21.326  0.00  0.00    +0.000 A 
ATOM     20  C   UNL     1      -0.938  12.549  20.735  0.00  0.00    +0.000 A 
ATOM     21  C   UNL     1      -1.463  11.611  19.844  0.00  0.00    +0.000 A 
ATOM     22  C   UNL     1      -0.720  10.478  19.510  0.00  0.00    +0.000 A 
ATOM     23  F   UNL     1      -1.248   9.598  18.644  0.00  0.00    +0.000 F 
BRANCH  20  24
ATOM     24  S   UNL     1      -1.823  14.023  21.202  0.00  0.00    +0.000 S 
BRANCH  24  25
ATOM     25  C   UNL     1      -2.272  13.624  22.932  0.00  0.00    +0.000 C 
ATOM     26  F   UNL     1      -1.158  13.639  23.712  0.00  0.00    +0.000 F 
ATOM     27  F   UNL     1      -3.098  14.596  23.413  0.00  0.00    +0.000 F 
BRANCH  25  28
ATOM     28  C   UNL     1      -2.981  12.269  23.029  0.00  0.00    +0.000 C 
ATOM     29  F   UNL     1      -2.158  11.298  23.510  0.00  0.00    +0.000 F 
ATOM     30  F   UNL     1      -4.033  12.333  23.891  0.00  0.00    +0.000 F 
ENDBRANCH  25  28
ENDBRANCH  24  25
ENDBRANCH  20  24
ENDBRANCH   6  17
TORSDOF 5
ENDMDL
MODEL 2
REMARK VINA RESULT:      -7.8      0.606      1.581
REMARK  Name = 
REMARK  5 active torsions:
REMARK  status: ('A' for Active; 'I' for Inactive)
REMARK    1  A    between atoms: C_4  and  C_6
REMARK    2  A    between atoms: N_14  and  C_15
REMARK    3  A    between atoms: C_18  and  S_19
REMARK    4  A    between atoms: S_19  and  C_20
REMARK    5  A    between atoms: C_20  and  C_23
REMARK                            x       y       z     vdW  Elec       q    Type
REMARK                         _______ _______ _______ _____ _____    ______ ____
ROOT
ATOM      1  O   UNL     1       1.942  10.152  17.340  0.00  0.00    +0.000 OA
ATOM      2  C   UNL     1       1.888   9.246  18.173  0.00  0.00    +0.000 C 
ATOM      3  N   UNL     1       2.445   8.032  17.839  0.00  0.00    +0.000 N 
ATOM      4  C   UNL     1       2.527   6.895  18.618  0.00  0.00    +0.000 C 
ATOM      5  O   UNL     1       2.104   6.856  19.772  0.00  0.00    +0.000 OA
ATOM      6  N   UNL     1       1.320   9.326  19.418  0.00  0.00    +0.000 N 
ATOM      7  H   UNL     1       2.844   8.031  16.910  0.00  0.00    +0.000 HD
ATOM      8  H   UNL     1       1.513   8.543  20.045  0.00  0.00    +0.000 HD
ENDROOT
BRANCH   4   9
ATOM      9  C   UNL     1       3.174   5.704  18.041  0.00  0.00    +0.000 A 
ATOM     10  C   UNL     1       4.552   5.620  17.863  0.00  0.00    +0.000 A 
ATOM     11  F   UNL     1       5.341   6.667  18.142  0.00  0.00    +0.000 F 
ATOM     12  C   UNL     1       5.150   4.442  17.411  0.00  0.00    +0.000 A 
ATOM     13  C   UNL     1       4.360   3.330  17.119  0.00  0.00    +0.000 A 
ATOM     14  C   UNL     1       2.976   3.411  17.264  0.00  0.00    +0.000 A 
ATOM     15  C   UNL     1       2.392   4.591  17.721  0.00  0.00    +0.000 A 
ATOM     16  F   UNL     1       1.055   4.628  17.818  0.00  0.00    +0.000 F 
ENDBRANCH   4   9
BRANCH   6  17
ATOM     17  C   UNL     1       0.535  10.371  19.943  0.00  0.00    +0.000 A 
ATOM     18  C   UNL     1       1.005  11.264  20.903  0.00  0.00    +0.000 A 
ATOM     19  C   UNL     1       0.209  12.339  21.321  0.00  0.00    +0.000 A 
ATOM     20  C   UNL     1      -1.070  12.537  20.791  0.00  0.00    +0.000 A 
ATOM     21  C   UNL     1      -1.566  11.613  19.869  0.00  0.00    +0.000 A 
ATOM     22  C   UNL     1      -0.760  10.555  19.445  0.00  0.00    +0.000 A 
ATOM     23  F   UNL     1      -1.261   9.687  18.551  0.00  0.00    +0.000 F 
BRANCH  20  24
ATOM     24  S   UNL     1      -2.035  13.917  21.372  0.00  0.00    +0.000 S 
BRANCH  24  25
ATOM     25  C   UNL     1      -2.272  13.459  23.130  0.00  0.00    +0.000 C 
ATOM     26  F   UNL     1      -1.083  13.530  23.787  0.00  0.00    +0.000 F 
ATOM     27  F   UNL     1      -3.098  14.368  23.720  0.00  0.00    +0.000 F 
BRANCH  25  28
ATOM     28  C   UNL     1      -2.883  12.060  23.268  0.00  0.00    +0.000 C 
ATOM     29  F   UNL     1      -1.942  11.121  23.558  0.00  0.00    +0.000 F 
ATOM     30  F   UNL     1      -3.781  12.023  24.290  0.00  0.00    +0.000 F 
ENDBRANCH  25  28
ENDBRANCH  24  25
ENDBRANCH  20  24
ENDBRANCH   6  17
TORSDOF 5
ENDMDL
MODEL 3
REMARK VINA RESULT:      -7.8      3.246      9.493
REMARK  Name = 
REMARK  5 active torsions:
REMARK  status: ('A' for Active; 'I' for Inactive)
REMARK    1  A    between atoms: C_4  and  C_6
REMARK    2  A    between atoms: N_14  and  C_15
REMARK    3  A    between atoms: C_18  and  S_19
REMARK    4  A    between atoms: S_19  and  C_20
REMARK    5  A    between atoms: C_20  and  C_23
REMARK                            x       y       z     vdW  Elec       q    Type
REMARK                         _______ _______ _______ _____ _____    ______ ____
ROOT
ATOM      1  O   UNL     1       0.143   9.791  18.001  0.00  0.00    +0.000 OA
ATOM      2  C   UNL     1       0.532   9.843  19.168  0.00  0.00    +0.000 C 
ATOM      3  N   UNL     1       0.035  10.847  19.968  0.00  0.00    +0.000 N 
ATOM      4  C   UNL     1       0.304  11.079  21.303  0.00  0.00    +0.000 C 
ATOM      5  O   UNL     1       1.046  10.351  21.960  0.00  0.00    +0.000 OA
ATOM      6  N   UNL     1       1.427   8.989  19.760  0.00  0.00    +0.000 N 
ATOM      7  H   UNL     1      -0.615  11.446  19.478  0.00  0.00    +0.000 HD
ATOM      8  H   UNL     1       1.509   9.066  20.776  0.00  0.00    +0.000 HD
ENDROOT
BRANCH   4   9
ATOM      9  C   UNL     1      -0.353  12.225  21.953  0.00  0.00    +0.000 A 
ATOM     10  C   UNL     1      -1.366  12.065  22.894  0.00  0.00    +0.000 A 
ATOM     11  F   UNL     1      -1.841  10.845  23.184  0.00  0.00    +0.000 F 
ATOM     12  C   UNL     1      -1.900  13.162  23.571  0.00  0.00    +0.000 A 
ATOM     13  C   UNL     1      -1.425  14.446  23.300  0.00  0.00    +0.000 A 
ATOM     14  C   UNL     1      -0.431  14.623  22.339  0.00  0.00    +0.000 A 
ATOM     15  C   UNL     1       0.097  13.518  21.673  0.00  0.00    +0.000 A 
ATOM     16  F   UNL     1       1.032  13.742  20.737  0.00  0.00    +0.000 F 
ENDBRANCH   4   9
BRANCH   6  17
ATOM     17  C   UNL     1       2.215   7.999  19.141  0.00  0.00    +0.000 A 
ATOM     18  C   UNL     1       2.903   8.213  17.948  0.00  0.00    +0.000 A 
ATOM     19  C   UNL     1       3.744   7.221  17.429  0.00  0.00    +0.000 A 
ATOM     20  C   UNL     1       3.909   5.998  18.086  0.00  0.00    +0.000 A 
ATOM     21  C   UNL     1       3.179   5.759  19.253  0.00  0.00    +0.000 A 
ATOM     22  C   UNL     1       2.357   6.759  19.774  0.00  0.00    +0.000 A 
ATOM     23  F   UNL     1       1.674   6.503  20.902  0.00  0.00    +0.000 F 
BRANCH  20  24
ATOM     24  S   UNL     1       4.986   4.774  17.367  0.00  0.00    +0.000 S 
BRANCH  24  25
ATOM     25  C   UNL     1       6.550   5.127  18.254  0.00  0.00    +0.000 C 
ATOM     26  F   UNL     1       6.351   5.023  19.595  0.00  0.00    +0.000 F 
ATOM     27  F   UNL     1       7.473   4.180  17.922  0.00  0.00    +0.000 F 
BRANCH  25  28
ATOM     28  C   UNL     1       7.099   6.512  17.894  0.00  0.00    +0.000 C 
ATOM     29  F   UNL     1       8.184   6.839  18.645  0.00  0.00    +0.000 F 
ATOM     30  F   UNL     1       7.513   6.547  16.598  0.00  0.00    +0.000 F 
ENDBRANCH  25  28
ENDBRANCH  24  25
ENDBRANCH  20  24
ENDBRANCH   6  17
TORSDOF 5
ENDMDL
MODEL 4
REMARK VINA RESULT:      -7.7      0.640      1.062
REMARK  Name = 
REMARK  5 active torsions:
REMARK  status: ('A' for Active; 'I' for Inactive)
REMARK    1  A    between atoms: C_4  and  C_6
REMARK    2  A    between atoms: N_14  and  C_15
REMARK    3  A    between atoms: C_18  and  S_19
REMARK    4  A    between atoms: S_19  and  C_20
REMARK    5  A    between atoms: C_20  and  C_23
REMARK                            x       y       z     vdW  Elec       q    Type
REMARK                         _______ _______ _______ _____ _____    ______ ____
ROOT
ATOM      1  O   UNL     1       2.003   9.746  17.473  0.00  0.00    +0.000 OA
ATOM      2  C   UNL     1       1.848   8.911  18.364  0.00  0.00    +0.000 C 
ATOM      3  N   UNL     1       2.332   7.641  18.147  0.00  0.00    +0.000 N 
ATOM      4  C   UNL     1       2.298   6.562  19.008  0.00  0.00    +0.000 C 
ATOM      5  O   UNL     1       1.819   6.638  20.139  0.00  0.00    +0.000 OA
ATOM      6  N   UNL     1       1.229   9.121  19.569  0.00  0.00    +0.000 N 
ATOM      7  H   UNL     1       2.773   7.544  17.242  0.00  0.00    +0.000 HD
ATOM      8  H   UNL     1       1.336   8.376  20.260  0.00  0.00    +0.000 HD
ENDROOT
BRANCH   4   9
ATOM      9  C   UNL     1       2.885   5.291  18.552  0.00  0.00    +0.000 A 
ATOM     10  C   UNL     1       2.211   4.426  17.695  0.00  0.00    +0.000 A 
ATOM     11  F   UNL     1       0.952   4.687  17.314  0.00  0.00    +0.000 F 
ATOM     12  C   UNL     1       2.831   3.279  17.195  0.00  0.00    +0.000 A 
ATOM     13  C   UNL     1       4.142   2.981  17.563  0.00  0.00    +0.000 A 
ATOM     14  C   UNL     1       4.818   3.823  18.445  0.00  0.00    +0.000 A 
ATOM     15  C   UNL     1       4.190   4.968  18.933  0.00  0.00    +0.000 A 
ATOM     16  F   UNL     1       4.872   5.732  19.799  0.00  0.00    +0.000 F 
ENDBRANCH   4   9
BRANCH   6  17
ATOM     17  C   UNL     1       0.496  10.253  19.977  0.00  0.00    +0.000 A 
ATOM     18  C   UNL     1       0.946  11.137  20.955  0.00  0.00    +0.000 A 
ATOM     19  C   UNL     1       0.216  12.294  21.254  0.00  0.00    +0.000 A 
ATOM     20  C   UNL     1      -0.978  12.586  20.586  0.00  0.00    +0.000 A 
ATOM     21  C   UNL     1      -1.460  11.676  19.644  0.00  0.00    +0.000 A 
ATOM     22  C   UNL     1      -0.718  10.534  19.339  0.00  0.00    +0.000 A 
ATOM     23  F   UNL     1      -1.203   9.681  18.422  0.00  0.00    +0.000 F 
BRANCH  20  24
ATOM     24  S   UNL     1      -1.863  14.070  21.020  0.00  0.00    +0.000 S 
BRANCH  24  25
ATOM     25  C   UNL     1      -3.196  13.383  22.072  0.00  0.00    +0.000 C 
ATOM     26  F   UNL     1      -4.156  14.325  22.272  0.00  0.00    +0.000 F 
ATOM     27  F   UNL     1      -3.794  12.350  21.414  0.00  0.00    +0.000 F 
BRANCH  25  28
ATOM     28  C   UNL     1      -2.649  12.876  23.411  0.00  0.00    +0.000 C 
ATOM     29  F   UNL     1      -2.345  11.551  23.367  0.00  0.00    +0.000 F 
ATOM     30  F   UNL     1      -1.494  13.518  23.736  0.00  0.00    +0.000 F 
ENDBRANCH  25  28
ENDBRANCH  24  25
ENDBRANCH  20  24
ENDBRANCH   6  17
TORSDOF 5
ENDMDL
MODEL 5
REMARK VINA RESULT:      -7.7      3.228      9.660
REMARK  Name = 
REMARK  5 active torsions:
REMARK  status: ('A' for Active; 'I' for Inactive)
REMARK    1  A    between atoms: C_4  and  C_6
REMARK    2  A    between atoms: N_14  and  C_15
REMARK    3  A    between atoms: C_18  and  S_19
REMARK    4  A    between atoms: S_19  and  C_20
REMARK    5  A    between atoms: C_20  and  C_23
REMARK                            x       y       z     vdW  Elec       q    Type
REMARK                         _______ _______ _______ _____ _____    ______ ____
ROOT
ATOM      1  O   UNL     1      -0.250  10.020  18.214  0.00  0.00    +0.000 OA
ATOM      2  C   UNL     1       0.212  10.075  19.354  0.00  0.00    +0.000 C 
ATOM      3  N   UNL     1      -0.245  11.074  20.185  0.00  0.00    +0.000 N 
ATOM      4  C   UNL     1       0.106  11.308  21.500  0.00  0.00    +0.000 C 
ATOM      5  O   UNL     1       0.896  10.588  22.108  0.00  0.00    +0.000 OA
ATOM      6  N   UNL     1       1.150   9.231  19.887  0.00  0.00    +0.000 N 
ATOM      7  H   UNL     1      -0.930  11.666  19.737  0.00  0.00    +0.000 HD
ATOM      8  H   UNL     1       1.297   9.308  20.896  0.00  0.00    +0.000 HD
ENDROOT
BRANCH   4   9
ATOM      9  C   UNL     1      -0.520  12.448  22.192  0.00  0.00    +0.000 A 
ATOM     10  C   UNL     1      -0.102  13.760  21.991  0.00  0.00    +0.000 A 
ATOM     11  F   UNL     1       0.955  14.028  21.210  0.00  0.00    +0.000 F 
ATOM     12  C   UNL     1      -0.779  14.830  22.579  0.00  0.00    +0.000 A 
ATOM     13  C   UNL     1      -1.887  14.589  23.392  0.00  0.00    +0.000 A 
ATOM     14  C   UNL     1      -2.298  13.277  23.625  0.00  0.00    +0.000 A 
ATOM     15  C   UNL     1      -1.616  12.218  23.027  0.00  0.00    +0.000 A 
ATOM     16  F   UNL     1      -2.033  10.974  23.304  0.00  0.00    +0.000 F 
ENDBRANCH   4   9
BRANCH   6  17
ATOM     17  C   UNL     1       1.908   8.249  19.218  0.00  0.00    +0.000 A 
ATOM     18  C   UNL     1       2.494   8.462  17.972  0.00  0.00    +0.000 A 
ATOM     19  C   UNL     1       3.312   7.480  17.398  0.00  0.00    +0.000 A 
ATOM     20  C   UNL     1       3.556   6.270  18.055  0.00  0.00    +0.000 A 
ATOM     21  C   UNL     1       2.928   6.032  19.279  0.00  0.00    +0.000 A 
ATOM     22  C   UNL     1       2.128   7.021  19.853  0.00  0.00    +0.000 A 
ATOM     23  F   UNL     1       1.543   6.767  21.035  0.00  0.00    +0.000 F 
BRANCH  20  24
ATOM     24  S   UNL     1       4.599   5.060  17.265  0.00  0.00    +0.000 S 
BRANCH  24  25
ATOM     25  C   UNL     1       6.249   5.583  17.864  0.00  0.00    +0.000 C 
ATOM     26  F   UNL     1       6.375   6.932  17.746  0.00  0.00    +0.000 F 
ATOM     27  F   UNL     1       6.352   5.297  19.192  0.00  0.00    +0.000 F 
BRANCH  25  28
ATOM     28  C   UNL     1       7.373   4.867  17.107  0.00  0.00    +0.000 C 
ATOM     29  F   UNL     1       8.202   4.191  17.947  0.00  0.00    +0.000 F 
ATOM     30  F   UNL     1       6.865   3.938  16.251  0.00  0.00    +0.000 F 
ENDBRANCH  25  28
ENDBRANCH  24  25
ENDBRANCH  20  24
ENDBRANCH   6  17
TORSDOF 5
ENDMDL
MODEL 6
REMARK VINA RESULT:      -7.6      3.212      9.612
REMARK  Name = 
REMARK  5 active torsions:
REMARK  status: ('A' for Active; 'I' for Inactive)
REMARK    1  A    between atoms: C_4  and  C_6
REMARK    2  A    between atoms: N_14  and  C_15
REMARK    3  A    between atoms: C_18  and  S_19
REMARK    4  A    between atoms: S_19  and  C_20
REMARK    5  A    between atoms: C_20  and  C_23
REMARK                            x       y       z     vdW  Elec       q    Type
REMARK                         _______ _______ _______ _____ _____    ______ ____
ROOT
ATOM      1  O   UNL     1      -0.225  10.023  18.183  0.00  0.00    +0.000 OA
ATOM      2  C   UNL     1       0.236  10.091  19.323  0.00  0.00    +0.000 C 
ATOM      3  N   UNL     1      -0.214  11.103  20.140  0.00  0.00    +0.000 N 
ATOM      4  C   UNL     1       0.137  11.352  21.453  0.00  0.00    +0.000 C 
ATOM      5  O   UNL     1       0.922  10.635  22.071  0.00  0.00    +0.000 OA
ATOM      6  N   UNL     1       1.169   9.247  19.868  0.00  0.00    +0.000 N 
ATOM      7  H   UNL     1      -0.896  11.694  19.685  0.00  0.00    +0.000 HD
ATOM      8  H   UNL     1       1.315   9.336  20.876  0.00  0.00    +0.000 HD
ENDROOT
BRANCH   4   9
ATOM      9  C   UNL     1      -0.482  12.505  22.129  0.00  0.00    +0.000 A 
ATOM     10  C   UNL     1      -1.531  12.360  23.032  0.00  0.00    +0.000 A 
ATOM     11  F   UNL     1      -2.075  11.156  23.260  0.00  0.00    +0.000 F 
ATOM     12  C   UNL     1      -2.031  13.456  23.737  0.00  0.00    +0.000 A 
ATOM     13  C   UNL     1      -1.485  14.723  23.532  0.00  0.00    +0.000 A 
ATOM     14  C   UNL     1      -0.453  14.886  22.608  0.00  0.00    +0.000 A 
ATOM     15  C   UNL     1       0.040  13.782  21.914  0.00  0.00    +0.000 A 
ATOM     16  F   UNL     1       1.014  13.995  21.016  0.00  0.00    +0.000 F 
ENDBRANCH   4   9
BRANCH   6  17
ATOM     17  C   UNL     1       1.921   8.252  19.213  0.00  0.00    +0.000 A 
ATOM     18  C   UNL     1       2.518   8.448  17.970  0.00  0.00    +0.000 A 
ATOM     19  C   UNL     1       3.330   7.453  17.410  0.00  0.00    +0.000 A 
ATOM     20  C   UNL     1       3.554   6.245  18.078  0.00  0.00    +0.000 A 
ATOM     21  C   UNL     1       2.913   6.023  19.298  0.00  0.00    +0.000 A 
ATOM     22  C   UNL     1       2.121   7.026  19.858  0.00  0.00    +0.000 A 
ATOM     23  F   UNL     1       1.523   6.787  21.037  0.00  0.00    +0.000 F 
BRANCH  20  24
ATOM     24  S   UNL     1       4.590   5.017  17.306  0.00  0.00    +0.000 S 
BRANCH  24  25
ATOM     25  C   UNL     1       6.249   5.572  17.850  0.00  0.00    +0.000 C 
ATOM     26  F   UNL     1       6.355   6.919  17.700  0.00  0.00    +0.000 F 
ATOM     27  F   UNL     1       6.389   5.315  19.181  0.00  0.00    +0.000 F 
BRANCH  25  28
ATOM     28  C   UNL     1       7.361   4.854  17.079  0.00  0.00    +0.000 C 
ATOM     29  F   UNL     1       8.186   4.158  17.907  0.00  0.00    +0.000 F 
ATOM     30  F   UNL     1       6.839   3.941  16.213  0.00  0.00    +0.000 F 
ENDBRANCH  25  28
ENDBRANCH  24  25
ENDBRANCH  20  24
ENDBRANCH   6  17
TORSDOF 5
ENDMDL
MODEL 7
REMARK VINA RESULT:      -7.6      3.269      9.504
REMARK  Name = 
REMARK  5 active torsions:
REMARK  status: ('A' for Active; 'I' for Inactive)
REMARK    1  A    between atoms: C_4  and  C_6
REMARK    2  A    between atoms: N_14  and  C_15
REMARK    3  A    between atoms: C_18  and  S_19
REMARK    4  A    between atoms: S_19  and  C_20
REMARK    5  A    between atoms: C_20  and  C_23
REMARK                            x       y       z     vdW  Elec       q    Type
REMARK                         _______ _______ _______ _____ _____    ______ ____
ROOT
ATOM      1  O   UNL     1       0.255   9.761  18.040  0.00  0.00    +0.000 OA
ATOM      2  C   UNL     1       0.598   9.763  19.222  0.00  0.00    +0.000 C 
ATOM      3  N   UNL     1       0.111  10.765  20.032  0.00  0.00    +0.000 N 
ATOM      4  C   UNL     1       0.334  10.947  21.382  0.00  0.00    +0.000 C 
ATOM      5  O   UNL     1       1.018  10.169  22.047  0.00  0.00    +0.000 OA
ATOM      6  N   UNL     1       1.430   8.855  19.824  0.00  0.00    +0.000 N 
ATOM      7  H   UNL     1      -0.492  11.405  19.534  0.00  0.00    +0.000 HD
ATOM      8  H   UNL     1       1.474   8.899  20.844  0.00  0.00    +0.000 HD
ENDROOT
BRANCH   4   9
ATOM      9  C   UNL     1      -0.300  12.102  22.040  0.00  0.00    +0.000 A 
ATOM     10  C   UNL     1       0.068  13.414  21.756  0.00  0.00    +0.000 A 
ATOM     11  F   UNL     1       1.084  13.671  20.919  0.00  0.00    +0.000 F 
ATOM     12  C   UNL     1      -0.618  14.492  22.316  0.00  0.00    +0.000 A 
ATOM     13  C   UNL     1      -1.685  14.262  23.184  0.00  0.00    +0.000 A 
ATOM     14  C   UNL     1      -2.045  12.953  23.501  0.00  0.00    +0.000 A 
ATOM     15  C   UNL     1      -1.354  11.884  22.931  0.00  0.00    +0.000 A 
ATOM     16  F   UNL     1      -1.720  10.644  23.288  0.00  0.00    +0.000 F 
ENDBRANCH   4   9
BRANCH   6  17
ATOM     17  C   UNL     1       2.201   7.850  19.207  0.00  0.00    +0.000 A 
ATOM     18  C   UNL     1       2.904   8.053  18.022  0.00  0.00    +0.000 A 
ATOM     19  C   UNL     1       3.727   7.043  17.505  0.00  0.00    +0.000 A 
ATOM     20  C   UNL     1       3.857   5.814  18.159  0.00  0.00    +0.000 A 
ATOM     21  C   UNL     1       3.113   5.588  19.318  0.00  0.00    +0.000 A 
ATOM     22  C   UNL     1       2.309   6.604  19.837  0.00  0.00    +0.000 A 
ATOM     23  F   UNL     1       1.611   6.360  20.958  0.00  0.00    +0.000 F 
BRANCH  20  24
ATOM     24  S   UNL     1       4.913   4.569  17.444  0.00  0.00    +0.000 S 
BRANCH  24  25
ATOM     25  C   UNL     1       6.566   5.219  17.891  0.00  0.00    +0.000 C 
ATOM     26  F   UNL     1       6.507   5.828  19.105  0.00  0.00    +0.000 F 
ATOM     27  F   UNL     1       7.434   4.176  18.020  0.00  0.00    +0.000 F 
BRANCH  25  28
ATOM     28  C   UNL     1       7.096   6.185  16.826  0.00  0.00    +0.000 C 
ATOM     29  F   UNL     1       6.335   6.167  15.699  0.00  0.00    +0.000 F 
ATOM     30  F   UNL     1       7.068   7.468  17.280  0.00  0.00    +0.000 F 
ENDBRANCH  25  28
ENDBRANCH  24  25
ENDBRANCH  20  24
ENDBRANCH   6  17
TORSDOF 5
ENDMDL
MODEL 8
REMARK VINA RESULT:      -7.6      0.659      1.828
REMARK  Name = 
REMARK  5 active torsions:
REMARK  status: ('A' for Active; 'I' for Inactive)
REMARK    1  A    between atoms: C_4  and  C_6
REMARK    2  A    between atoms: N_14  and  C_15
REMARK    3  A    between atoms: C_18  and  S_19
REMARK    4  A    between atoms: S_19  and  C_20
REMARK    5  A    between atoms: C_20  and  C_23
REMARK                            x       y       z     vdW  Elec       q    Type
REMARK                         _______ _______ _______ _____ _____    ______ ____
ROOT
ATOM      1  O   UNL     1       2.127   9.712  17.424  0.00  0.00    +0.000 OA
ATOM      2  C   UNL     1       1.940   8.893  18.323  0.00  0.00    +0.000 C 
ATOM      3  N   UNL     1       2.421   7.616  18.141  0.00  0.00    +0.000 N 
ATOM      4  C   UNL     1       2.354   6.551  19.018  0.00  0.00    +0.000 C 
ATOM      5  O   UNL     1       1.844   6.649  20.133  0.00  0.00    +0.000 OA
ATOM      6  N   UNL     1       1.288   9.127  19.507  0.00  0.00    +0.000 N 
ATOM      7  H   UNL     1       2.887   7.502  17.251  0.00  0.00    +0.000 HD
ATOM      8  H   UNL     1       1.370   8.392  20.212  0.00  0.00    +0.000 HD
ENDROOT
BRANCH   4   9
ATOM      9  C   UNL     1       2.945   5.269  18.599  0.00  0.00    +0.000 A 
ATOM     10  C   UNL     1       4.201   4.854  19.031  0.00  0.00    +0.000 A 
ATOM     11  F   UNL     1       4.961   5.656  19.791  0.00  0.00    +0.000 F 
ATOM     12  C   UNL     1       4.694   3.590  18.703  0.00  0.00    +0.000 A 
ATOM     13  C   UNL     1       3.928   2.726  17.921  0.00  0.00    +0.000 A 
ATOM     14  C   UNL     1       2.681   3.142  17.456  0.00  0.00    +0.000 A 
ATOM     15  C   UNL     1       2.198   4.405  17.795  0.00  0.00    +0.000 A 
ATOM     16  F   UNL     1       1.004   4.768  17.302  0.00  0.00    +0.000 F 
ENDBRANCH   4   9
BRANCH   6  17
ATOM     17  C   UNL     1       0.552  10.270  19.875  0.00  0.00    +0.000 A 
ATOM     18  C   UNL     1       1.027  11.219  20.778  0.00  0.00    +0.000 A 
ATOM     19  C   UNL     1       0.288  12.382  21.036  0.00  0.00    +0.000 A 
ATOM     20  C   UNL     1      -0.937  12.614  20.402  0.00  0.00    +0.000 A 
ATOM     21  C   UNL     1      -1.441  11.639  19.539  0.00  0.00    +0.000 A 
ATOM     22  C   UNL     1      -0.692  10.492  19.273  0.00  0.00    +0.000 A 
ATOM     23  F   UNL     1      -1.199   9.576  18.432  0.00  0.00    +0.000 F 
BRANCH  20  24
ATOM     24  S   UNL     1      -1.830  14.107  20.782  0.00  0.00    +0.000 S 
BRANCH  24  25
ATOM     25  C   UNL     1      -3.053  13.481  21.994  0.00  0.00    +0.000 C 
ATOM     26  F   UNL     1      -3.678  14.526  22.599  0.00  0.00    +0.000 F 
ATOM     27  F   UNL     1      -4.016  12.780  21.333  0.00  0.00    +0.000 F 
BRANCH  25  28
ATOM     28  C   UNL     1      -2.393  12.570  23.035  0.00  0.00    +0.000 C 
ATOM     29  F   UNL     1      -1.614  13.270  23.903  0.00  0.00    +0.000 F 
ATOM     30  F   UNL     1      -3.333  11.943  23.795  0.00  0.00    +0.000 F 
ENDBRANCH  25  28
ENDBRANCH  24  25
ENDBRANCH  20  24
ENDBRANCH   6  17
TORSDOF 5
ENDMDL
MODEL 9
REMARK VINA RESULT:      -7.6      3.339      9.509
REMARK  Name = 
REMARK  5 active torsions:
REMARK  status: ('A' for Active; 'I' for Inactive)
REMARK    1  A    between atoms: C_4  and  C_6
REMARK    2  A    between atoms: N_14  and  C_15
REMARK    3  A    between atoms: C_18  and  S_19
REMARK    4  A    between atoms: S_19  and  C_20
REMARK    5  A    between atoms: C_20  and  C_23
REMARK                            x       y       z     vdW  Elec       q    Type
REMARK                         _______ _______ _______ _____ _____    ______ ____
ROOT
ATOM      1  O   UNL     1       0.529   9.489  17.847  0.00  0.00    +0.000 OA
ATOM      2  C   UNL     1       0.869   9.491  19.030  0.00  0.00    +0.000 C 
ATOM      3  N   UNL     1       0.382  10.494  19.838  0.00  0.00    +0.000 N 
ATOM      4  C   UNL     1       0.603  10.677  21.189  0.00  0.00    +0.000 C 
ATOM      5  O   UNL     1       1.283   9.898  21.856  0.00  0.00    +0.000 OA
ATOM      6  N   UNL     1       1.697   8.581  19.634  0.00  0.00    +0.000 N 
ATOM      7  H   UNL     1      -0.218  11.136  19.339  0.00  0.00    +0.000 HD
ATOM      8  H   UNL     1       1.739   8.626  20.654  0.00  0.00    +0.000 HD
ENDROOT
BRANCH   4   9
ATOM      9  C   UNL     1      -0.030  11.833  21.845  0.00  0.00    +0.000 A 
ATOM     10  C   UNL     1       0.321  13.145  21.538  0.00  0.00    +0.000 A 
ATOM     11  F   UNL     1       1.318  13.402  20.680  0.00  0.00    +0.000 F 
ATOM     12  C   UNL     1      -0.366  14.224  22.098  0.00  0.00    +0.000 A 
ATOM     13  C   UNL     1      -1.414  13.994  22.989  0.00  0.00    +0.000 A 
ATOM     14  C   UNL     1      -1.755  12.685  23.328  0.00  0.00    +0.000 A 
ATOM     15  C   UNL     1      -1.065  11.617  22.758  0.00  0.00    +0.000 A 
ATOM     16  F   UNL     1      -1.413  10.378  23.136  0.00  0.00    +0.000 F 
ENDBRANCH   4   9
BRANCH   6  17
ATOM     17  C   UNL     1       2.467   7.574  19.020  0.00  0.00    +0.000 A 
ATOM     18  C   UNL     1       3.164   7.771  17.830  0.00  0.00    +0.000 A 
ATOM     19  C   UNL     1       3.986   6.760  17.315  0.00  0.00    +0.000 A 
ATOM     20  C   UNL     1       4.123   5.535  17.976  0.00  0.00    +0.000 A 
ATOM     21  C   UNL     1       3.384   5.314  19.140  0.00  0.00    +0.000 A 
ATOM     22  C   UNL     1       2.581   6.332  19.656  0.00  0.00    +0.000 A 
ATOM     23  F   UNL     1       1.889   6.093  20.782  0.00  0.00    +0.000 F 
BRANCH  20  24
ATOM     24  S   UNL     1       5.177   4.288  17.263  0.00  0.00    +0.000 S 
BRANCH  24  25
ATOM     25  C   UNL     1       6.778   5.176  17.214  0.00  0.00    +0.000 C 
ATOM     26  F   UNL     1       7.784   4.296  16.960  0.00  0.00    +0.000 F 
ATOM     27  F   UNL     1       6.765   6.062  16.179  0.00  0.00    +0.000 F 
BRANCH  25  28
ATOM     28  C   UNL     1       7.040   5.933  18.520  0.00  0.00    +0.000 C 
ATOM     29  F   UNL     1       8.000   5.331  19.273  0.00  0.00    +0.000 F 
ATOM     30  F   UNL     1       7.493   7.192  18.269  0.00  0.00    +0.000 F 
ENDBRANCH  25  28
ENDBRANCH  24  25
ENDBRANCH  20  24
ENDBRANCH   6  17
TORSDOF 5
ENDMDL
