MODEL 1
REMARK VINA RESULT:      -7.7      0.000      0.000
REMARK  Name = 
REMARK  9 active torsions:
REMARK  status: ('A' for Active; 'I' for Inactive)
REMARK    1  A    between atoms: C_2  and  C_3
REMARK    2  A    between atoms: C_3  and  N_4
REMARK    3  A    between atoms: C_5  and  C_7
REMARK    4  A    between atoms: C_7  and  N_8
REMARK    5  A    between atoms: N_8  and  C_9
REMARK    6  A    between atoms: N_8  and  S_17
REMARK    7  A    between atoms: C_9  and  C_10
REMARK    8  A    between atoms: C_10  and  C_11
REMARK    9  A    between atoms: S_17  and  C_20
REMARK                            x       y       z     vdW  Elec       q    Type
REMARK                         _______ _______ _______ _____ _____    ______ ____
ROOT
ATOM      1  N   UNL     1       5.355   4.404  16.834  0.00  0.00    +0.000 NA
ENDROOT
BRANCH   1   2
ATOM      2  S   UNL     1       5.740   5.497  18.126  0.00  0.00    +0.000 S 
ATOM      3  O   UNL     1       5.964   4.727  19.330  0.00  0.00    +0.000 OA
ATOM      4  O   UNL     1       6.743   6.405  17.615  0.00  0.00    +0.000 OA
BRANCH   2   5
ATOM      5  C   UNL     1       4.248   6.411  18.395  0.00  0.00    +0.000 A 
ATOM      6  C   UNL     1       3.822   7.315  17.419  0.00  0.00    +0.000 A 
ATOM      7  C   UNL     1       2.659   8.052  17.640  0.00  0.00    +0.000 A 
ATOM      8  C   UNL     1       1.931   7.875  18.819  0.00  0.00    +0.000 A 
ATOM      9  C   UNL     1       2.357   6.958  19.782  0.00  0.00    +0.000 A 
ATOM     10  C   UNL     1       3.519   6.220  19.573  0.00  0.00    +0.000 A 
ENDBRANCH   2   5
ENDBRANCH   1   2
BRANCH   1  11
ATOM     11  C   UNL     1       6.587   3.963  16.086  0.00  0.00    +0.000 C 
BRANCH  11  13
ATOM     12  N   UNL     1       6.348   3.332  13.729  0.00  0.00    +0.000 N 
ATOM     13  C   UNL     1       6.629   4.349  14.615  0.00  0.00    +0.000 C 
ATOM     14  O   UNL     1       6.842   5.508  14.263  0.00  0.00    +0.000 OA
ATOM     15  H   UNL     1       6.197   2.395  14.083  0.00  0.00    +0.000 HD
BRANCH  12  16
ATOM     16  C   UNL     1       6.192   3.576  12.314  0.00  0.00    +0.000 C 
BRANCH  16  18
ATOM     17  C   UNL     1       4.051   2.956  11.162  0.00  0.00    +0.000 C 
ATOM     18  C   UNL     1       4.737   3.730  12.016  0.00  0.00    +0.000 C 
ENDBRANCH  16  18
ENDBRANCH  12  16
ENDBRANCH  11  13
ENDBRANCH   1  11
BRANCH   1  19
ATOM     19  C   UNL     1       4.614   3.172  17.333  0.00  0.00    +0.000 C 
BRANCH  19  20
ATOM     20  C   UNL     1       3.084   3.274  17.267  0.00  0.00    +0.000 C 
BRANCH  20  21
ATOM     21  C   UNL     1       2.475   3.140  18.643  0.00  0.00    +0.000 A 
ATOM     22  C   UNL     1       1.149   3.541  18.867  0.00  0.00    +0.000 A 
ATOM     23  C   UNL     1       0.595   3.469  20.145  0.00  0.00    +0.000 A 
ATOM     24  C   UNL     1       1.361   2.997  21.209  0.00  0.00    +0.000 A 
ATOM     25  C   UNL     1       2.675   2.586  20.995  0.00  0.00    +0.000 A 
ATOM     26  C   UNL     1       3.232   2.656  19.716  0.00  0.00    +0.000 A 
ENDBRANCH  20  21
ENDBRANCH  19  20
ENDBRANCH   1  19
TORSDOF 9
ENDMDL
MODEL 2
REMARK VINA RESULT:      -7.6      0.656      1.514
REMARK  Name = 
REMARK  9 active torsions:
REMARK  status: ('A' for Active; 'I' for Inactive)
REMARK    1  A    between atoms: C_2  and  C_3
REMARK    2  A    between atoms: C_3  and  N_4
REMARK    3  A    between atoms: C_5  and  C_7
REMARK    4  A    between atoms: C_7  and  N_8
REMARK    5  A    between atoms: N_8  and  C_9
REMARK    6  A    between atoms: N_8  and  S_17
REMARK    7  A    between atoms: C_9  and  C_10
REMARK    8  A    between atoms: C_10  and  C_11
REMARK    9  A    between atoms: S_17  and  C_20
REMARK                            x       y       z     vdW  Elec       q    Type
REMARK                         _______ _______ _______ _____ _____    ______ ____
ROOT
ATOM      1  N   UNL     1       4.912   4.968  16.373  0.00  0.00    +0.000 NA
ENDROOT
BRANCH   1   2
ATOM      2  S   UNL     1       5.447   6.052  17.618  0.00  0.00    +0.000 S 
ATOM      3  O   UNL     1       5.957   5.270  18.723  0.00  0.00    +0.000 OA
ATOM      4  O   UNL     1       6.257   7.060  16.971  0.00  0.00    +0.000 OA
BRANCH   2   5
ATOM      5  C   UNL     1       3.963   6.823  18.203  0.00  0.00    +0.000 A 
ATOM      6  C   UNL     1       3.418   6.406  19.420  0.00  0.00    +0.000 A 
ATOM      7  C   UNL     1       2.237   6.997  19.870  0.00  0.00    +0.000 A 
ATOM      8  C   UNL     1       1.621   7.996  19.113  0.00  0.00    +0.000 A 
ATOM      9  C   UNL     1       2.183   8.416  17.905  0.00  0.00    +0.000 A 
ATOM     10  C   UNL     1       3.359   7.830  17.445  0.00  0.00    +0.000 A 
ENDBRANCH   2   5
ENDBRANCH   1   2
BRANCH   1  11
ATOM     11  C   UNL     1       6.000   4.009  15.959  0.00  0.00    +0.000 C 
BRANCH  11  13
ATOM     12  N   UNL     1       6.100   3.265  13.626  0.00  0.00    +0.000 N 
ATOM     13  C   UNL     1       6.530   4.196  14.546  0.00  0.00    +0.000 C 
ATOM     14  O   UNL     1       7.244   5.152  14.251  0.00  0.00    +0.000 OA
ATOM     15  H   UNL     1       5.525   2.491  13.937  0.00  0.00    +0.000 HD
BRANCH  12  16
ATOM     16  C   UNL     1       6.386   3.399  12.216  0.00  0.00    +0.000 C 
BRANCH  16  18
ATOM     17  C   UNL     1       4.091   3.200  11.222  0.00  0.00    +0.000 C 
ATOM     18  C   UNL     1       5.315   2.700  11.445  0.00  0.00    +0.000 C 
ENDBRANCH  16  18
ENDBRANCH  12  16
ENDBRANCH  11  13
ENDBRANCH   1  11
BRANCH   1  19
ATOM     19  C   UNL     1       3.688   4.171  16.800  0.00  0.00    +0.000 C 
BRANCH  19  20
ATOM     20  C   UNL     1       3.985   2.994  17.739  0.00  0.00    +0.000 C 
BRANCH  20  21
ATOM     21  C   UNL     1       3.052   3.003  18.927  0.00  0.00    +0.000 A 
ATOM     22  C   UNL     1       3.550   2.750  20.214  0.00  0.00    +0.000 A 
ATOM     23  C   UNL     1       2.688   2.706  21.310  0.00  0.00    +0.000 A 
ATOM     24  C   UNL     1       1.322   2.914  21.128  0.00  0.00    +0.000 A 
ATOM     25  C   UNL     1       0.819   3.176  19.855  0.00  0.00    +0.000 A 
ATOM     26  C   UNL     1       1.680   3.222  18.757  0.00  0.00    +0.000 A 
ENDBRANCH  20  21
ENDBRANCH  19  20
ENDBRANCH   1  19
TORSDOF 9
ENDMDL
MODEL 3
REMARK VINA RESULT:      -7.6      0.912      1.376
REMARK  Name = 
REMARK  9 active torsions:
REMARK  status: ('A' for Active; 'I' for Inactive)
REMARK    1  A    between atoms: C_2  and  C_3
REMARK    2  A    between atoms: C_3  and  N_4
REMARK    3  A    between atoms: C_5  and  C_7
REMARK    4  A    between atoms: C_7  and  N_8
REMARK    5  A    between atoms: N_8  and  C_9
REMARK    6  A    between atoms: N_8  and  S_17
REMARK    7  A    between atoms: C_9  and  C_10
REMARK    8  A    between atoms: C_10  and  C_11
REMARK    9  A    between atoms: S_17  and  C_20
REMARK                            x       y       z     vdW  Elec       q    Type
REMARK                         _______ _______ _______ _____ _____    ______ ____
ROOT
ATOM      1  N   UNL     1       4.885   4.859  16.281  0.00  0.00    +0.000 NA
ENDROOT
BRANCH   1   2
ATOM      2  S   UNL     1       5.469   5.961  17.487  0.00  0.00    +0.000 S 
ATOM      3  O   UNL     1       6.078   5.197  18.554  0.00  0.00    +0.000 OA
ATOM      4  O   UNL     1       6.202   6.993  16.787  0.00  0.00    +0.000 OA
BRANCH   2   5
ATOM      5  C   UNL     1       4.006   6.686  18.172  0.00  0.00    +0.000 A 
ATOM      6  C   UNL     1       3.519   6.206  19.390  0.00  0.00    +0.000 A 
ATOM      7  C   UNL     1       2.353   6.761  19.919  0.00  0.00    +0.000 A 
ATOM      8  C   UNL     1       1.695   7.788  19.238  0.00  0.00    +0.000 A 
ATOM      9  C   UNL     1       2.199   8.271  18.028  0.00  0.00    +0.000 A 
ATOM     10  C   UNL     1       3.360   7.721  17.490  0.00  0.00    +0.000 A 
ENDBRANCH   2   5
ENDBRANCH   1   2
BRANCH   1  11
ATOM     11  C   UNL     1       5.957   3.897  15.834  0.00  0.00    +0.000 C 
BRANCH  11  13
ATOM     12  N   UNL     1       6.138   3.164  13.502  0.00  0.00    +0.000 N 
ATOM     13  C   UNL     1       6.489   4.122  14.427  0.00  0.00    +0.000 C 
ATOM     14  O   UNL     1       7.137   5.127  14.141  0.00  0.00    +0.000 OA
ATOM     15  H   UNL     1       5.616   2.351  13.806  0.00  0.00    +0.000 HD
BRANCH  12  16
ATOM     16  C   UNL     1       6.431   3.319  12.096  0.00  0.00    +0.000 C 
BRANCH  16  18
ATOM     17  C   UNL     1       6.439   1.011  11.112  0.00  0.00    +0.000 C 
ATOM     18  C   UNL     1       5.821   2.176  11.354  0.00  0.00    +0.000 C 
ENDBRANCH  16  18
ENDBRANCH  12  16
ENDBRANCH  11  13
ENDBRANCH   1  11
BRANCH   1  19
ATOM     19  C   UNL     1       3.683   4.065  16.770  0.00  0.00    +0.000 C 
BRANCH  19  20
ATOM     20  C   UNL     1       4.024   2.895  17.703  0.00  0.00    +0.000 C 
BRANCH  20  21
ATOM     21  C   UNL     1       3.085   2.857  18.886  0.00  0.00    +0.000 A 
ATOM     22  C   UNL     1       1.709   3.065  18.698  0.00  0.00    +0.000 A 
ATOM     23  C   UNL     1       0.842   3.083  19.790  0.00  0.00    +0.000 A 
ATOM     24  C   UNL     1       1.340   2.893  21.077  0.00  0.00    +0.000 A 
ATOM     25  C   UNL     1       2.703   2.676  21.273  0.00  0.00    +0.000 A 
ATOM     26  C   UNL     1       3.573   2.657  20.181  0.00  0.00    +0.000 A 
ENDBRANCH  20  21
ENDBRANCH  19  20
ENDBRANCH   1  19
TORSDOF 9
ENDMDL
MODEL 4
REMARK VINA RESULT:      -7.4      0.665      1.613
REMARK  Name = 
REMARK  9 active torsions:
REMARK  status: ('A' for Active; 'I' for Inactive)
REMARK    1  A    between atoms: C_2  and  C_3
REMARK    2  A    between atoms: C_3  and  N_4
REMARK    3  A    between atoms: C_5  and  C_7
REMARK    4  A    between atoms: C_7  and  N_8
REMARK    5  A    between atoms: N_8  and  C_9
REMARK    6  A    between atoms: N_8  and  S_17
REMARK    7  A    between atoms: C_9  and  C_10
REMARK    8  A    between atoms: C_10  and  C_11
REMARK    9  A    between atoms: S_17  and  C_20
REMARK                            x       y       z     vdW  Elec       q    Type
REMARK                         _______ _______ _______ _____ _____    ______ ____
ROOT
ATOM      1  N   UNL     1       5.612   4.556  16.700  0.00  0.00    +0.000 NA
ENDROOT
BRANCH   1   2
ATOM      2  S   UNL     1       5.905   5.546  18.094  0.00  0.00    +0.000 S 
ATOM      3  O   UNL     1       6.057   4.685  19.247  0.00  0.00    +0.000 OA
ATOM      4  O   UNL     1       6.932   6.494  17.722  0.00  0.00    +0.000 OA
BRANCH   2   5
ATOM      5  C   UNL     1       4.392   6.433  18.336  0.00  0.00    +0.000 A 
ATOM      6  C   UNL     1       3.613   6.149  19.460  0.00  0.00    +0.000 A 
ATOM      7  C   UNL     1       2.409   6.831  19.640  0.00  0.00    +0.000 A 
ATOM      8  C   UNL     1       2.002   7.789  18.708  0.00  0.00    +0.000 A 
ATOM      9  C   UNL     1       2.795   8.076  17.595  0.00  0.00    +0.000 A 
ATOM     10  C   UNL     1       3.997   7.398  17.405  0.00  0.00    +0.000 A 
ENDBRANCH   2   5
ENDBRANCH   1   2
BRANCH   1  11
ATOM     11  C   UNL     1       6.888   4.226  15.968  0.00  0.00    +0.000 C 
BRANCH  11  13
ATOM     12  N   UNL     1       6.169   3.392  13.778  0.00  0.00    +0.000 N 
ATOM     13  C   UNL     1       6.834   4.390  14.457  0.00  0.00    +0.000 C 
ATOM     14  O   UNL     1       7.305   5.381  13.903  0.00  0.00    +0.000 OA
ATOM     15  H   UNL     1       5.817   2.593  14.291  0.00  0.00    +0.000 HD
BRANCH  12  16
ATOM     16  C   UNL     1       5.895   3.487  12.362  0.00  0.00    +0.000 C 
BRANCH  16  18
ATOM     17  C   UNL     1       7.138   1.750  11.045  0.00  0.00    +0.000 C 
ATOM     18  C   UNL     1       6.066   2.134  11.754  0.00  0.00    +0.000 C 
ENDBRANCH  16  18
ENDBRANCH  12  16
ENDBRANCH  11  13
ENDBRANCH   1  11
BRANCH   1  19
ATOM     19  C   UNL     1       4.901   3.260  17.061  0.00  0.00    +0.000 C 
BRANCH  19  20
ATOM     20  C   UNL     1       3.372   3.311  16.936  0.00  0.00    +0.000 C 
BRANCH  20  21
ATOM     21  C   UNL     1       2.715   3.142  18.285  0.00  0.00    +0.000 A 
ATOM     22  C   UNL     1       3.454   2.646  19.370  0.00  0.00    +0.000 A 
ATOM     23  C   UNL     1       2.842   2.438  20.606  0.00  0.00    +0.000 A 
ATOM     24  C   UNL     1       1.488   2.723  20.768  0.00  0.00    +0.000 A 
ATOM     25  C   UNL     1       0.748   3.226  19.699  0.00  0.00    +0.000 A 
ATOM     26  C   UNL     1       1.358   3.436  18.462  0.00  0.00    +0.000 A 
ENDBRANCH  20  21
ENDBRANCH  19  20
ENDBRANCH   1  19
TORSDOF 9
ENDMDL
MODEL 5
REMARK VINA RESULT:      -7.3      0.552      1.113
REMARK  Name = 
REMARK  9 active torsions:
REMARK  status: ('A' for Active; 'I' for Inactive)
REMARK    1  A    between atoms: C_2  and  C_3
REMARK    2  A    between atoms: C_3  and  N_4
REMARK    3  A    between atoms: C_5  and  C_7
REMARK    4  A    between atoms: C_7  and  N_8
REMARK    5  A    between atoms: N_8  and  C_9
REMARK    6  A    between atoms: N_8  and  S_17
REMARK    7  A    between atoms: C_9  and  C_10
REMARK    8  A    between atoms: C_10  and  C_11
REMARK    9  A    between atoms: S_17  and  C_20
REMARK                            x       y       z     vdW  Elec       q    Type
REMARK                         _______ _______ _______ _____ _____    ______ ____
ROOT
ATOM      1  N   UNL     1       4.951   4.951  16.479  0.00  0.00    +0.000 NA
ENDROOT
BRANCH   1   2
ATOM      2  S   UNL     1       5.428   5.939  17.823  0.00  0.00    +0.000 S 
ATOM      3  O   UNL     1       5.817   5.074  18.916  0.00  0.00    +0.000 OA
ATOM      4  O   UNL     1       6.328   6.944  17.300  0.00  0.00    +0.000 OA
BRANCH   2   5
ATOM      5  C   UNL     1       3.935   6.742  18.336  0.00  0.00    +0.000 A 
ATOM      6  C   UNL     1       3.390   7.739  17.523  0.00  0.00    +0.000 A 
ATOM      7  C   UNL     1       2.226   8.388  17.937  0.00  0.00    +0.000 A 
ATOM      8  C   UNL     1       1.618   8.034  19.144  0.00  0.00    +0.000 A 
ATOM      9  C   UNL     1       2.164   7.026  19.942  0.00  0.00    +0.000 A 
ATOM     10  C   UNL     1       3.327   6.374  19.539  0.00  0.00    +0.000 A 
ENDBRANCH   2   5
ENDBRANCH   1   2
BRANCH   1  11
ATOM     11  C   UNL     1       6.062   4.033  16.034  0.00  0.00    +0.000 C 
BRANCH  11  13
ATOM     12  N   UNL     1       5.967   3.240  13.717  0.00  0.00    +0.000 N 
ATOM     13  C   UNL     1       6.485   4.180  14.581  0.00  0.00    +0.000 C 
ATOM     14  O   UNL     1       7.195   5.114  14.212  0.00  0.00    +0.000 OA
ATOM     15  H   UNL     1       5.402   2.485  14.088  0.00  0.00    +0.000 HD
BRANCH  12  16
ATOM     16  C   UNL     1       6.147   3.339  12.287  0.00  0.00    +0.000 C 
BRANCH  16  18
ATOM     17  C   UNL     1       3.969   2.935  11.110  0.00  0.00    +0.000 C 
ATOM     18  C   UNL     1       4.855   3.768  11.674  0.00  0.00    +0.000 C 
ENDBRANCH  16  18
ENDBRANCH  12  16
ENDBRANCH  11  13
ENDBRANCH   1  11
BRANCH   1  19
ATOM     19  C   UNL     1       3.718   4.116  16.795  0.00  0.00    +0.000 C 
BRANCH  19  20
ATOM     20  C   UNL     1       3.975   2.923  17.726  0.00  0.00    +0.000 C 
BRANCH  20  21
ATOM     21  C   UNL     1       3.038   2.952  18.911  0.00  0.00    +0.000 A 
ATOM     22  C   UNL     1       3.526   2.688  20.200  0.00  0.00    +0.000 A 
ATOM     23  C   UNL     1       2.658   2.662  21.292  0.00  0.00    +0.000 A 
ATOM     24  C   UNL     1       1.298   2.899  21.106  0.00  0.00    +0.000 A 
ATOM     25  C   UNL     1       0.806   3.173  19.831  0.00  0.00    +0.000 A 
ATOM     26  C   UNL     1       1.672   3.200  18.736  0.00  0.00    +0.000 A 
ENDBRANCH  20  21
ENDBRANCH  19  20
ENDBRANCH   1  19
TORSDOF 9
ENDMDL
MODEL 6
REMARK VINA RESULT:      -7.3      2.006      2.739
REMARK  Name = 
REMARK  9 active torsions:
REMARK  status: ('A' for Active; 'I' for Inactive)
REMARK    1  A    between atoms: C_2  and  C_3
REMARK    2  A    between atoms: C_3  and  N_4
REMARK    3  A    between atoms: C_5  and  C_7
REMARK    4  A    between atoms: C_7  and  N_8
REMARK    5  A    between atoms: N_8  and  C_9
REMARK    6  A    between atoms: N_8  and  S_17
REMARK    7  A    between atoms: C_9  and  C_10
REMARK    8  A    between atoms: C_10  and  C_11
REMARK    9  A    between atoms: S_17  and  C_20
REMARK                            x       y       z     vdW  Elec       q    Type
REMARK                         _______ _______ _______ _____ _____    ______ ____
ROOT
ATOM      1  N   UNL     1       4.920   4.450  16.175  0.00  0.00    +0.000 NA
ENDROOT
BRANCH   1   2
ATOM      2  S   UNL     1       4.783   6.112  16.651  0.00  0.00    +0.000 S 
ATOM      3  O   UNL     1       4.918   6.943  15.474  0.00  0.00    +0.000 OA
ATOM      4  O   UNL     1       3.621   6.203  17.508  0.00  0.00    +0.000 OA
BRANCH   2   5
ATOM      5  C   UNL     1       6.224   6.413  17.636  0.00  0.00    +0.000 A 
ATOM      6  C   UNL     1       6.499   5.564  18.710  0.00  0.00    +0.000 A 
ATOM      7  C   UNL     1       7.621   5.814  19.500  0.00  0.00    +0.000 A 
ATOM      8  C   UNL     1       8.457   6.894  19.208  0.00  0.00    +0.000 A 
ATOM      9  C   UNL     1       8.181   7.729  18.122  0.00  0.00    +0.000 A 
ATOM     10  C   UNL     1       7.061   7.490  17.330  0.00  0.00    +0.000 A 
ENDBRANCH   2   5
ENDBRANCH   1   2
BRANCH   1  11
ATOM     11  C   UNL     1       6.320   4.107  15.730  0.00  0.00    +0.000 C 
BRANCH  11  13
ATOM     12  N   UNL     1       6.059   3.248  13.449  0.00  0.00    +0.000 N 
ATOM     13  C   UNL     1       6.582   4.249  14.239  0.00  0.00    +0.000 C 
ATOM     14  O   UNL     1       7.171   5.227  13.782  0.00  0.00    +0.000 OA
ATOM     15  H   UNL     1       5.598   2.461  13.890  0.00  0.00    +0.000 HD
BRANCH  12  16
ATOM     16  C   UNL     1       6.086   3.323  12.007  0.00  0.00    +0.000 C 
BRANCH  16  18
ATOM     17  C   UNL     1       3.870   3.577  10.859  0.00  0.00    +0.000 C 
ATOM     18  C   UNL     1       4.784   2.818  11.480  0.00  0.00    +0.000 C 
ENDBRANCH  16  18
ENDBRANCH  12  16
ENDBRANCH  11  13
ENDBRANCH   1  11
BRANCH   1  19
ATOM     19  C   UNL     1       4.513   3.502  17.294  0.00  0.00    +0.000 C 
BRANCH  19  20
ATOM     20  C   UNL     1       3.031   3.105  17.289  0.00  0.00    +0.000 C 
BRANCH  20  21
ATOM     21  C   UNL     1       2.488   3.031  18.697  0.00  0.00    +0.000 A 
ATOM     22  C   UNL     1       1.128   3.278  18.940  0.00  0.00    +0.000 A 
ATOM     23  C   UNL     1       0.628   3.263  20.242  0.00  0.00    +0.000 A 
ATOM     24  C   UNL     1       1.483   3.002  21.311  0.00  0.00    +0.000 A 
ATOM     25  C   UNL     1       2.833   2.745  21.079  0.00  0.00    +0.000 A 
ATOM     26  C   UNL     1       3.335   2.759  19.777  0.00  0.00    +0.000 A 
ENDBRANCH  20  21
ENDBRANCH  19  20
ENDBRANCH   1  19
TORSDOF 9
ENDMDL
MODEL 7
REMARK VINA RESULT:      -7.3      2.752      5.436
REMARK  Name = 
REMARK  9 active torsions:
REMARK  status: ('A' for Active; 'I' for Inactive)
REMARK    1  A    between atoms: C_2  and  C_3
REMARK    2  A    between atoms: C_3  and  N_4
REMARK    3  A    between atoms: C_5  and  C_7
REMARK    4  A    between atoms: C_7  and  N_8
REMARK    5  A    between atoms: N_8  and  C_9
REMARK    6  A    between atoms: N_8  and  S_17
REMARK    7  A    between atoms: C_9  and  C_10
REMARK    8  A    between atoms: C_10  and  C_11
REMARK    9  A    between atoms: S_17  and  C_20
REMARK                            x       y       z     vdW  Elec       q    Type
REMARK                         _______ _______ _______ _____ _____    ______ ____
ROOT
ATOM      1  N   UNL     1       4.511   5.861  17.989  0.00  0.00    +0.000 NA
ENDROOT
BRANCH   1   2
ATOM      2  S   UNL     1       4.572   4.144  18.235  0.00  0.00    +0.000 S 
ATOM      3  O   UNL     1       4.531   3.491  16.945  0.00  0.00    +0.000 OA
ATOM      4  O   UNL     1       5.647   3.897  19.170  0.00  0.00    +0.000 OA
BRANCH   2   5
ATOM      5  C   UNL     1       3.040   3.756  19.034  0.00  0.00    +0.000 A 
ATOM      6  C   UNL     1       2.829   4.194  20.343  0.00  0.00    +0.000 A 
ATOM      7  C   UNL     1       1.632   3.870  20.982  0.00  0.00    +0.000 A 
ATOM      8  C   UNL     1       0.661   3.123  20.311  0.00  0.00    +0.000 A 
ATOM      9  C   UNL     1       0.875   2.702  18.996  0.00  0.00    +0.000 A 
ATOM     10  C   UNL     1       2.068   3.018  18.351  0.00  0.00    +0.000 A 
ENDBRANCH   2   5
ENDBRANCH   1   2
BRANCH   1  11
ATOM     11  C   UNL     1       5.349   6.289  16.810  0.00  0.00    +0.000 C 
BRANCH  11  13
ATOM     12  N   UNL     1       7.052   7.945  17.413  0.00  0.00    +0.000 N 
ATOM     13  C   UNL     1       6.798   6.621  17.128  0.00  0.00    +0.000 C 
ATOM     14  O   UNL     1       7.659   5.745  17.180  0.00  0.00    +0.000 OA
ATOM     15  H   UNL     1       6.302   8.620  17.336  0.00  0.00    +0.000 HD
BRANCH  12  16
ATOM     16  C   UNL     1       8.343   8.387  17.887  0.00  0.00    +0.000 C 
BRANCH  16  18
ATOM     17  C   UNL     1       9.304  10.598  18.584  0.00  0.00    +0.000 C 
ATOM     18  C   UNL     1       8.276   9.856  18.146  0.00  0.00    +0.000 C 
ENDBRANCH  16  18
ENDBRANCH  12  16
ENDBRANCH  11  13
ENDBRANCH   1  11
BRANCH   1  19
ATOM     19  C   UNL     1       3.086   6.356  17.787  0.00  0.00    +0.000 C 
BRANCH  19  20
ATOM     20  C   UNL     1       2.938   7.884  17.753  0.00  0.00    +0.000 C 
BRANCH  20  21
ATOM     21  C   UNL     1       1.998   8.358  18.836  0.00  0.00    +0.000 A 
ATOM     22  C   UNL     1       1.209   9.501  18.631  0.00  0.00    +0.000 A 
ATOM     23  C   UNL     1       0.377   9.976  19.645  0.00  0.00    +0.000 A 
ATOM     24  C   UNL     1       0.327   9.315  20.870  0.00  0.00    +0.000 A 
ATOM     25  C   UNL     1       1.099   8.174  21.080  0.00  0.00    +0.000 A 
ATOM     26  C   UNL     1       1.932   7.695  20.066  0.00  0.00    +0.000 A 
ENDBRANCH  20  21
ENDBRANCH  19  20
ENDBRANCH   1  19
TORSDOF 9
ENDMDL
MODEL 8
REMARK VINA RESULT:      -7.3      1.653      5.966
REMARK  Name = 
REMARK  9 active torsions:
REMARK  status: ('A' for Active; 'I' for Inactive)
REMARK    1  A    between atoms: C_2  and  C_3
REMARK    2  A    between atoms: C_3  and  N_4
REMARK    3  A    between atoms: C_5  and  C_7
REMARK    4  A    between atoms: C_7  and  N_8
REMARK    5  A    between atoms: N_8  and  C_9
REMARK    6  A    between atoms: N_8  and  S_17
REMARK    7  A    between atoms: C_9  and  C_10
REMARK    8  A    between atoms: C_10  and  C_11
REMARK    9  A    between atoms: S_17  and  C_20
REMARK                            x       y       z     vdW  Elec       q    Type
REMARK                         _______ _______ _______ _____ _____    ______ ____
ROOT
ATOM      1  N   UNL     1       5.407   5.391  16.996  0.00  0.00    +0.000 NA
ENDROOT
BRANCH   1   2
ATOM      2  S   UNL     1       7.041   5.379  16.411  0.00  0.00    +0.000 S 
ATOM      3  O   UNL     1       7.524   6.742  16.366  0.00  0.00    +0.000 OA
ATOM      4  O   UNL     1       7.741   4.356  17.157  0.00  0.00    +0.000 OA
BRANCH   2   5
ATOM      5  C   UNL     1       6.907   4.846  14.728  0.00  0.00    +0.000 A 
ATOM      6  C   UNL     1       5.925   3.912  14.390  0.00  0.00    +0.000 A 
ATOM      7  C   UNL     1       5.833   3.474  13.069  0.00  0.00    +0.000 A 
ATOM      8  C   UNL     1       6.709   3.975  12.103  0.00  0.00    +0.000 A 
ATOM      9  C   UNL     1       7.678   4.920  12.448  0.00  0.00    +0.000 A 
ATOM     10  C   UNL     1       7.780   5.361  13.765  0.00  0.00    +0.000 A 
ENDBRANCH   2   5
ENDBRANCH   1   2
BRANCH   1  11
ATOM     11  C   UNL     1       5.209   4.416  18.129  0.00  0.00    +0.000 C 
BRANCH  11  13
ATOM     12  N   UNL     1       3.607   2.927  19.235  0.00  0.00    +0.000 N 
ATOM     13  C   UNL     1       3.914   3.620  18.085  0.00  0.00    +0.000 C 
ATOM     14  O   UNL     1       3.175   3.653  17.103  0.00  0.00    +0.000 OA
ATOM     15  H   UNL     1       4.267   2.927  20.004  0.00  0.00    +0.000 HD
BRANCH  12  16
ATOM     16  C   UNL     1       2.339   2.257  19.405  0.00  0.00    +0.000 C 
BRANCH  16  18
ATOM     17  C   UNL     1       2.119   3.854  21.328  0.00  0.00    +0.000 C 
ATOM     18  C   UNL     1       1.599   2.916  20.523  0.00  0.00    +0.000 C 
ENDBRANCH  16  18
ENDBRANCH  12  16
ENDBRANCH  11  13
ENDBRANCH   1  11
BRANCH   1  19
ATOM     19  C   UNL     1       4.978   6.776  17.457  0.00  0.00    +0.000 C 
BRANCH  19  20
ATOM     20  C   UNL     1       3.604   7.226  16.943  0.00  0.00    +0.000 C 
BRANCH  20  21
ATOM     21  C   UNL     1       2.732   7.703  18.080  0.00  0.00    +0.000 A 
ATOM     22  C   UNL     1       2.057   8.930  17.982  0.00  0.00    +0.000 A 
ATOM     23  C   UNL     1       1.291   9.402  19.048  0.00  0.00    +0.000 A 
ATOM     24  C   UNL     1       1.194   8.655  20.220  0.00  0.00    +0.000 A 
ATOM     25  C   UNL     1       1.853   7.431  20.323  0.00  0.00    +0.000 A 
ATOM     26  C   UNL     1       2.619   6.955  19.258  0.00  0.00    +0.000 A 
ENDBRANCH  20  21
ENDBRANCH  19  20
ENDBRANCH   1  19
TORSDOF 9
ENDMDL
MODEL 9
REMARK VINA RESULT:      -7.2      1.009      1.556
REMARK  Name = 
REMARK  9 active torsions:
REMARK  status: ('A' for Active; 'I' for Inactive)
REMARK    1  A    between atoms: C_2  and  C_3
REMARK    2  A    between atoms: C_3  and  N_4
REMARK    3  A    between atoms: C_5  and  C_7
REMARK    4  A    between atoms: C_7  and  N_8
REMARK    5  A    between atoms: N_8  and  C_9
REMARK    6  A    between atoms: N_8  and  S_17
REMARK    7  A    between atoms: C_9  and  C_10
REMARK    8  A    between atoms: C_10  and  C_11
REMARK    9  A    between atoms: S_17  and  C_20
REMARK                            x       y       z     vdW  Elec       q    Type
REMARK                         _______ _______ _______ _____ _____    ______ ____
ROOT
ATOM      1  N   UNL     1       5.265   4.682  16.313  0.00  0.00    +0.000 NA
ENDROOT
BRANCH   1   2
ATOM      2  S   UNL     1       5.429   6.373  16.668  0.00  0.00    +0.000 S 
ATOM      3  O   UNL     1       6.652   6.572  17.415  0.00  0.00    +0.000 OA
ATOM      4  O   UNL     1       5.178   7.082  15.432  0.00  0.00    +0.000 OA
BRANCH   2   5
ATOM      5  C   UNL     1       4.103   6.723  17.789  0.00  0.00    +0.000 A 
ATOM      6  C   UNL     1       3.069   7.564  17.372  0.00  0.00    +0.000 A 
ATOM      7  C   UNL     1       2.035   7.858  18.262  0.00  0.00    +0.000 A 
ATOM      8  C   UNL     1       2.039   7.307  19.546  0.00  0.00    +0.000 A 
ATOM      9  C   UNL     1       3.070   6.455  19.947  0.00  0.00    +0.000 A 
ATOM     10  C   UNL     1       4.108   6.158  19.068  0.00  0.00    +0.000 A 
ENDBRANCH   2   5
ENDBRANCH   1   2
BRANCH   1  11
ATOM     11  C   UNL     1       6.545   4.095  15.775  0.00  0.00    +0.000 C 
BRANCH  11  13
ATOM     12  N   UNL     1       6.216   3.284  13.486  0.00  0.00    +0.000 N 
ATOM     13  C   UNL     1       6.763   4.268  14.280  0.00  0.00    +0.000 C 
ATOM     14  O   UNL     1       7.339   5.255  13.827  0.00  0.00    +0.000 OA
ATOM     15  H   UNL     1       5.767   2.488  13.923  0.00  0.00    +0.000 HD
BRANCH  12  16
ATOM     16  C   UNL     1       6.199   3.390  12.045  0.00  0.00    +0.000 C 
BRANCH  16  18
ATOM     17  C   UNL     1       6.382   1.087  11.067  0.00  0.00    +0.000 C 
ATOM     18  C   UNL     1       5.641   2.125  11.482  0.00  0.00    +0.000 C 
ENDBRANCH  16  18
ENDBRANCH  12  16
ENDBRANCH  11  13
ENDBRANCH   1  11
BRANCH   1  19
ATOM     19  C   UNL     1       4.832   3.885  17.535  0.00  0.00    +0.000 C 
BRANCH  19  20
ATOM     20  C   UNL     1       3.507   3.129  17.370  0.00  0.00    +0.000 C 
BRANCH  20  21
ATOM     21  C   UNL     1       2.727   3.118  18.664  0.00  0.00    +0.000 A 
ATOM     22  C   UNL     1       3.340   2.685  19.850  0.00  0.00    +0.000 A 
ATOM     23  C   UNL     1       2.614   2.623  21.039  0.00  0.00    +0.000 A 
ATOM     24  C   UNL     1       1.270   2.992  21.053  0.00  0.00    +0.000 A 
ATOM     25  C   UNL     1       0.656   3.433  19.883  0.00  0.00    +0.000 A 
ATOM     26  C   UNL     1       1.381   3.497  18.691  0.00  0.00    +0.000 A 
ENDBRANCH  20  21
ENDBRANCH  19  20
ENDBRANCH   1  19
TORSDOF 9
ENDMDL
