MODEL 1
REMARK VINA RESULT:      -8.0      0.000      0.000
REMARK  Name = 
REMARK  5 active torsions:
REMARK  status: ('A' for Active; 'I' for Inactive)
REMARK    1  A    between atoms: C_1  and  C_2
REMARK    2  A    between atoms: N_9  and  C_10
REMARK    3  A    between atoms: C_16  and  C_17
REMARK    4  A    between atoms: C_20  and  C_21
REMARK    5  A    between atoms: C_21  and  O_23
REMARK                            x       y       z     vdW  Elec       q    Type
REMARK                         _______ _______ _______ _____ _____    ______ ____
ROOT
ATOM      1  C   UNL     1      -0.621   9.427  23.240  0.00  0.00    +0.000 C 
ATOM      2  C   UNL     1       0.159   9.395  21.950  0.00  0.00    +0.000 C 
ATOM      3  N   UNL     1      -0.368   9.957  20.917  0.00  0.00    +0.000 NA
ATOM      4  C   UNL     1       0.207   9.892  19.685  0.00  0.00    +0.000 A 
ATOM      5  C   UNL     1       1.249   9.114  19.388  0.00  0.00    +0.000 A 
ATOM      6  C   UNL     1       1.392   9.194  17.920  0.00  0.00    +0.000 A 
ATOM      7  O   UNL     1       2.312   8.725  17.273  0.00  0.00    +0.000 OA
ATOM      8  N   UNL     1       0.295   9.894  17.442  0.00  0.00    +0.000 N 
ATOM      9  N   UNL     1      -0.339  10.472  18.539  0.00  0.00    +0.000 N 
ATOM     10  C   UNL     1       2.051   8.264  20.279  0.00  0.00    +0.000 C 
ATOM     11  S   UNL     1       1.686   8.564  22.040  0.00  0.00    +0.000 S 
ATOM     12  H   UNL     1       0.333  10.372  16.547  0.00  0.00    +0.000 HD
ENDROOT
BRANCH   9  13
ATOM     13  C   UNL     1      -1.781  10.713  18.522  0.00  0.00    +0.000 C 
ATOM     14  C   UNL     1      -2.494  10.193  17.271  0.00  0.00    +0.000 C 
ATOM     15  C   UNL     1      -3.982  10.089  17.612  0.00  0.00    +0.000 C 
ATOM     16  C   UNL     1      -4.555  11.419  18.108  0.00  0.00    +0.000 C 
ATOM     17  C   UNL     1      -3.691  12.125  19.166  0.00  0.00    +0.000 C 
ATOM     18  C   UNL     1      -2.205  12.154  18.783  0.00  0.00    +0.000 C 
ENDBRANCH   9  13
BRANCH  10  19
ATOM     19  C   UNL     1       1.957   6.778  19.954  0.00  0.00    +0.000 A 
ATOM     20  C   UNL     1       2.562   6.297  18.784  0.00  0.00    +0.000 A 
ATOM     21  C   UNL     1       2.433   4.958  18.409  0.00  0.00    +0.000 A 
ATOM     22  C   UNL     1       1.694   4.066  19.193  0.00  0.00    +0.000 A 
ATOM     23  C   UNL     1       1.127   4.518  20.391  0.00  0.00    +0.000 A 
ATOM     24  C   UNL     1       1.259   5.865  20.766  0.00  0.00    +0.000 A 
BRANCH  22  25
ATOM     25  C   UNL     1       1.583   2.665  18.701  0.00  0.00    +0.000 C 
ATOM     26  O   UNL     1       2.567   1.994  18.416  0.00  0.00    +0.000 OA
BRANCH  25  27
ATOM     27  O   UNL     1       0.328   2.207  18.536  0.00  0.00    +0.000 OA
ATOM     28  H   UNL     1      -0.167   2.011  19.351  0.00  0.00    +0.000 HD
ENDBRANCH  25  27
ENDBRANCH  22  25
ENDBRANCH  10  19
TORSDOF 4
ENDMDL
MODEL 2
REMARK VINA RESULT:      -7.2      3.059      4.237
REMARK  Name = 
REMARK  5 active torsions:
REMARK  status: ('A' for Active; 'I' for Inactive)
REMARK    1  A    between atoms: C_1  and  C_2
REMARK    2  A    between atoms: N_9  and  C_10
REMARK    3  A    between atoms: C_16  and  C_17
REMARK    4  A    between atoms: C_20  and  C_21
REMARK    5  A    between atoms: C_21  and  O_23
REMARK                            x       y       z     vdW  Elec       q    Type
REMARK                         _______ _______ _______ _____ _____    ______ ____
ROOT
ATOM      1  C   UNL     1       1.557  14.451  21.578  0.00  0.00    +0.000 C 
ATOM      2  C   UNL     1       0.835  13.659  20.517  0.00  0.00    +0.000 C 
ATOM      3  N   UNL     1      -0.447  13.566  20.608  0.00  0.00    +0.000 NA
ATOM      4  C   UNL     1      -1.177  12.791  19.760  0.00  0.00    +0.000 A 
ATOM      5  C   UNL     1      -0.646  11.931  18.890  0.00  0.00    +0.000 A 
ATOM      6  C   UNL     1      -1.787  11.162  18.351  0.00  0.00    +0.000 A 
ATOM      7  O   UNL     1      -1.730  10.366  17.431  0.00  0.00    +0.000 OA
ATOM      8  N   UNL     1      -2.905  11.524  19.088  0.00  0.00    +0.000 N 
ATOM      9  N   UNL     1      -2.564  12.650  19.834  0.00  0.00    +0.000 N 
ATOM     10  C   UNL     1       0.769  11.693  18.573  0.00  0.00    +0.000 C 
ATOM     11  S   UNL     1       1.867  12.950  19.307  0.00  0.00    +0.000 S 
ATOM     12  H   UNL     1      -3.837  11.412  18.705  0.00  0.00    +0.000 HD
ENDROOT
BRANCH   9  13
ATOM     13  C   UNL     1      -3.205  12.910  21.122  0.00  0.00    +0.000 C 
ATOM     14  C   UNL     1      -2.612  12.121  22.293  0.00  0.00    +0.000 C 
ATOM     15  C   UNL     1      -3.041  12.834  23.578  0.00  0.00    +0.000 C 
ATOM     16  C   UNL     1      -4.562  12.982  23.675  0.00  0.00    +0.000 C 
ATOM     17  C   UNL     1      -5.230  13.496  22.390  0.00  0.00    +0.000 C 
ATOM     18  C   UNL     1      -4.722  12.771  21.136  0.00  0.00    +0.000 C 
ENDBRANCH   9  13
BRANCH  10  19
ATOM     19  C   UNL     1       1.247  10.289  18.925  0.00  0.00    +0.000 A 
ATOM     20  C   UNL     1       1.914   9.533  17.950  0.00  0.00    +0.000 A 
ATOM     21  C   UNL     1       2.298   8.215  18.205  0.00  0.00    +0.000 A 
ATOM     22  C   UNL     1       2.023   7.618  19.440  0.00  0.00    +0.000 A 
ATOM     23  C   UNL     1       1.404   8.375  20.442  0.00  0.00    +0.000 A 
ATOM     24  C   UNL     1       1.019   9.701  20.183  0.00  0.00    +0.000 A 
BRANCH  22  25
ATOM     25  C   UNL     1       2.440   6.198  19.613  0.00  0.00    +0.000 C 
ATOM     26  O   UNL     1       2.665   5.464  18.660  0.00  0.00    +0.000 OA
BRANCH  25  27
ATOM     27  O   UNL     1       2.497   5.763  20.886  0.00  0.00    +0.000 OA
ATOM     28  H   UNL     1       1.673   5.391  21.249  0.00  0.00    +0.000 HD
ENDBRANCH  25  27
ENDBRANCH  22  25
ENDBRANCH  10  19
TORSDOF 4
ENDMDL
MODEL 3
REMARK VINA RESULT:      -7.1      2.927      4.176
REMARK  Name = 
REMARK  5 active torsions:
REMARK  status: ('A' for Active; 'I' for Inactive)
REMARK    1  A    between atoms: C_1  and  C_2
REMARK    2  A    between atoms: N_9  and  C_10
REMARK    3  A    between atoms: C_16  and  C_17
REMARK    4  A    between atoms: C_20  and  C_21
REMARK    5  A    between atoms: C_21  and  O_23
REMARK                            x       y       z     vdW  Elec       q    Type
REMARK                         _______ _______ _______ _____ _____    ______ ____
ROOT
ATOM      1  C   UNL     1       2.170  14.045  20.966  0.00  0.00    +0.000 C 
ATOM      2  C   UNL     1       1.306  13.250  20.020  0.00  0.00    +0.000 C 
ATOM      3  N   UNL     1       0.031  13.275  20.208  0.00  0.00    +0.000 NA
ATOM      4  C   UNL     1      -0.823  12.510  19.475  0.00  0.00    +0.000 A 
ATOM      5  C   UNL     1      -0.433  11.551  18.635  0.00  0.00    +0.000 A 
ATOM      6  C   UNL     1      -1.671  10.850  18.237  0.00  0.00    +0.000 A 
ATOM      7  O   UNL     1      -1.752   9.992  17.376  0.00  0.00    +0.000 OA
ATOM      8  N   UNL     1      -2.695  11.356  19.024  0.00  0.00    +0.000 N 
ATOM      9  N   UNL     1      -2.207  12.496  19.659  0.00  0.00    +0.000 N 
ATOM     10  C   UNL     1       0.929  11.170  18.236  0.00  0.00    +0.000 C 
ATOM     11  S   UNL     1       2.179  12.373  18.794  0.00  0.00    +0.000 S 
ATOM     12  H   UNL     1      -3.661  11.300  18.718  0.00  0.00    +0.000 HD
ENDROOT
BRANCH   9  13
ATOM     13  C   UNL     1      -2.722  12.896  20.966  0.00  0.00    +0.000 C 
ATOM     14  C   UNL     1      -2.208  12.050  22.134  0.00  0.00    +0.000 C 
ATOM     15  C   UNL     1      -2.439  12.861  23.412  0.00  0.00    +0.000 C 
ATOM     16  C   UNL     1      -3.905  13.269  23.579  0.00  0.00    +0.000 C 
ATOM     17  C   UNL     1      -4.546  13.855  22.311  0.00  0.00    +0.000 C 
ATOM     18  C   UNL     1      -4.239  13.019  21.060  0.00  0.00    +0.000 C 
ENDBRANCH   9  13
BRANCH  10  19
ATOM     19  C   UNL     1       1.316   9.757  18.655  0.00  0.00    +0.000 A 
ATOM     20  C   UNL     1       1.105   9.358  19.982  0.00  0.00    +0.000 A 
ATOM     21  C   UNL     1       1.518   8.100  20.426  0.00  0.00    +0.000 A 
ATOM     22  C   UNL     1       2.156   7.210  19.556  0.00  0.00    +0.000 A 
ATOM     23  C   UNL     1       2.328   7.572  18.214  0.00  0.00    +0.000 A 
ATOM     24  C   UNL     1       1.911   8.838  17.770  0.00  0.00    +0.000 A 
BRANCH  22  25
ATOM     25  C   UNL     1       2.590   5.903  20.123  0.00  0.00    +0.000 C 
ATOM     26  O   UNL     1       1.837   5.194  20.779  0.00  0.00    +0.000 OA
BRANCH  25  27
ATOM     27  O   UNL     1       3.880   5.582  19.915  0.00  0.00    +0.000 OA
ATOM     28  H   UNL     1       4.222   4.827  20.426  0.00  0.00    +0.000 HD
ENDBRANCH  25  27
ENDBRANCH  22  25
ENDBRANCH  10  19
TORSDOF 4
ENDMDL
MODEL 4
REMARK VINA RESULT:      -6.9      2.650      3.834
REMARK  Name = 
REMARK  5 active torsions:
REMARK  status: ('A' for Active; 'I' for Inactive)
REMARK    1  A    between atoms: C_1  and  C_2
REMARK    2  A    between atoms: N_9  and  C_10
REMARK    3  A    between atoms: C_16  and  C_17
REMARK    4  A    between atoms: C_20  and  C_21
REMARK    5  A    between atoms: C_21  and  O_23
REMARK                            x       y       z     vdW  Elec       q    Type
REMARK                         _______ _______ _______ _____ _____    ______ ____
ROOT
ATOM      1  C   UNL     1      -1.297  13.772  22.178  0.00  0.00    +0.000 C 
ATOM      2  C   UNL     1      -1.268  13.049  20.855  0.00  0.00    +0.000 C 
ATOM      3  N   UNL     1      -2.397  12.728  20.322  0.00  0.00    +0.000 NA
ATOM      4  C   UNL     1      -2.474  11.985  19.185  0.00  0.00    +0.000 A 
ATOM      5  C   UNL     1      -1.432  11.376  18.618  0.00  0.00    +0.000 A 
ATOM      6  C   UNL     1      -2.005  10.521  17.558  0.00  0.00    +0.000 A 
ATOM      7  O   UNL     1      -1.364   9.902  16.727  0.00  0.00    +0.000 OA
ATOM      8  N   UNL     1      -3.383  10.568  17.699  0.00  0.00    +0.000 N 
ATOM      9  N   UNL     1      -3.675  11.602  18.586  0.00  0.00    +0.000 N 
ATOM     10  C   UNL     1      -0.012  11.433  18.994  0.00  0.00    +0.000 C 
ATOM     11  S   UNL     1       0.327  12.725  20.235  0.00  0.00    +0.000 S 
ATOM     12  H   UNL     1      -3.993  10.363  16.915  0.00  0.00    +0.000 HD
ENDROOT
BRANCH   9  13
ATOM     13  C   UNL     1      -4.867  11.543  19.431  0.00  0.00    +0.000 C 
ATOM     14  C   UNL     1      -6.057  10.820  18.794  0.00  0.00    +0.000 C 
ATOM     15  C   UNL     1      -7.007  10.433  19.930  0.00  0.00    +0.000 C 
ATOM     16  C   UNL     1      -7.430  11.643  20.766  0.00  0.00    +0.000 C 
ATOM     17  C   UNL     1      -6.270  12.567  21.172  0.00  0.00    +0.000 C 
ATOM     18  C   UNL     1      -5.332  12.879  19.998  0.00  0.00    +0.000 C 
ENDBRANCH   9  13
BRANCH  10  19
ATOM     19  C   UNL     1       0.556  10.092  19.443  0.00  0.00    +0.000 A 
ATOM     20  C   UNL     1       1.437   9.407  18.593  0.00  0.00    +0.000 A 
ATOM     21  C   UNL     1       1.919   8.141  18.931  0.00  0.00    +0.000 A 
ATOM     22  C   UNL     1       1.529   7.525  20.125  0.00  0.00    +0.000 A 
ATOM     23  C   UNL     1       0.692   8.216  21.009  0.00  0.00    +0.000 A 
ATOM     24  C   UNL     1       0.209   9.491  20.667  0.00  0.00    +0.000 A 
BRANCH  22  25
ATOM     25  C   UNL     1       2.067   6.161  20.389  0.00  0.00    +0.000 C 
ATOM     26  O   UNL     1       1.391   5.283  20.911  0.00  0.00    +0.000 OA
BRANCH  25  27
ATOM     27  O   UNL     1       3.361   5.977  20.069  0.00  0.00    +0.000 OA
ATOM     28  H   UNL     1       3.581   5.128  19.645  0.00  0.00    +0.000 HD
ENDBRANCH  25  27
ENDBRANCH  22  25
ENDBRANCH  10  19
TORSDOF 4
ENDMDL
MODEL 5
REMARK VINA RESULT:      -6.8      0.376      1.420
REMARK  Name = 
REMARK  5 active torsions:
REMARK  status: ('A' for Active; 'I' for Inactive)
REMARK    1  A    between atoms: C_1  and  C_2
REMARK    2  A    between atoms: N_9  and  C_10
REMARK    3  A    between atoms: C_16  and  C_17
REMARK    4  A    between atoms: C_20  and  C_21
REMARK    5  A    between atoms: C_21  and  O_23
REMARK                            x       y       z     vdW  Elec       q    Type
REMARK                         _______ _______ _______ _____ _____    ______ ____
ROOT
ATOM      1  C   UNL     1      -0.733   9.372  23.083  0.00  0.00    +0.000 C 
ATOM      2  C   UNL     1       0.119   9.362  21.839  0.00  0.00    +0.000 C 
ATOM      3  N   UNL     1      -0.307  10.020  20.816  0.00  0.00    +0.000 NA
ATOM      4  C   UNL     1       0.336   9.987  19.617  0.00  0.00    +0.000 A 
ATOM      5  C   UNL     1       1.339   9.157  19.329  0.00  0.00    +0.000 A 
ATOM      6  C   UNL     1       1.576   9.313  17.879  0.00  0.00    +0.000 A 
ATOM      7  O   UNL     1       2.499   8.819  17.257  0.00  0.00    +0.000 OA
ATOM      8  N   UNL     1       0.558  10.116  17.386  0.00  0.00    +0.000 N 
ATOM      9  N   UNL     1      -0.100  10.671  18.481  0.00  0.00    +0.000 N 
ATOM     10  C   UNL     1       2.028   8.201  20.208  0.00  0.00    +0.000 C 
ATOM     11  S   UNL     1       1.579   8.420  21.961  0.00  0.00    +0.000 S 
ATOM     12  H   UNL     1       0.682  10.642  16.527  0.00  0.00    +0.000 HD
ENDROOT
BRANCH   9  13
ATOM     13  C   UNL     1      -1.519  11.014  18.399  0.00  0.00    +0.000 C 
ATOM     14  C   UNL     1      -2.079  11.690  19.653  0.00  0.00    +0.000 C 
ATOM     15  C   UNL     1      -3.376  12.392  19.244  0.00  0.00    +0.000 C 
ATOM     16  C   UNL     1      -4.374  11.429  18.597  0.00  0.00    +0.000 C 
ATOM     17  C   UNL     1      -3.763  10.511  17.525  0.00  0.00    +0.000 C 
ATOM     18  C   UNL     1      -2.443   9.876  17.983  0.00  0.00    +0.000 C 
ENDBRANCH   9  13
BRANCH  10  19
ATOM     19  C   UNL     1       1.854   6.747  19.785  0.00  0.00    +0.000 A 
ATOM     20  C   UNL     1       1.248   5.847  20.674  0.00  0.00    +0.000 A 
ATOM     21  C   UNL     1       1.141   4.491  20.358  0.00  0.00    +0.000 A 
ATOM     22  C   UNL     1       1.641   3.999  19.148  0.00  0.00    +0.000 A 
ATOM     23  C   UNL     1       2.202   4.892  18.227  0.00  0.00    +0.000 A 
ATOM     24  C   UNL     1       2.308   6.256  18.547  0.00  0.00    +0.000 A 
BRANCH  22  25
ATOM     25  C   UNL     1       1.512   2.534  18.909  0.00  0.00    +0.000 C 
ATOM     26  O   UNL     1       2.467   1.773  18.994  0.00  0.00    +0.000 OA
BRANCH  25  27
ATOM     27  O   UNL     1       0.289   2.115  18.536  0.00  0.00    +0.000 OA
ATOM     28  H   UNL     1       0.148   1.151  18.534  0.00  0.00    +0.000 HD
ENDBRANCH  25  27
ENDBRANCH  22  25
ENDBRANCH  10  19
TORSDOF 4
ENDMDL
MODEL 6
REMARK VINA RESULT:      -6.8      2.934      4.053
REMARK  Name = 
REMARK  5 active torsions:
REMARK  status: ('A' for Active; 'I' for Inactive)
REMARK    1  A    between atoms: C_1  and  C_2
REMARK    2  A    between atoms: N_9  and  C_10
REMARK    3  A    between atoms: C_16  and  C_17
REMARK    4  A    between atoms: C_20  and  C_21
REMARK    5  A    between atoms: C_21  and  O_23
REMARK                            x       y       z     vdW  Elec       q    Type
REMARK                         _______ _______ _______ _____ _____    ______ ____
ROOT
ATOM      1  C   UNL     1       2.024  14.247  20.798  0.00  0.00    +0.000 C 
ATOM      2  C   UNL     1       1.214  13.358  19.889  0.00  0.00    +0.000 C 
ATOM      3  N   UNL     1      -0.062  13.325  20.065  0.00  0.00    +0.000 NA
ATOM      4  C   UNL     1      -0.867  12.478  19.367  0.00  0.00    +0.000 A 
ATOM      5  C   UNL     1      -0.417  11.498  18.582  0.00  0.00    +0.000 A 
ATOM      6  C   UNL     1      -1.612  10.711  18.212  0.00  0.00    +0.000 A 
ATOM      7  O   UNL     1      -1.637   9.806  17.397  0.00  0.00    +0.000 OA
ATOM      8  N   UNL     1      -2.670  11.203  18.962  0.00  0.00    +0.000 N 
ATOM      9  N   UNL     1      -2.250  12.399  19.539  0.00  0.00    +0.000 N 
ATOM     10  C   UNL     1       0.967  11.170  18.215  0.00  0.00    +0.000 C 
ATOM     11  S   UNL     1       2.146  12.466  18.718  0.00  0.00    +0.000 S 
ATOM     12  H   UNL     1      -3.628  11.079  18.651  0.00  0.00    +0.000 HD
ENDROOT
BRANCH   9  13
ATOM     13  C   UNL     1      -2.800  12.839  20.820  0.00  0.00    +0.000 C 
ATOM     14  C   UNL     1      -2.906  14.359  20.972  0.00  0.00    +0.000 C 
ATOM     15  C   UNL     1      -3.902  14.629  22.102  0.00  0.00    +0.000 C 
ATOM     16  C   UNL     1      -3.500  13.932  23.404  0.00  0.00    +0.000 C 
ATOM     17  C   UNL     1      -3.092  12.460  23.233  0.00  0.00    +0.000 C 
ATOM     18  C   UNL     1      -2.129  12.253  22.056  0.00  0.00    +0.000 C 
ENDBRANCH   9  13
BRANCH  10  19
ATOM     19  C   UNL     1       1.425   9.803  18.711  0.00  0.00    +0.000 A 
ATOM     20  C   UNL     1       2.060   8.931  17.815  0.00  0.00    +0.000 A 
ATOM     21  C   UNL     1       2.423   7.642  18.208  0.00  0.00    +0.000 A 
ATOM     22  C   UNL     1       2.158   7.189  19.505  0.00  0.00    +0.000 A 
ATOM     23  C   UNL     1       1.572   8.065  20.427  0.00  0.00    +0.000 A 
ATOM     24  C   UNL     1       1.208   9.362  20.030  0.00  0.00    +0.000 A 
BRANCH  22  25
ATOM     25  C   UNL     1       2.552   5.789  19.827  0.00  0.00    +0.000 C 
ATOM     26  O   UNL     1       2.921   5.001  18.966  0.00  0.00    +0.000 OA
BRANCH  25  27
ATOM     27  O   UNL     1       2.420   5.434  21.118  0.00  0.00    +0.000 OA
ATOM     28  H   UNL     1       1.528   5.160  21.398  0.00  0.00    +0.000 HD
ENDBRANCH  25  27
ENDBRANCH  22  25
ENDBRANCH  10  19
TORSDOF 4
ENDMDL
MODEL 7
REMARK VINA RESULT:      -6.8      4.156      7.843
REMARK  Name = 
REMARK  5 active torsions:
REMARK  status: ('A' for Active; 'I' for Inactive)
REMARK    1  A    between atoms: C_1  and  C_2
REMARK    2  A    between atoms: N_9  and  C_10
REMARK    3  A    between atoms: C_16  and  C_17
REMARK    4  A    between atoms: C_20  and  C_21
REMARK    5  A    between atoms: C_21  and  O_23
REMARK                            x       y       z     vdW  Elec       q    Type
REMARK                         _______ _______ _______ _____ _____    ______ ____
ROOT
ATOM      1  C   UNL     1      -3.269   9.305  17.243  0.00  0.00    +0.000 C 
ATOM      2  C   UNL     1      -2.348  10.336  17.844  0.00  0.00    +0.000 C 
ATOM      3  N   UNL     1      -1.129   9.987  18.077  0.00  0.00    +0.000 NA
ATOM      4  C   UNL     1      -0.251  10.810  18.712  0.00  0.00    +0.000 A 
ATOM      5  C   UNL     1      -0.593  11.956  19.302  0.00  0.00    +0.000 A 
ATOM      6  C   UNL     1       0.611  12.395  20.037  0.00  0.00    +0.000 A 
ATOM      7  O   UNL     1       0.743  13.467  20.600  0.00  0.00    +0.000 OA
ATOM      8  N   UNL     1       1.534  11.363  19.958  0.00  0.00    +0.000 N 
ATOM      9  N   UNL     1       1.071  10.465  18.998  0.00  0.00    +0.000 N 
ATOM     10  C   UNL     1      -1.900  12.627  19.327  0.00  0.00    +0.000 C 
ATOM     11  S   UNL     1      -3.089  11.879  18.165  0.00  0.00    +0.000 S 
ATOM     12  H   UNL     1       2.525  11.544  20.070  0.00  0.00    +0.000 HD
ENDROOT
BRANCH   9  13
ATOM     13  C   UNL     1       1.396   9.043  19.093  0.00  0.00    +0.000 C 
ATOM     14  C   UNL     1       1.706   8.560  20.513  0.00  0.00    +0.000 C 
ATOM     15  C   UNL     1       1.551   7.038  20.513  0.00  0.00    +0.000 C 
ATOM     16  C   UNL     1       2.431   6.367  19.456  0.00  0.00    +0.000 C 
ATOM     17  C   UNL     1       2.369   7.029  18.069  0.00  0.00    +0.000 C 
ATOM     18  C   UNL     1       2.485   8.557  18.145  0.00  0.00    +0.000 C 
ENDBRANCH   9  13
BRANCH  10  19
ATOM     19  C   UNL     1      -2.506  12.736  20.721  0.00  0.00    +0.000 A 
ATOM     20  C   UNL     1      -1.910  12.035  21.779  0.00  0.00    +0.000 A 
ATOM     21  C   UNL     1      -2.478  12.044  23.054  0.00  0.00    +0.000 A 
ATOM     22  C   UNL     1      -3.658  12.752  23.305  0.00  0.00    +0.000 A 
ATOM     23  C   UNL     1      -4.238  13.500  22.272  0.00  0.00    +0.000 A 
ATOM     24  C   UNL     1      -3.664  13.489  20.990  0.00  0.00    +0.000 A 
BRANCH  22  25
ATOM     25  C   UNL     1      -4.210  12.680  24.686  0.00  0.00    +0.000 C 
ATOM     26  O   UNL     1      -5.045  11.846  25.013  0.00  0.00    +0.000 OA
BRANCH  25  27
ATOM     27  O   UNL     1      -3.773  13.629  25.534  0.00  0.00    +0.000 OA
ATOM     28  H   UNL     1      -3.791  13.400  26.480  0.00  0.00    +0.000 HD
ENDBRANCH  25  27
ENDBRANCH  22  25
ENDBRANCH  10  19
TORSDOF 4
ENDMDL
MODEL 8
REMARK VINA RESULT:      -6.8      2.985      4.590
REMARK  Name = 
REMARK  5 active torsions:
REMARK  status: ('A' for Active; 'I' for Inactive)
REMARK    1  A    between atoms: C_1  and  C_2
REMARK    2  A    between atoms: N_9  and  C_10
REMARK    3  A    between atoms: C_16  and  C_17
REMARK    4  A    between atoms: C_20  and  C_21
REMARK    5  A    between atoms: C_21  and  O_23
REMARK                            x       y       z     vdW  Elec       q    Type
REMARK                         _______ _______ _______ _____ _____    ______ ____
ROOT
ATOM      1  C   UNL     1      -1.885  13.444  23.090  0.00  0.00    +0.000 C 
ATOM      2  C   UNL     1      -1.863  13.131  21.615  0.00  0.00    +0.000 C 
ATOM      3  N   UNL     1      -2.987  12.878  21.039  0.00  0.00    +0.000 NA
ATOM      4  C   UNL     1      -3.061  12.484  19.739  0.00  0.00    +0.000 A 
ATOM      5  C   UNL     1      -2.003  12.153  18.997  0.00  0.00    +0.000 A 
ATOM      6  C   UNL     1      -2.558  11.588  17.750  0.00  0.00    +0.000 A 
ATOM      7  O   UNL     1      -1.912  11.288  16.762  0.00  0.00    +0.000 OA
ATOM      8  N   UNL     1      -3.928  11.474  17.931  0.00  0.00    +0.000 N 
ATOM      9  N   UNL     1      -4.256  12.185  19.083  0.00  0.00    +0.000 N 
ATOM     10  C   UNL     1      -0.576  12.223  19.341  0.00  0.00    +0.000 C 
ATOM     11  S   UNL     1      -0.278  13.134  20.892  0.00  0.00    +0.000 S 
ATOM     12  H   UNL     1      -4.557  11.448  17.135  0.00  0.00    +0.000 HD
ENDROOT
BRANCH   9  13
ATOM     13  C   UNL     1      -5.399  11.786  19.902  0.00  0.00    +0.000 C 
ATOM     14  C   UNL     1      -6.387  10.853  19.197  0.00  0.00    +0.000 C 
ATOM     15  C   UNL     1      -7.218  10.172  20.287  0.00  0.00    +0.000 C 
ATOM     16  C   UNL     1      -7.912  11.185  21.202  0.00  0.00    +0.000 C 
ATOM     17  C   UNL     1      -7.001  12.322  21.691  0.00  0.00    +0.000 C 
ATOM     18  C   UNL     1      -6.164  12.930  20.558  0.00  0.00    +0.000 C 
ENDBRANCH   9  13
BRANCH  10  19
ATOM     19  C   UNL     1       0.113  10.864  19.374  0.00  0.00    +0.000 A 
ATOM     20  C   UNL     1      -0.099  10.019  20.473  0.00  0.00    +0.000 A 
ATOM     21  C   UNL     1       0.574   8.801  20.579  0.00  0.00    +0.000 A 
ATOM     22  C   UNL     1       1.479   8.397  19.592  0.00  0.00    +0.000 A 
ATOM     23  C   UNL     1       1.663   9.204  18.463  0.00  0.00    +0.000 A 
ATOM     24  C   UNL     1       0.984  10.429  18.358  0.00  0.00    +0.000 A 
BRANCH  22  25
ATOM     25  C   UNL     1       2.176   7.097  19.804  0.00  0.00    +0.000 C 
ATOM     26  O   UNL     1       2.011   6.426  20.814  0.00  0.00    +0.000 OA
BRANCH  25  27
ATOM     27  O   UNL     1       3.041   6.740  18.836  0.00  0.00    +0.000 OA
ATOM     28  H   UNL     1       3.944   6.521  19.128  0.00  0.00    +0.000 HD
ENDBRANCH  25  27
ENDBRANCH  22  25
ENDBRANCH  10  19
TORSDOF 4
ENDMDL
MODEL 9
REMARK VINA RESULT:      -6.8      4.755      6.562
REMARK  Name = 
REMARK  5 active torsions:
REMARK  status: ('A' for Active; 'I' for Inactive)
REMARK    1  A    between atoms: C_1  and  C_2
REMARK    2  A    between atoms: N_9  and  C_10
REMARK    3  A    between atoms: C_16  and  C_17
REMARK    4  A    between atoms: C_20  and  C_21
REMARK    5  A    between atoms: C_21  and  O_23
REMARK                            x       y       z     vdW  Elec       q    Type
REMARK                         _______ _______ _______ _____ _____    ______ ____
ROOT
ATOM      1  C   UNL     1      -0.464   9.307  23.414  0.00  0.00    +0.000 C 
ATOM      2  C   UNL     1      -0.108  10.389  22.427  0.00  0.00    +0.000 C 
ATOM      3  N   UNL     1      -0.266  11.614  22.796  0.00  0.00    +0.000 NA
ATOM      4  C   UNL     1      -0.072  12.657  21.944  0.00  0.00    +0.000 A 
ATOM      5  C   UNL     1       0.121  12.523  20.631  0.00  0.00    +0.000 A 
ATOM      6  C   UNL     1       0.064  13.894  20.083  0.00  0.00    +0.000 A 
ATOM      7  O   UNL     1       0.323  14.207  18.934  0.00  0.00    +0.000 OA
ATOM      8  N   UNL     1      -0.336  14.728  21.116  0.00  0.00    +0.000 N 
ATOM      9  N   UNL     1      -0.249  13.995  22.298  0.00  0.00    +0.000 N 
ATOM     10  C   UNL     1       0.266  11.293  19.839  0.00  0.00    +0.000 C 
ATOM     11  S   UNL     1       0.459   9.812  20.885  0.00  0.00    +0.000 S 
ATOM     12  H   UNL     1      -0.119  15.718  21.097  0.00  0.00    +0.000 HD
ENDROOT
BRANCH   9  13
ATOM     13  C   UNL     1      -1.138  14.288  23.421  0.00  0.00    +0.000 C 
ATOM     14  C   UNL     1      -2.628  14.256  23.071  0.00  0.00    +0.000 C 
ATOM     15  C   UNL     1      -3.395  14.104  24.387  0.00  0.00    +0.000 C 
ATOM     16  C   UNL     1      -3.047  15.208  25.389  0.00  0.00    +0.000 C 
ATOM     17  C   UNL     1      -1.540  15.472  25.539  0.00  0.00    +0.000 C 
ATOM     18  C   UNL     1      -0.825  15.569  24.185  0.00  0.00    +0.000 C 
ENDBRANCH   9  13
BRANCH  10  19
ATOM     19  C   UNL     1      -0.847  11.089  18.817  0.00  0.00    +0.000 A 
ATOM     20  C   UNL     1      -0.696  10.099  17.835  0.00  0.00    +0.000 A 
ATOM     21  C   UNL     1      -1.654   9.932  16.834  0.00  0.00    +0.000 A 
ATOM     22  C   UNL     1      -2.785  10.753  16.784  0.00  0.00    +0.000 A 
ATOM     23  C   UNL     1      -2.977  11.713  17.787  0.00  0.00    +0.000 A 
ATOM     24  C   UNL     1      -2.012  11.878  18.794  0.00  0.00    +0.000 A 
BRANCH  22  25
ATOM     25  C   UNL     1      -3.739  10.526  15.663  0.00  0.00    +0.000 C 
ATOM     26  O   UNL     1      -3.385  10.044  14.594  0.00  0.00    +0.000 OA
BRANCH  25  27
ATOM     27  O   UNL     1      -5.001  10.938  15.884  0.00  0.00    +0.000 OA
ATOM     28  H   UNL     1      -5.287  11.726  15.388  0.00  0.00    +0.000 HD
ENDBRANCH  25  27
ENDBRANCH  22  25
ENDBRANCH  10  19
TORSDOF 4
ENDMDL
