MODEL 1
REMARK VINA RESULT:      -7.4      0.000      0.000
REMARK  Name = 
REMARK  6 active torsions:
REMARK  status: ('A' for Active; 'I' for Inactive)
REMARK    1  A    between atoms: C_1  and  C_2
REMARK    2  A    between atoms: C_6  and  C_7
REMARK    3  A    between atoms: N_13  and  C_14
REMARK    4  A    between atoms: C_14  and  C_15
REMARK    5  A    between atoms: C_24  and  C_25
REMARK    6  A    between atoms: C_24  and  C_26
REMARK                            x       y       z     vdW  Elec       q    Type
REMARK                         _______ _______ _______ _____ _____    ______ ____
ROOT
ATOM      1  C   UNL     1       1.086   9.494  22.234  0.00  0.00    +0.000 C 
ATOM      2  C   UNL     1      -0.010   9.819  21.198  0.00  0.00    +0.000 C 
ATOM      3  C   UNL     1      -0.773  11.069  21.683  0.00  0.00    +0.000 C 
ATOM      4  N   UNL     1       0.104  12.237  21.621  0.00  0.00    +0.000 NA
ATOM      5  C   UNL     1      -0.413  13.380  22.375  0.00  0.00    +0.000 C 
ATOM      6  C   UNL     1      -0.162  14.849  21.841  0.00  0.00    +0.000 C 
ATOM      7  N   UNL     1       0.525  15.041  20.521  0.00  0.00    +0.000 NA
ATOM      8  C   UNL     1       1.343  13.846  20.237  0.00  0.00    +0.000 C 
ATOM      9  C   UNL     1       0.500  12.555  20.251  0.00  0.00    +0.000 C 
ATOM     10  C   UNL     1       1.302  11.381  19.681  0.00  0.00    +0.000 C 
ATOM     11  C   UNL     1       0.538  10.022  19.739  0.00  0.00    +0.000 C 
ATOM     12  C   UNL     1      -0.657  10.095  18.741  0.00  0.00    +0.000 C 
ENDROOT
BRANCH   6  13
ATOM     13  C   UNL     1      -1.446  15.653  22.060  0.00  0.00    +0.000 A 
ATOM     14  C   UNL     1      -1.398  17.044  22.215  0.00  0.00    +0.000 A 
ATOM     15  C   UNL     1      -2.566  17.761  22.486  0.00  0.00    +0.000 A 
ATOM     16  C   UNL     1      -3.792  17.104  22.588  0.00  0.00    +0.000 A 
ATOM     17  C   UNL     1      -3.857  15.724  22.431  0.00  0.00    +0.000 A 
ATOM     18  C   UNL     1      -2.693  15.006  22.179  0.00  0.00    +0.000 A 
ENDBRANCH   6  13
BRANCH  11  19
ATOM     19  C   UNL     1       1.421   8.837  19.278  0.00  0.00    +0.000 A 
ATOM     20  C   UNL     1       1.635   7.700  20.079  0.00  0.00    +0.000 A 
ATOM     21  C   UNL     1       2.456   6.653  19.655  0.00  0.00    +0.000 A 
ATOM     22  C   UNL     1       3.092   6.720  18.421  0.00  0.00    +0.000 A 
ATOM     23  C   UNL     1       2.901   7.832  17.609  0.00  0.00    +0.000 A 
ATOM     24  C   UNL     1       2.071   8.877  18.029  0.00  0.00    +0.000 A 
ENDBRANCH  11  19
BRANCH   7  25
ATOM     25  C   UNL     1      -0.373  15.396  19.406  0.00  0.00    +0.000 C 
BRANCH  25  26
ATOM     26  C   UNL     1       0.093  16.529  18.508  0.00  0.00    +0.000 A 
ATOM     27  C   UNL     1       1.458  16.674  18.209  0.00  0.00    +0.000 A 
ATOM     28  C   UNL     1       1.897  17.682  17.349  0.00  0.00    +0.000 A 
ATOM     29  C   UNL     1       0.972  18.554  16.779  0.00  0.00    +0.000 A 
ATOM     30  C   UNL     1      -0.385  18.426  17.069  0.00  0.00    +0.000 A 
ATOM     31  C   UNL     1      -0.823  17.418  17.930  0.00  0.00    +0.000 A 
ENDBRANCH  25  26
ENDBRANCH   7  25
TORSDOF 4
ENDMDL
MODEL 2
REMARK VINA RESULT:      -7.3      0.121      1.230
REMARK  Name = 
REMARK  6 active torsions:
REMARK  status: ('A' for Active; 'I' for Inactive)
REMARK    1  A    between atoms: C_1  and  C_2
REMARK    2  A    between atoms: C_6  and  C_7
REMARK    3  A    between atoms: N_13  and  C_14
REMARK    4  A    between atoms: C_14  and  C_15
REMARK    5  A    between atoms: C_24  and  C_25
REMARK    6  A    between atoms: C_24  and  C_26
REMARK                            x       y       z     vdW  Elec       q    Type
REMARK                         _______ _______ _______ _____ _____    ______ ____
ROOT
ATOM      1  C   UNL     1       1.164   9.550  22.266  0.00  0.00    +0.000 C 
ATOM      2  C   UNL     1       0.046   9.861  21.250  0.00  0.00    +0.000 C 
ATOM      3  C   UNL     1      -0.733  11.092  21.757  0.00  0.00    +0.000 C 
ATOM      4  N   UNL     1       0.119  12.277  21.690  0.00  0.00    +0.000 NA
ATOM      5  C   UNL     1      -0.408  13.404  22.462  0.00  0.00    +0.000 C 
ATOM      6  C   UNL     1      -0.194  14.882  21.936  0.00  0.00    +0.000 C 
ATOM      7  N   UNL     1       0.469  15.098  20.607  0.00  0.00    +0.000 NA
ATOM      8  C   UNL     1       1.306  13.921  20.300  0.00  0.00    +0.000 C 
ATOM      9  C   UNL     1       0.488  12.614  20.318  0.00  0.00    +0.000 C 
ATOM     10  C   UNL     1       1.304  11.460  19.726  0.00  0.00    +0.000 C 
ATOM     11  C   UNL     1       0.568  10.086  19.784  0.00  0.00    +0.000 C 
ATOM     12  C   UNL     1      -0.644  10.144  18.805  0.00  0.00    +0.000 C 
ENDROOT
BRANCH   6  13
ATOM     13  C   UNL     1      -1.489  15.659  22.181  0.00  0.00    +0.000 A 
ATOM     14  C   UNL     1      -1.458  17.036  22.429  0.00  0.00    +0.000 A 
ATOM     15  C   UNL     1      -2.638  17.725  22.722  0.00  0.00    +0.000 A 
ATOM     16  C   UNL     1      -3.860  17.053  22.753  0.00  0.00    +0.000 A 
ATOM     17  C   UNL     1      -3.908  15.686  22.503  0.00  0.00    +0.000 A 
ATOM     18  C   UNL     1      -2.732  14.995  22.228  0.00  0.00    +0.000 A 
ENDBRANCH   6  13
BRANCH  11  19
ATOM     19  C   UNL     1       1.466   8.922  19.301  0.00  0.00    +0.000 A 
ATOM     20  C   UNL     1       2.108   8.934  18.049  0.00  0.00    +0.000 A 
ATOM     21  C   UNL     1       2.893   7.861  17.621  0.00  0.00    +0.000 A 
ATOM     22  C   UNL     1       3.051   6.744  18.432  0.00  0.00    +0.000 A 
ATOM     23  C   UNL     1       2.428   6.703  19.674  0.00  0.00    +0.000 A 
ATOM     24  C   UNL     1       1.648   7.781  20.107  0.00  0.00    +0.000 A 
ENDBRANCH  11  19
BRANCH   7  25
ATOM     25  C   UNL     1      -0.452  15.443  19.508  0.00  0.00    +0.000 C 
BRANCH  25  26
ATOM     26  C   UNL     1       0.014  16.540  18.565  0.00  0.00    +0.000 A 
ATOM     27  C   UNL     1      -0.914  17.451  18.033  0.00  0.00    +0.000 A 
ATOM     28  C   UNL     1      -0.497  18.491  17.201  0.00  0.00    +0.000 A 
ATOM     29  C   UNL     1       0.855  18.629  16.896  0.00  0.00    +0.000 A 
ATOM     30  C   UNL     1       1.787  17.731  17.411  0.00  0.00    +0.000 A 
ATOM     31  C   UNL     1       1.369  16.690  18.243  0.00  0.00    +0.000 A 
ENDBRANCH  25  26
ENDBRANCH   7  25
TORSDOF 4
ENDMDL
MODEL 3
REMARK VINA RESULT:      -7.2      0.159      1.233
REMARK  Name = 
REMARK  6 active torsions:
REMARK  status: ('A' for Active; 'I' for Inactive)
REMARK    1  A    between atoms: C_1  and  C_2
REMARK    2  A    between atoms: C_6  and  C_7
REMARK    3  A    between atoms: N_13  and  C_14
REMARK    4  A    between atoms: C_14  and  C_15
REMARK    5  A    between atoms: C_24  and  C_25
REMARK    6  A    between atoms: C_24  and  C_26
REMARK                            x       y       z     vdW  Elec       q    Type
REMARK                         _______ _______ _______ _____ _____    ______ ____
ROOT
ATOM      1  C   UNL     1       1.172   9.435  22.301  0.00  0.00    +0.000 C 
ATOM      2  C   UNL     1       0.081   9.741  21.254  0.00  0.00    +0.000 C 
ATOM      3  C   UNL     1      -0.719  10.967  21.740  0.00  0.00    +0.000 C 
ATOM      4  N   UNL     1       0.127  12.158  21.700  0.00  0.00    +0.000 NA
ATOM      5  C   UNL     1      -0.429  13.280  22.458  0.00  0.00    +0.000 C 
ATOM      6  C   UNL     1      -0.208  14.760  21.941  0.00  0.00    +0.000 C 
ATOM      7  N   UNL     1       0.491  14.982  20.633  0.00  0.00    +0.000 NA
ATOM      8  C   UNL     1       1.343  13.811  20.348  0.00  0.00    +0.000 C 
ATOM      9  C   UNL     1       0.533  12.499  20.339  0.00  0.00    +0.000 C 
ATOM     10  C   UNL     1       1.373  11.352  19.769  0.00  0.00    +0.000 C 
ATOM     11  C   UNL     1       0.644   9.973  19.803  0.00  0.00    +0.000 C 
ATOM     12  C   UNL     1      -0.540  10.025  18.790  0.00  0.00    +0.000 C 
ENDROOT
BRANCH   6  13
ATOM     13  C   UNL     1      -1.515  15.529  22.151  0.00  0.00    +0.000 A 
ATOM     14  C   UNL     1      -2.734  14.848  22.244  0.00  0.00    +0.000 A 
ATOM     15  C   UNL     1      -3.930  15.560  22.364  0.00  0.00    +0.000 A 
ATOM     16  C   UNL     1      -3.921  16.955  22.409  0.00  0.00    +0.000 A 
ATOM     17  C   UNL     1      -2.717  17.646  22.323  0.00  0.00    +0.000 A 
ATOM     18  C   UNL     1      -1.527  16.938  22.186  0.00  0.00    +0.000 A 
ENDBRANCH   6  13
BRANCH  11  19
ATOM     19  C   UNL     1       1.562   8.815  19.344  0.00  0.00    +0.000 A 
ATOM     20  C   UNL     1       2.182   8.800  18.081  0.00  0.00    +0.000 A 
ATOM     21  C   UNL     1       2.986   7.733  17.675  0.00  0.00    +0.000 A 
ATOM     22  C   UNL     1       3.185   6.648  18.520  0.00  0.00    +0.000 A 
ATOM     23  C   UNL     1       2.585   6.635  19.774  0.00  0.00    +0.000 A 
ATOM     24  C   UNL     1       1.786   7.707  20.184  0.00  0.00    +0.000 A 
ENDBRANCH  11  19
BRANCH   7  25
ATOM     25  C   UNL     1      -0.400  15.325  19.509  0.00  0.00    +0.000 C 
BRANCH  25  26
ATOM     26  C   UNL     1       0.062  16.458  18.609  0.00  0.00    +0.000 A 
ATOM     27  C   UNL     1       1.406  16.531  18.205  0.00  0.00    +0.000 A 
ATOM     28  C   UNL     1       1.839  17.540  17.342  0.00  0.00    +0.000 A 
ATOM     29  C   UNL     1       0.927  18.484  16.875  0.00  0.00    +0.000 A 
ATOM     30  C   UNL     1      -0.407  18.429  17.271  0.00  0.00    +0.000 A 
ATOM     31  C   UNL     1      -0.839  17.420  18.135  0.00  0.00    +0.000 A 
ENDBRANCH  25  26
ENDBRANCH   7  25
TORSDOF 4
ENDMDL
MODEL 4
REMARK VINA RESULT:      -7.2      2.460      4.183
REMARK  Name = 
REMARK  6 active torsions:
REMARK  status: ('A' for Active; 'I' for Inactive)
REMARK    1  A    between atoms: C_1  and  C_2
REMARK    2  A    between atoms: C_6  and  C_7
REMARK    3  A    between atoms: N_13  and  C_14
REMARK    4  A    between atoms: C_14  and  C_15
REMARK    5  A    between atoms: C_24  and  C_25
REMARK    6  A    between atoms: C_24  and  C_26
REMARK                            x       y       z     vdW  Elec       q    Type
REMARK                         _______ _______ _______ _____ _____    ______ ____
ROOT
ATOM      1  C   UNL     1      -1.610   9.761  18.451  0.00  0.00    +0.000 C 
ATOM      2  C   UNL     1      -0.647  10.964  18.381  0.00  0.00    +0.000 C 
ATOM      3  C   UNL     1      -1.445  12.237  18.731  0.00  0.00    +0.000 C 
ATOM      4  N   UNL     1      -1.836  12.202  20.139  0.00  0.00    +0.000 NA
ATOM      5  C   UNL     1      -2.874  13.181  20.468  0.00  0.00    +0.000 C 
ATOM      6  C   UNL     1      -2.867  13.884  21.887  0.00  0.00    +0.000 C 
ATOM      7  N   UNL     1      -1.742  13.601  22.838  0.00  0.00    +0.000 NA
ATOM      8  C   UNL     1      -1.155  12.290  22.499  0.00  0.00    +0.000 C 
ATOM      9  C   UNL     1      -0.681  12.233  21.033  0.00  0.00    +0.000 C 
ATOM     10  C   UNL     1       0.169  10.982  20.789  0.00  0.00    +0.000 C 
ATOM     11  C   UNL     1       0.617  10.817  19.304  0.00  0.00    +0.000 C 
ATOM     12  C   UNL     1       1.634  11.952  18.976  0.00  0.00    +0.000 C 
ENDROOT
BRANCH   6  13
ATOM     13  C   UNL     1      -3.226  15.357  21.682  0.00  0.00    +0.000 A 
ATOM     14  C   UNL     1      -2.628  16.100  20.657  0.00  0.00    +0.000 A 
ATOM     15  C   UNL     1      -2.908  17.462  20.520  0.00  0.00    +0.000 A 
ATOM     16  C   UNL     1      -3.797  18.092  21.391  0.00  0.00    +0.000 A 
ATOM     17  C   UNL     1      -4.404  17.367  22.411  0.00  0.00    +0.000 A 
ATOM     18  C   UNL     1      -4.113  16.014  22.559  0.00  0.00    +0.000 A 
ENDBRANCH   6  13
BRANCH  11  19
ATOM     19  C   UNL     1       1.361   9.481  19.065  0.00  0.00    +0.000 A 
ATOM     20  C   UNL     1       1.938   9.151  17.825  0.00  0.00    +0.000 A 
ATOM     21  C   UNL     1       2.582   7.928  17.622  0.00  0.00    +0.000 A 
ATOM     22  C   UNL     1       2.658   7.000  18.653  0.00  0.00    +0.000 A 
ATOM     23  C   UNL     1       2.096   7.298  19.889  0.00  0.00    +0.000 A 
ATOM     24  C   UNL     1       1.458   8.525  20.095  0.00  0.00    +0.000 A 
ENDBRANCH  11  19
BRANCH   7  25
ATOM     25  C   UNL     1      -0.730  14.670  22.931  0.00  0.00    +0.000 C 
BRANCH  25  26
ATOM     26  C   UNL     1      -0.923  15.678  24.052  0.00  0.00    +0.000 A 
ATOM     27  C   UNL     1      -0.742  17.049  23.803  0.00  0.00    +0.000 A 
ATOM     28  C   UNL     1      -0.959  17.992  24.810  0.00  0.00    +0.000 A 
ATOM     29  C   UNL     1      -1.363  17.569  26.075  0.00  0.00    +0.000 A 
ATOM     30  C   UNL     1      -1.542  16.212  26.338  0.00  0.00    +0.000 A 
ATOM     31  C   UNL     1      -1.323  15.270  25.331  0.00  0.00    +0.000 A 
ENDBRANCH  25  26
ENDBRANCH   7  25
TORSDOF 4
ENDMDL
MODEL 5
REMARK VINA RESULT:      -7.2      2.446      4.077
REMARK  Name = 
REMARK  6 active torsions:
REMARK  status: ('A' for Active; 'I' for Inactive)
REMARK    1  A    between atoms: C_1  and  C_2
REMARK    2  A    between atoms: C_6  and  C_7
REMARK    3  A    between atoms: N_13  and  C_14
REMARK    4  A    between atoms: C_14  and  C_15
REMARK    5  A    between atoms: C_24  and  C_25
REMARK    6  A    between atoms: C_24  and  C_26
REMARK                            x       y       z     vdW  Elec       q    Type
REMARK                         _______ _______ _______ _____ _____    ______ ____
ROOT
ATOM      1  C   UNL     1      -1.686   9.819  18.528  0.00  0.00    +0.000 C 
ATOM      2  C   UNL     1      -0.704  11.006  18.440  0.00  0.00    +0.000 C 
ATOM      3  C   UNL     1      -1.479  12.295  18.785  0.00  0.00    +0.000 C 
ATOM      4  N   UNL     1      -1.861  12.279  20.196  0.00  0.00    +0.000 NA
ATOM      5  C   UNL     1      -2.880  13.277  20.523  0.00  0.00    +0.000 C 
ATOM      6  C   UNL     1      -2.851  13.993  21.935  0.00  0.00    +0.000 C 
ATOM      7  N   UNL     1      -1.723  13.700  22.881  0.00  0.00    +0.000 NA
ATOM      8  C   UNL     1      -1.160  12.377  22.550  0.00  0.00    +0.000 C 
ATOM      9  C   UNL     1      -0.699  12.300  21.080  0.00  0.00    +0.000 C 
ATOM     10  C   UNL     1       0.130  11.033  20.842  0.00  0.00    +0.000 C 
ATOM     11  C   UNL     1       0.565  10.848  19.355  0.00  0.00    +0.000 C 
ATOM     12  C   UNL     1       1.596  11.964  19.009  0.00  0.00    +0.000 C 
ENDROOT
BRANCH   6  13
ATOM     13  C   UNL     1      -3.188  15.470  21.719  0.00  0.00    +0.000 A 
ATOM     14  C   UNL     1      -2.602  16.188  20.670  0.00  0.00    +0.000 A 
ATOM     15  C   UNL     1      -2.861  17.553  20.522  0.00  0.00    +0.000 A 
ATOM     16  C   UNL     1      -3.717  18.210  21.406  0.00  0.00    +0.000 A 
ATOM     17  C   UNL     1      -4.312  17.509  22.449  0.00  0.00    +0.000 A 
ATOM     18  C   UNL     1      -4.042  16.154  22.608  0.00  0.00    +0.000 A 
ENDBRANCH   6  13
BRANCH  11  19
ATOM     19  C   UNL     1       1.285   9.498  19.122  0.00  0.00    +0.000 A 
ATOM     20  C   UNL     1       1.392   8.517  20.125  0.00  0.00    +0.000 A 
ATOM     21  C   UNL     1       2.069   7.316  19.902  0.00  0.00    +0.000 A 
ATOM     22  C   UNL     1       2.665   7.069  18.672  0.00  0.00    +0.000 A 
ATOM     23  C   UNL     1       2.577   8.020  17.661  0.00  0.00    +0.000 A 
ATOM     24  C   UNL     1       1.891   9.219  17.882  0.00  0.00    +0.000 A 
ENDBRANCH  11  19
BRANCH   7  25
ATOM     25  C   UNL     1      -0.694  14.754  22.956  0.00  0.00    +0.000 C 
BRANCH  25  26
ATOM     26  C   UNL     1      -0.882  15.795  24.047  0.00  0.00    +0.000 A 
ATOM     27  C   UNL     1      -1.247  15.396  25.344  0.00  0.00    +0.000 A 
ATOM     28  C   UNL     1      -1.380  16.335  26.369  0.00  0.00    +0.000 A 
ATOM     29  C   UNL     1      -1.145  17.682  26.104  0.00  0.00    +0.000 A 
ATOM     30  C   UNL     1      -0.788  18.094  24.822  0.00  0.00    +0.000 A 
ATOM     31  C   UNL     1      -0.656  17.155  23.797  0.00  0.00    +0.000 A 
ENDBRANCH  25  26
ENDBRANCH   7  25
TORSDOF 4
ENDMDL
MODEL 6
REMARK VINA RESULT:      -7.2      2.433      4.112
REMARK  Name = 
REMARK  6 active torsions:
REMARK  status: ('A' for Active; 'I' for Inactive)
REMARK    1  A    between atoms: C_1  and  C_2
REMARK    2  A    between atoms: C_6  and  C_7
REMARK    3  A    between atoms: N_13  and  C_14
REMARK    4  A    between atoms: C_14  and  C_15
REMARK    5  A    between atoms: C_24  and  C_25
REMARK    6  A    between atoms: C_24  and  C_26
REMARK                            x       y       z     vdW  Elec       q    Type
REMARK                         _______ _______ _______ _____ _____    ______ ____
ROOT
ATOM      1  C   UNL     1      -1.675   9.972  18.548  0.00  0.00    +0.000 C 
ATOM      2  C   UNL     1      -0.679  11.147  18.459  0.00  0.00    +0.000 C 
ATOM      3  C   UNL     1      -1.434  12.444  18.813  0.00  0.00    +0.000 C 
ATOM      4  N   UNL     1      -1.807  12.428  20.226  0.00  0.00    +0.000 NA
ATOM      5  C   UNL     1      -2.811  13.438  20.564  0.00  0.00    +0.000 C 
ATOM      6  C   UNL     1      -2.764  14.148  21.979  0.00  0.00    +0.000 C 
ATOM      7  N   UNL     1      -1.635  13.837  22.916  0.00  0.00    +0.000 NA
ATOM      8  C   UNL     1      -1.092  12.507  22.577  0.00  0.00    +0.000 C 
ATOM      9  C   UNL     1      -0.640  12.430  21.104  0.00  0.00    +0.000 C 
ATOM     10  C   UNL     1       0.170  11.153  20.856  0.00  0.00    +0.000 C 
ATOM     11  C   UNL     1       0.593  10.967  19.366  0.00  0.00    +0.000 C 
ATOM     12  C   UNL     1       1.638  12.071  19.018  0.00  0.00    +0.000 C 
ENDROOT
BRANCH   6  13
ATOM     13  C   UNL     1      -3.083  15.630  21.770  0.00  0.00    +0.000 A 
ATOM     14  C   UNL     1      -3.924  16.310  22.658  0.00  0.00    +0.000 A 
ATOM     15  C   UNL     1      -4.268  17.643  22.422  0.00  0.00    +0.000 A 
ATOM     16  C   UNL     1      -3.763  18.316  21.309  0.00  0.00    +0.000 A 
ATOM     17  C   UNL     1      -2.922  17.656  20.419  0.00  0.00    +0.000 A 
ATOM     18  C   UNL     1      -2.593  16.323  20.645  0.00  0.00    +0.000 A 
ENDBRANCH   6  13
BRANCH  11  19
ATOM     19  C   UNL     1       1.294   9.609  19.124  0.00  0.00    +0.000 A 
ATOM     20  C   UNL     1       1.397   8.624  20.123  0.00  0.00    +0.000 A 
ATOM     21  C   UNL     1       2.058   7.416  19.891  0.00  0.00    +0.000 A 
ATOM     22  C   UNL     1       2.639   7.163  18.655  0.00  0.00    +0.000 A 
ATOM     23  C   UNL     1       2.554   8.118  17.648  0.00  0.00    +0.000 A 
ATOM     24  C   UNL     1       1.886   9.325  17.877  0.00  0.00    +0.000 A 
ENDBRANCH  11  19
BRANCH   7  25
ATOM     25  C   UNL     1      -0.592  14.876  22.990  0.00  0.00    +0.000 C 
BRANCH  25  26
ATOM     26  C   UNL     1      -0.738  15.892  24.111  0.00  0.00    +0.000 A 
ATOM     27  C   UNL     1      -0.484  17.252  23.864  0.00  0.00    +0.000 A 
ATOM     28  C   UNL     1      -0.656  18.204  24.871  0.00  0.00    +0.000 A 
ATOM     29  C   UNL     1      -1.088  17.802  26.133  0.00  0.00    +0.000 A 
ATOM     30  C   UNL     1      -1.338  16.457  26.394  0.00  0.00    +0.000 A 
ATOM     31  C   UNL     1      -1.165  15.505  25.387  0.00  0.00    +0.000 A 
ENDBRANCH  25  26
ENDBRANCH   7  25
TORSDOF 4
ENDMDL
MODEL 7
REMARK VINA RESULT:      -7.1      2.459      4.177
REMARK  Name = 
REMARK  6 active torsions:
REMARK  status: ('A' for Active; 'I' for Inactive)
REMARK    1  A    between atoms: C_1  and  C_2
REMARK    2  A    between atoms: C_6  and  C_7
REMARK    3  A    between atoms: N_13  and  C_14
REMARK    4  A    between atoms: C_14  and  C_15
REMARK    5  A    between atoms: C_24  and  C_25
REMARK    6  A    between atoms: C_24  and  C_26
REMARK                            x       y       z     vdW  Elec       q    Type
REMARK                         _______ _______ _______ _____ _____    ______ ____
ROOT
ATOM      1  C   UNL     1      -1.599   9.833  18.497  0.00  0.00    +0.000 C 
ATOM      2  C   UNL     1      -0.638  11.036  18.405  0.00  0.00    +0.000 C 
ATOM      3  C   UNL     1      -1.428  12.310  18.771  0.00  0.00    +0.000 C 
ATOM      4  N   UNL     1      -1.791  12.277  20.186  0.00  0.00    +0.000 NA
ATOM      5  C   UNL     1      -2.821  13.256  20.535  0.00  0.00    +0.000 C 
ATOM      6  C   UNL     1      -2.785  13.961  21.953  0.00  0.00    +0.000 C 
ATOM      7  N   UNL     1      -1.641  13.679  22.881  0.00  0.00    +0.000 NA
ATOM      8  C   UNL     1      -1.061  12.367  22.532  0.00  0.00    +0.000 C 
ATOM      9  C   UNL     1      -0.618  12.309  21.056  0.00  0.00    +0.000 C 
ATOM     10  C   UNL     1       0.227  11.058  20.797  0.00  0.00    +0.000 C 
ATOM     11  C   UNL     1       0.645  10.891  19.303  0.00  0.00    +0.000 C 
ATOM     12  C   UNL     1       1.655  12.026  18.952  0.00  0.00    +0.000 C 
ENDROOT
BRANCH   6  13
ATOM     13  C   UNL     1      -3.149  15.434  21.753  0.00  0.00    +0.000 A 
ATOM     14  C   UNL     1      -4.041  16.072  22.622  0.00  0.00    +0.000 A 
ATOM     15  C   UNL     1      -4.423  17.395  22.391  0.00  0.00    +0.000 A 
ATOM     16  C   UNL     1      -3.907  18.100  21.304  0.00  0.00    +0.000 A 
ATOM     17  C   UNL     1      -3.015  17.483  20.434  0.00  0.00    +0.000 A 
ATOM     18  C   UNL     1      -2.647  16.159  20.653  0.00  0.00    +0.000 A 
ENDBRANCH   6  13
BRANCH  11  19
ATOM     19  C   UNL     1       1.384   9.554  19.050  0.00  0.00    +0.000 A 
ATOM     20  C   UNL     1       1.965   9.237  17.808  0.00  0.00    +0.000 A 
ATOM     21  C   UNL     1       2.604   8.014  17.593  0.00  0.00    +0.000 A 
ATOM     22  C   UNL     1       2.672   7.073  18.612  0.00  0.00    +0.000 A 
ATOM     23  C   UNL     1       2.106   7.358  19.850  0.00  0.00    +0.000 A 
ATOM     24  C   UNL     1       1.473   8.586  20.068  0.00  0.00    +0.000 A 
ENDBRANCH  11  19
BRANCH   7  25
ATOM     25  C   UNL     1      -0.628  14.748  22.952  0.00  0.00    +0.000 C 
BRANCH  25  26
ATOM     26  C   UNL     1      -0.837  15.798  24.031  0.00  0.00    +0.000 A 
ATOM     27  C   UNL     1      -1.215  15.408  25.327  0.00  0.00    +0.000 A 
ATOM     28  C   UNL     1      -1.368  16.355  26.341  0.00  0.00    +0.000 A 
ATOM     29  C   UNL     1      -1.141  17.702  26.066  0.00  0.00    +0.000 A 
ATOM     30  C   UNL     1      -0.771  18.105  24.784  0.00  0.00    +0.000 A 
ATOM     31  C   UNL     1      -0.620  17.157  23.770  0.00  0.00    +0.000 A 
ENDBRANCH  25  26
ENDBRANCH   7  25
TORSDOF 4
ENDMDL
MODEL 8
REMARK VINA RESULT:      -7.1      2.113      7.508
REMARK  Name = 
REMARK  6 active torsions:
REMARK  status: ('A' for Active; 'I' for Inactive)
REMARK    1  A    between atoms: C_1  and  C_2
REMARK    2  A    between atoms: C_6  and  C_7
REMARK    3  A    between atoms: N_13  and  C_14
REMARK    4  A    between atoms: C_14  and  C_15
REMARK    5  A    between atoms: C_24  and  C_25
REMARK    6  A    between atoms: C_24  and  C_26
REMARK                            x       y       z     vdW  Elec       q    Type
REMARK                         _______ _______ _______ _____ _____    ______ ____
ROOT
ATOM      1  C   UNL     1      -4.486  13.244  21.925  0.00  0.00    +0.000 C 
ATOM      2  C   UNL     1      -3.167  13.116  22.713  0.00  0.00    +0.000 C 
ATOM      3  C   UNL     1      -2.354  11.955  22.103  0.00  0.00    +0.000 C 
ATOM      4  N   UNL     1      -1.908  12.318  20.759  0.00  0.00    +0.000 NA
ATOM      5  C   UNL     1      -1.438  11.169  19.983  0.00  0.00    +0.000 C 
ATOM      6  C   UNL     1      -0.240  11.350  18.964  0.00  0.00    +0.000 C 
ATOM      7  N   UNL     1       0.453  12.677  18.876  0.00  0.00    +0.000 NA
ATOM      8  C   UNL     1      -0.474  13.726  19.344  0.00  0.00    +0.000 C 
ATOM      9  C   UNL     1      -0.983  13.449  20.773  0.00  0.00    +0.000 C 
ATOM     10  C   UNL     1      -1.707  14.676  21.334  0.00  0.00    +0.000 C 
ATOM     11  C   UNL     1      -2.320  14.441  22.749  0.00  0.00    +0.000 C 
ATOM     12  C   UNL     1      -1.148  14.280  23.765  0.00  0.00    +0.000 C 
ENDROOT
BRANCH   6  13
ATOM     13  C   UNL     1       0.663  10.120  19.080  0.00  0.00    +0.000 A 
ATOM     14  C   UNL     1       1.360   9.639  17.965  0.00  0.00    +0.000 A 
ATOM     15  C   UNL     1       2.125   8.475  18.062  0.00  0.00    +0.000 A 
ATOM     16  C   UNL     1       2.219   7.789  19.274  0.00  0.00    +0.000 A 
ATOM     17  C   UNL     1       1.538   8.257  20.392  0.00  0.00    +0.000 A 
ATOM     18  C   UNL     1       0.761   9.407  20.292  0.00  0.00    +0.000 A 
ENDBRANCH   6  13
BRANCH  11  19
ATOM     19  C   UNL     1      -3.154  15.652  23.233  0.00  0.00    +0.000 A 
ATOM     20  C   UNL     1      -3.700  15.723  24.527  0.00  0.00    +0.000 A 
ATOM     21  C   UNL     1      -4.472  16.813  24.934  0.00  0.00    +0.000 A 
ATOM     22  C   UNL     1      -4.725  17.857  24.054  0.00  0.00    +0.000 A 
ATOM     23  C   UNL     1      -4.200  17.814  22.767  0.00  0.00    +0.000 A 
ATOM     24  C   UNL     1      -3.420  16.727  22.362  0.00  0.00    +0.000 A 
ENDBRANCH  11  19
BRANCH   7  25
ATOM     25  C   UNL     1       1.763  12.733  19.551  0.00  0.00    +0.000 C 
BRANCH  25  26
ATOM     26  C   UNL     1       2.610  13.963  19.268  0.00  0.00    +0.000 A 
ATOM     27  C   UNL     1       2.923  14.310  17.943  0.00  0.00    +0.000 A 
ATOM     28  C   UNL     1       3.662  15.461  17.662  0.00  0.00    +0.000 A 
ATOM     29  C   UNL     1       4.091  16.276  18.707  0.00  0.00    +0.000 A 
ATOM     30  C   UNL     1       3.793  15.943  20.026  0.00  0.00    +0.000 A 
ATOM     31  C   UNL     1       3.055  14.791  20.306  0.00  0.00    +0.000 A 
ENDBRANCH  25  26
ENDBRANCH   7  25
TORSDOF 4
ENDMDL
MODEL 9
REMARK VINA RESULT:      -7.0      0.280      1.220
REMARK  Name = 
REMARK  6 active torsions:
REMARK  status: ('A' for Active; 'I' for Inactive)
REMARK    1  A    between atoms: C_1  and  C_2
REMARK    2  A    between atoms: C_6  and  C_7
REMARK    3  A    between atoms: N_13  and  C_14
REMARK    4  A    between atoms: C_14  and  C_15
REMARK    5  A    between atoms: C_24  and  C_25
REMARK    6  A    between atoms: C_24  and  C_26
REMARK                            x       y       z     vdW  Elec       q    Type
REMARK                         _______ _______ _______ _____ _____    ______ ____
ROOT
ATOM      1  C   UNL     1       1.098   9.384  22.146  0.00  0.00    +0.000 C 
ATOM      2  C   UNL     1       0.020   9.703  21.091  0.00  0.00    +0.000 C 
ATOM      3  C   UNL     1      -0.779  10.930  21.577  0.00  0.00    +0.000 C 
ATOM      4  N   UNL     1       0.075  12.116  21.552  0.00  0.00    +0.000 NA
ATOM      5  C   UNL     1      -0.483  13.236  22.312  0.00  0.00    +0.000 C 
ATOM      6  C   UNL     1      -0.249  14.719  21.806  0.00  0.00    +0.000 C 
ATOM      7  N   UNL     1       0.464  14.945  20.506  0.00  0.00    +0.000 NA
ATOM      8  C   UNL     1       1.313  13.771  20.222  0.00  0.00    +0.000 C 
ATOM      9  C   UNL     1       0.496  12.463  20.198  0.00  0.00    +0.000 C 
ATOM     10  C   UNL     1       1.335  11.315  19.628  0.00  0.00    +0.000 C 
ATOM     11  C   UNL     1       0.598   9.940  19.647  0.00  0.00    +0.000 C 
ATOM     12  C   UNL     1      -0.576  10.005  18.623  0.00  0.00    +0.000 C 
ENDROOT
BRANCH   6  13
ATOM     13  C   UNL     1      -1.553  15.493  22.007  0.00  0.00    +0.000 A 
ATOM     14  C   UNL     1      -2.756  15.014  21.475  0.00  0.00    +0.000 A 
ATOM     15  C   UNL     1      -3.929  15.762  21.602  0.00  0.00    +0.000 A 
ATOM     16  C   UNL     1      -3.919  16.984  22.274  0.00  0.00    +0.000 A 
ATOM     17  C   UNL     1      -2.734  17.471  22.814  0.00  0.00    +0.000 A 
ATOM     18  C   UNL     1      -1.561  16.736  22.674  0.00  0.00    +0.000 A 
ENDBRANCH   6  13
BRANCH  11  19
ATOM     19  C   UNL     1       1.515   8.780  19.190  0.00  0.00    +0.000 A 
ATOM     20  C   UNL     1       1.796   7.673  20.010  0.00  0.00    +0.000 A 
ATOM     21  C   UNL     1       2.648   6.650  19.588  0.00  0.00    +0.000 A 
ATOM     22  C   UNL     1       3.246   6.711  18.335  0.00  0.00    +0.000 A 
ATOM     23  C   UNL     1       2.987   7.794  17.503  0.00  0.00    +0.000 A 
ATOM     24  C   UNL     1       2.128   8.815  17.922  0.00  0.00    +0.000 A 
ENDBRANCH  11  19
BRANCH   7  25
ATOM     25  C   UNL     1      -0.414  15.299  19.375  0.00  0.00    +0.000 C 
BRANCH  25  26
ATOM     26  C   UNL     1       0.055  16.448  18.498  0.00  0.00    +0.000 A 
ATOM     27  C   UNL     1      -0.881  17.339  17.947  0.00  0.00    +0.000 A 
ATOM     28  C   UNL     1      -0.464  18.425  17.175  0.00  0.00    +0.000 A 
ATOM     29  C   UNL     1       0.895  18.630  16.952  0.00  0.00    +0.000 A 
ATOM     30  C   UNL     1       1.836  17.752  17.487  0.00  0.00    +0.000 A 
ATOM     31  C   UNL     1       1.418  16.665  18.258  0.00  0.00    +0.000 A 
ENDBRANCH  25  26
ENDBRANCH   7  25
TORSDOF 4
ENDMDL
