MODEL 1
REMARK VINA RESULT:      -7.7      0.000      0.000
REMARK  Name = 
REMARK  18 active torsions:
REMARK  status: ('A' for Active; 'I' for Inactive)
REMARK    1  A    between atoms: C_1  and  C_2
REMARK    2  A    between atoms: C_2  and  O_4
REMARK    3  A    between atoms: O_4  and  C_5
REMARK    4  A    between atoms: C_5  and  C_6
REMARK    5  A    between atoms: C_6  and  O_7
REMARK    6  A    between atoms: C_6  and  C_11
REMARK    7  A    between atoms: O_7  and  C_8
REMARK    8  A    between atoms: C_8  and  C_9
REMARK    9  A    between atoms: C_11  and  C_12
REMARK   10  A    between atoms: C_11  and  O_13
REMARK   11  A    between atoms: C_11  and  C_14
REMARK   12  A    between atoms: C_15  and  C_16
REMARK   13  A    between atoms: C_17  and  C_18
REMARK   14  A    between atoms: C_17  and  C_19
REMARK   15  A    between atoms: C_20  and  C_21
REMARK   16  A    between atoms: C_22  and  C_23
REMARK   17  A    between atoms: C_27  and  C_28
REMARK   18  A    between atoms: C_27  and  C_29
REMARK                            x       y       z     vdW  Elec       q    Type
REMARK                         _______ _______ _______ _____ _____    ______ ____
ROOT
ATOM      1  C   UNL     1       3.222   5.190  19.732  0.00  0.00    +0.000 C 
ATOM      2  C   UNL     1       2.705   6.271  19.141  0.00  0.00    +0.000 C 
ENDROOT
BRANCH   2   3
ATOM      3  C   UNL     1       2.085   7.388  19.810  0.00  0.00    +0.000 C 
ATOM      4  C   UNL     1       1.751   8.550  19.208  0.00  0.00    +0.000 C 
ATOM      5  C   UNL     1       1.987   8.839  17.741  0.00  0.00    +0.000 C 
BRANCH   4   6
ATOM      6  C   UNL     1       1.150   9.625  20.002  0.00  0.00    +0.000 C 
ATOM      7  C   UNL     1      -0.172   9.842  20.143  0.00  0.00    +0.000 C 
BRANCH   7   8
ATOM      8  C   UNL     1      -0.768  10.954  20.880  0.00  0.00    +0.000 C 
ATOM      9  C   UNL     1      -0.885  10.929  22.233  0.00  0.00    +0.000 C 
ATOM     10  C   UNL     1      -0.335   9.854  23.145  0.00  0.00    +0.000 C 
ATOM     11  C   UNL     1      -1.572  12.030  23.011  0.00  0.00    +0.000 C 
ATOM     12  C   UNL     1      -2.357  13.009  22.153  0.00  0.00    +0.000 C 
ATOM     13  C   UNL     1      -1.537  13.402  20.936  0.00  0.00    +0.000 C 
ATOM     14  C   UNL     1      -1.199  12.181  20.035  0.00  0.00    +0.000 C 
ATOM     15  C   UNL     1      -0.085  12.667  19.074  0.00  0.00    +0.000 C 
ATOM     16  C   UNL     1      -2.438  11.820  19.187  0.00  0.00    +0.000 C 
ENDBRANCH   7   8
ENDBRANCH   4   6
ENDBRANCH   2   3
BRANCH   1  17
ATOM     17  C   UNL     1       3.855   4.058  18.941  0.00  0.00    +0.000 C 
ATOM     18  C   UNL     1       2.786   3.148  18.301  0.00  0.00    +0.000 C 
BRANCH  17  19
ATOM     19  O   UNL     1       4.533   3.247  19.918  0.00  0.00    +0.000 OA
ATOM     20  H   UNL     1       3.854   2.764  20.422  0.00  0.00    +0.000 HD
ENDBRANCH  17  19
BRANCH  17  21
ATOM     21  C   UNL     1       4.891   4.603  17.895  0.00  0.00    +0.000 C 
BRANCH  21  22
ATOM     22  C   UNL     1       4.699   3.956  16.495  0.00  0.00    +0.000 C 
BRANCH  22  23
ATOM     23  O   UNL     1       5.955   3.772  15.802  0.00  0.00    +0.000 OA
BRANCH  23  25
ATOM     24  C   UNL     1       6.390   3.888  13.482  0.00  0.00    +0.000 C 
ATOM     25  C   UNL     1       6.143   4.631  14.760  0.00  0.00    +0.000 C 
ATOM     26  O   UNL     1       6.094   5.851  14.840  0.00  0.00    +0.000 OA
ENDBRANCH  23  25
ENDBRANCH  22  23
ENDBRANCH  21  22
BRANCH  21  27
ATOM     27  O   UNL     1       6.286   4.353  18.315  0.00  0.00    +0.000 OA
BRANCH  27  28
ATOM     28  C   UNL     1       7.018   5.372  18.877  0.00  0.00    +0.000 C 
ATOM     29  C   UNL     1       7.353   6.522  17.955  0.00  0.00    +0.000 C 
ATOM     30  O   UNL     1       7.371   5.393  20.036  0.00  0.00    +0.000 OA
ENDBRANCH  27  28
ENDBRANCH  21  27
ENDBRANCH  17  21
ENDBRANCH   1  17
TORSDOF 11
ENDMDL
MODEL 2
REMARK VINA RESULT:      -7.5      1.525      3.499
REMARK  Name = 
REMARK  18 active torsions:
REMARK  status: ('A' for Active; 'I' for Inactive)
REMARK    1  A    between atoms: C_1  and  C_2
REMARK    2  A    between atoms: C_2  and  O_4
REMARK    3  A    between atoms: O_4  and  C_5
REMARK    4  A    between atoms: C_5  and  C_6
REMARK    5  A    between atoms: C_6  and  O_7
REMARK    6  A    between atoms: C_6  and  C_11
REMARK    7  A    between atoms: O_7  and  C_8
REMARK    8  A    between atoms: C_8  and  C_9
REMARK    9  A    between atoms: C_11  and  C_12
REMARK   10  A    between atoms: C_11  and  O_13
REMARK   11  A    between atoms: C_11  and  C_14
REMARK   12  A    between atoms: C_15  and  C_16
REMARK   13  A    between atoms: C_17  and  C_18
REMARK   14  A    between atoms: C_17  and  C_19
REMARK   15  A    between atoms: C_20  and  C_21
REMARK   16  A    between atoms: C_22  and  C_23
REMARK   17  A    between atoms: C_27  and  C_28
REMARK   18  A    between atoms: C_27  and  C_29
REMARK                            x       y       z     vdW  Elec       q    Type
REMARK                         _______ _______ _______ _____ _____    ______ ____
ROOT
ATOM      1  C   UNL     1       4.064   5.330  17.099  0.00  0.00    +0.000 C 
ATOM      2  C   UNL     1       3.938   6.154  18.143  0.00  0.00    +0.000 C 
ENDROOT
BRANCH   2   3
ATOM      3  C   UNL     1       3.190   7.386  18.166  0.00  0.00    +0.000 C 
ATOM      4  C   UNL     1       2.279   7.709  19.109  0.00  0.00    +0.000 C 
ATOM      5  C   UNL     1       1.916   6.814  20.275  0.00  0.00    +0.000 C 
BRANCH   4   6
ATOM      6  C   UNL     1       1.560   8.982  19.009  0.00  0.00    +0.000 C 
ATOM      7  C   UNL     1       0.492   9.333  19.751  0.00  0.00    +0.000 C 
BRANCH   7   8
ATOM      8  C   UNL     1      -0.264  10.575  19.604  0.00  0.00    +0.000 C 
ATOM      9  C   UNL     1      -1.068  10.796  18.532  0.00  0.00    +0.000 C 
ATOM     10  C   UNL     1      -1.379   9.794  17.443  0.00  0.00    +0.000 C 
ATOM     11  C   UNL     1      -1.795  12.106  18.317  0.00  0.00    +0.000 C 
ATOM     12  C   UNL     1      -1.340  13.234  19.230  0.00  0.00    +0.000 C 
ATOM     13  C   UNL     1      -1.201  12.722  20.652  0.00  0.00    +0.000 C 
ATOM     14  C   UNL     1      -0.141  11.591  20.771  0.00  0.00    +0.000 C 
ATOM     15  C   UNL     1      -0.376  10.941  22.157  0.00  0.00    +0.000 C 
ATOM     16  C   UNL     1       1.270  12.218  20.769  0.00  0.00    +0.000 C 
ENDBRANCH   7   8
ENDBRANCH   4   6
ENDBRANCH   2   3
BRANCH   1  17
ATOM     17  C   UNL     1       4.879   4.050  17.169  0.00  0.00    +0.000 C 
ATOM     18  C   UNL     1       3.997   2.804  16.947  0.00  0.00    +0.000 C 
BRANCH  17  19
ATOM     19  O   UNL     1       5.342   3.971  18.529  0.00  0.00    +0.000 OA
ATOM     20  H   UNL     1       5.073   3.105  18.883  0.00  0.00    +0.000 HD
ENDBRANCH  17  19
BRANCH  17  21
ATOM     21  C   UNL     1       6.109   4.103  16.194  0.00  0.00    +0.000 C 
BRANCH  21  22
ATOM     22  C   UNL     1       7.348   4.765  16.858  0.00  0.00    +0.000 C 
BRANCH  22  23
ATOM     23  O   UNL     1       7.517   6.142  16.449  0.00  0.00    +0.000 OA
BRANCH  23  25
ATOM     24  C   UNL     1       7.846   6.342  18.780  0.00  0.00    +0.000 C 
ATOM     25  C   UNL     1       7.541   7.028  17.484  0.00  0.00    +0.000 C 
ATOM     26  O   UNL     1       7.362   8.234  17.378  0.00  0.00    +0.000 OA
ENDBRANCH  23  25
ENDBRANCH  22  23
ENDBRANCH  21  22
BRANCH  21  27
ATOM     27  O   UNL     1       5.806   4.860  14.961  0.00  0.00    +0.000 OA
BRANCH  27  28
ATOM     28  C   UNL     1       6.521   4.602  13.815  0.00  0.00    +0.000 C 
ATOM     29  C   UNL     1       6.003   3.464  12.965  0.00  0.00    +0.000 C 
ATOM     30  O   UNL     1       7.494   5.234  13.466  0.00  0.00    +0.000 OA
ENDBRANCH  27  28
ENDBRANCH  21  27
ENDBRANCH  17  21
ENDBRANCH   1  17
TORSDOF 11
ENDMDL
MODEL 3
REMARK VINA RESULT:      -7.5      1.360      2.547
REMARK  Name = 
REMARK  18 active torsions:
REMARK  status: ('A' for Active; 'I' for Inactive)
REMARK    1  A    between atoms: C_1  and  C_2
REMARK    2  A    between atoms: C_2  and  O_4
REMARK    3  A    between atoms: O_4  and  C_5
REMARK    4  A    between atoms: C_5  and  C_6
REMARK    5  A    between atoms: C_6  and  O_7
REMARK    6  A    between atoms: C_6  and  C_11
REMARK    7  A    between atoms: O_7  and  C_8
REMARK    8  A    between atoms: C_8  and  C_9
REMARK    9  A    between atoms: C_11  and  C_12
REMARK   10  A    between atoms: C_11  and  O_13
REMARK   11  A    between atoms: C_11  and  C_14
REMARK   12  A    between atoms: C_15  and  C_16
REMARK   13  A    between atoms: C_17  and  C_18
REMARK   14  A    between atoms: C_17  and  C_19
REMARK   15  A    between atoms: C_20  and  C_21
REMARK   16  A    between atoms: C_22  and  C_23
REMARK   17  A    between atoms: C_27  and  C_28
REMARK   18  A    between atoms: C_27  and  C_29
REMARK                            x       y       z     vdW  Elec       q    Type
REMARK                         _______ _______ _______ _____ _____    ______ ____
ROOT
ATOM      1  C   UNL     1       3.527   5.952  19.030  0.00  0.00    +0.000 C 
ATOM      2  C   UNL     1       3.081   7.171  18.714  0.00  0.00    +0.000 C 
ENDROOT
BRANCH   2   3
ATOM      3  C   UNL     1       1.994   7.869  19.357  0.00  0.00    +0.000 C 
ATOM      4  C   UNL     1       1.541   9.084  18.984  0.00  0.00    +0.000 C 
ATOM      5  C   UNL     1       2.116   9.885  17.836  0.00  0.00    +0.000 C 
BRANCH   4   6
ATOM      6  C   UNL     1       0.446   9.705  19.734  0.00  0.00    +0.000 C 
ATOM      7  C   UNL     1       0.568  10.771  20.549  0.00  0.00    +0.000 C 
BRANCH   7   8
ATOM      8  C   UNL     1      -0.512  11.348  21.348  0.00  0.00    +0.000 C 
ATOM      9  C   UNL     1      -0.871  10.819  22.546  0.00  0.00    +0.000 C 
ATOM     10  C   UNL     1      -0.166   9.683  23.254  0.00  0.00    +0.000 C 
ATOM     11  C   UNL     1      -2.038  11.347  23.352  0.00  0.00    +0.000 C 
ATOM     12  C   UNL     1      -2.935  12.315  22.597  0.00  0.00    +0.000 C 
ATOM     13  C   UNL     1      -2.087  13.316  21.832  0.00  0.00    +0.000 C 
ATOM     14  C   UNL     1      -1.174  12.629  20.777  0.00  0.00    +0.000 C 
ATOM     15  C   UNL     1      -0.138  13.703  20.359  0.00  0.00    +0.000 C 
ATOM     16  C   UNL     1      -2.019  12.270  19.535  0.00  0.00    +0.000 C 
ENDBRANCH   7   8
ENDBRANCH   4   6
ENDBRANCH   2   3
BRANCH   1  17
ATOM     17  C   UNL     1       4.681   5.294  18.291  0.00  0.00    +0.000 C 
ATOM     18  C   UNL     1       5.856   4.981  19.240  0.00  0.00    +0.000 C 
BRANCH  17  19
ATOM     19  O   UNL     1       5.165   6.297  17.378  0.00  0.00    +0.000 OA
ATOM     20  H   UNL     1       4.589   6.284  16.594  0.00  0.00    +0.000 HD
ENDBRANCH  17  19
BRANCH  17  21
ATOM     21  C   UNL     1       4.199   4.035  17.487  0.00  0.00    +0.000 C 
BRANCH  21  22
ATOM     22  C   UNL     1       4.631   4.098  15.995  0.00  0.00    +0.000 C 
BRANCH  22  23
ATOM     23  O   UNL     1       6.007   3.698  15.808  0.00  0.00    +0.000 OA
BRANCH  23  25
ATOM     24  C   UNL     1       6.471   4.028  13.515  0.00  0.00    +0.000 C 
ATOM     25  C   UNL     1       6.696   4.477  14.926  0.00  0.00    +0.000 C 
ATOM     26  O   UNL     1       7.391   5.436  15.233  0.00  0.00    +0.000 OA
ENDBRANCH  23  25
ENDBRANCH  22  23
ENDBRANCH  21  22
BRANCH  21  27
ATOM     27  O   UNL     1       2.729   3.886  17.519  0.00  0.00    +0.000 OA
BRANCH  27  28
ATOM     28  C   UNL     1       2.176   2.734  18.026  0.00  0.00    +0.000 C 
ATOM     29  C   UNL     1       3.152   1.618  18.325  0.00  0.00    +0.000 C 
ATOM     30  O   UNL     1       0.994   2.591  18.250  0.00  0.00    +0.000 OA
ENDBRANCH  27  28
ENDBRANCH  21  27
ENDBRANCH  17  21
ENDBRANCH   1  17
TORSDOF 11
ENDMDL
MODEL 4
REMARK VINA RESULT:      -7.5      1.611      3.649
REMARK  Name = 
REMARK  18 active torsions:
REMARK  status: ('A' for Active; 'I' for Inactive)
REMARK    1  A    between atoms: C_1  and  C_2
REMARK    2  A    between atoms: C_2  and  O_4
REMARK    3  A    between atoms: O_4  and  C_5
REMARK    4  A    between atoms: C_5  and  C_6
REMARK    5  A    between atoms: C_6  and  O_7
REMARK    6  A    between atoms: C_6  and  C_11
REMARK    7  A    between atoms: O_7  and  C_8
REMARK    8  A    between atoms: C_8  and  C_9
REMARK    9  A    between atoms: C_11  and  C_12
REMARK   10  A    between atoms: C_11  and  O_13
REMARK   11  A    between atoms: C_11  and  C_14
REMARK   12  A    between atoms: C_15  and  C_16
REMARK   13  A    between atoms: C_17  and  C_18
REMARK   14  A    between atoms: C_17  and  C_19
REMARK   15  A    between atoms: C_20  and  C_21
REMARK   16  A    between atoms: C_22  and  C_23
REMARK   17  A    between atoms: C_27  and  C_28
REMARK   18  A    between atoms: C_27  and  C_29
REMARK                            x       y       z     vdW  Elec       q    Type
REMARK                         _______ _______ _______ _____ _____    ______ ____
ROOT
ATOM      1  C   UNL     1       3.147   5.769  17.760  0.00  0.00    +0.000 C 
ATOM      2  C   UNL     1       3.491   7.059  17.714  0.00  0.00    +0.000 C 
ENDROOT
BRANCH   2   3
ATOM      3  C   UNL     1       2.615   8.179  17.955  0.00  0.00    +0.000 C 
ATOM      4  C   UNL     1       1.932   8.382  19.102  0.00  0.00    +0.000 C 
ATOM      5  C   UNL     1       1.993   7.455  20.297  0.00  0.00    +0.000 C 
BRANCH   4   6
ATOM      6  C   UNL     1       1.049   9.545  19.217  0.00  0.00    +0.000 C 
ATOM      7  C   UNL     1       0.003   9.648  20.060  0.00  0.00    +0.000 C 
BRANCH   7   8
ATOM      8  C   UNL     1      -0.917  10.782  20.127  0.00  0.00    +0.000 C 
ATOM      9  C   UNL     1      -1.835  11.011  19.153  0.00  0.00    +0.000 C 
ATOM     10  C   UNL     1      -2.112  10.107  17.972  0.00  0.00    +0.000 C 
ATOM     11  C   UNL     1      -2.742  12.223  19.158  0.00  0.00    +0.000 C 
ATOM     12  C   UNL     1      -2.356  13.290  20.170  0.00  0.00    +0.000 C 
ATOM     13  C   UNL     1      -2.025  12.643  21.503  0.00  0.00    +0.000 C 
ATOM     14  C   UNL     1      -0.822  11.663  21.400  0.00  0.00    +0.000 C 
ATOM     15  C   UNL     1      -0.846  10.832  22.707  0.00  0.00    +0.000 C 
ATOM     16  C   UNL     1       0.491  12.476  21.373  0.00  0.00    +0.000 C 
ENDBRANCH   7   8
ENDBRANCH   4   6
ENDBRANCH   2   3
BRANCH   1  17
ATOM     17  C   UNL     1       4.143   4.654  17.488  0.00  0.00    +0.000 C 
ATOM     18  C   UNL     1       4.993   4.948  16.234  0.00  0.00    +0.000 C 
BRANCH  17  19
ATOM     19  O   UNL     1       3.342   3.503  17.162  0.00  0.00    +0.000 OA
ATOM     20  H   UNL     1       3.868   2.710  17.365  0.00  0.00    +0.000 HD
ENDBRANCH  17  19
BRANCH  17  21
ATOM     21  C   UNL     1       5.017   4.348  18.755  0.00  0.00    +0.000 C 
BRANCH  21  22
ATOM     22  C   UNL     1       4.144   4.103  20.017  0.00  0.00    +0.000 C 
BRANCH  22  23
ATOM     23  O   UNL     1       3.395   2.869  19.931  0.00  0.00    +0.000 OA
BRANCH  23  25
ATOM     24  C   UNL     1       1.050   3.153  20.004  0.00  0.00    +0.000 C 
ATOM     25  C   UNL     1       2.306   2.824  20.751  0.00  0.00    +0.000 C 
ATOM     26  O   UNL     1       2.336   2.529  21.938  0.00  0.00    +0.000 OA
ENDBRANCH  23  25
ENDBRANCH  22  23
ENDBRANCH  21  22
BRANCH  21  27
ATOM     27  O   UNL     1       5.949   5.453  19.066  0.00  0.00    +0.000 OA
BRANCH  27  28
ATOM     28  C   UNL     1       7.224   5.428  18.552  0.00  0.00    +0.000 C 
ATOM     29  C   UNL     1       7.842   6.779  18.273  0.00  0.00    +0.000 C 
ATOM     30  O   UNL     1       7.850   4.412  18.342  0.00  0.00    +0.000 OA
ENDBRANCH  27  28
ENDBRANCH  21  27
ENDBRANCH  17  21
ENDBRANCH   1  17
TORSDOF 11
ENDMDL
MODEL 5
REMARK VINA RESULT:      -7.5      0.998      2.686
REMARK  Name = 
REMARK  18 active torsions:
REMARK  status: ('A' for Active; 'I' for Inactive)
REMARK    1  A    between atoms: C_1  and  C_2
REMARK    2  A    between atoms: C_2  and  O_4
REMARK    3  A    between atoms: O_4  and  C_5
REMARK    4  A    between atoms: C_5  and  C_6
REMARK    5  A    between atoms: C_6  and  O_7
REMARK    6  A    between atoms: C_6  and  C_11
REMARK    7  A    between atoms: O_7  and  C_8
REMARK    8  A    between atoms: C_8  and  C_9
REMARK    9  A    between atoms: C_11  and  C_12
REMARK   10  A    between atoms: C_11  and  O_13
REMARK   11  A    between atoms: C_11  and  C_14
REMARK   12  A    between atoms: C_15  and  C_16
REMARK   13  A    between atoms: C_17  and  C_18
REMARK   14  A    between atoms: C_17  and  C_19
REMARK   15  A    between atoms: C_20  and  C_21
REMARK   16  A    between atoms: C_22  and  C_23
REMARK   17  A    between atoms: C_27  and  C_28
REMARK   18  A    between atoms: C_27  and  C_29
REMARK                            x       y       z     vdW  Elec       q    Type
REMARK                         _______ _______ _______ _____ _____    ______ ____
ROOT
ATOM      1  C   UNL     1       3.655   4.721  19.102  0.00  0.00    +0.000 C 
ATOM      2  C   UNL     1       2.546   5.427  18.861  0.00  0.00    +0.000 C 
ENDROOT
BRANCH   2   3
ATOM      3  C   UNL     1       2.065   6.541  19.640  0.00  0.00    +0.000 C 
ATOM      4  C   UNL     1       2.045   7.821  19.212  0.00  0.00    +0.000 C 
ATOM      5  C   UNL     1       2.530   8.263  17.848  0.00  0.00    +0.000 C 
BRANCH   4   6
ATOM      6  C   UNL     1       1.557   8.872  20.108  0.00  0.00    +0.000 C 
ATOM      7  C   UNL     1       0.431   9.589  19.926  0.00  0.00    +0.000 C 
BRANCH   7   8
ATOM      8  C   UNL     1      -0.019  10.682  20.786  0.00  0.00    +0.000 C 
ATOM      9  C   UNL     1      -0.474  10.456  22.045  0.00  0.00    +0.000 C 
ATOM     10  C   UNL     1      -0.474   9.120  22.755  0.00  0.00    +0.000 C 
ATOM     11  C   UNL     1      -1.023  11.560  22.924  0.00  0.00    +0.000 C 
ATOM     12  C   UNL     1      -1.281  12.870  22.196  0.00  0.00    +0.000 C 
ATOM     13  C   UNL     1      -0.108  13.197  21.289  0.00  0.00    +0.000 C 
ATOM     14  C   UNL     1       0.114  12.112  20.198  0.00  0.00    +0.000 C 
ATOM     15  C   UNL     1       1.521  12.389  19.612  0.00  0.00    +0.000 C 
ATOM     16  C   UNL     1      -0.922  12.310  19.070  0.00  0.00    +0.000 C 
ENDBRANCH   7   8
ENDBRANCH   4   6
ENDBRANCH   2   3
BRANCH   1  17
ATOM     17  C   UNL     1       4.081   3.557  18.223  0.00  0.00    +0.000 C 
ATOM     18  C   UNL     1       2.876   2.924  17.498  0.00  0.00    +0.000 C 
BRANCH  17  19
ATOM     19  O   UNL     1       4.566   2.554  19.134  0.00  0.00    +0.000 OA
ATOM     20  H   UNL     1       5.022   1.874  18.609  0.00  0.00    +0.000 HD
ENDBRANCH  17  19
BRANCH  17  21
ATOM     21  C   UNL     1       5.229   3.977  17.238  0.00  0.00    +0.000 C 
BRANCH  21  22
ATOM     22  C   UNL     1       6.092   5.135  17.812  0.00  0.00    +0.000 C 
BRANCH  22  23
ATOM     23  O   UNL     1       7.247   4.650  18.534  0.00  0.00    +0.000 OA
BRANCH  23  25
ATOM     24  C   UNL     1       8.095   6.851  18.678  0.00  0.00    +0.000 C 
ATOM     25  C   UNL     1       7.794   5.565  19.384  0.00  0.00    +0.000 C 
ATOM     26  O   UNL     1       7.995   5.379  20.577  0.00  0.00    +0.000 OA
ENDBRANCH  23  25
ENDBRANCH  22  23
ENDBRANCH  21  22
BRANCH  21  27
ATOM     27  O   UNL     1       4.703   4.419  15.929  0.00  0.00    +0.000 OA
BRANCH  27  28
ATOM     28  C   UNL     1       5.465   5.244  15.137  0.00  0.00    +0.000 C 
ATOM     29  C   UNL     1       6.537   4.558  14.321  0.00  0.00    +0.000 C 
ATOM     30  O   UNL     1       5.305   6.442  15.055  0.00  0.00    +0.000 OA
ENDBRANCH  27  28
ENDBRANCH  21  27
ENDBRANCH  17  21
ENDBRANCH   1  17
TORSDOF 11
ENDMDL
MODEL 6
REMARK VINA RESULT:      -7.4      1.348      2.785
REMARK  Name = 
REMARK  18 active torsions:
REMARK  status: ('A' for Active; 'I' for Inactive)
REMARK    1  A    between atoms: C_1  and  C_2
REMARK    2  A    between atoms: C_2  and  O_4
REMARK    3  A    between atoms: O_4  and  C_5
REMARK    4  A    between atoms: C_5  and  C_6
REMARK    5  A    between atoms: C_6  and  O_7
REMARK    6  A    between atoms: C_6  and  C_11
REMARK    7  A    between atoms: O_7  and  C_8
REMARK    8  A    between atoms: C_8  and  C_9
REMARK    9  A    between atoms: C_11  and  C_12
REMARK   10  A    between atoms: C_11  and  O_13
REMARK   11  A    between atoms: C_11  and  C_14
REMARK   12  A    between atoms: C_15  and  C_16
REMARK   13  A    between atoms: C_17  and  C_18
REMARK   14  A    between atoms: C_17  and  C_19
REMARK   15  A    between atoms: C_20  and  C_21
REMARK   16  A    between atoms: C_22  and  C_23
REMARK   17  A    between atoms: C_27  and  C_28
REMARK   18  A    between atoms: C_27  and  C_29
REMARK                            x       y       z     vdW  Elec       q    Type
REMARK                         _______ _______ _______ _____ _____    ______ ____
ROOT
ATOM      1  C   UNL     1       4.381   6.442  17.598  0.00  0.00    +0.000 C 
ATOM      2  C   UNL     1       3.087   6.663  17.846  0.00  0.00    +0.000 C 
ENDROOT
BRANCH   2   3
ATOM      3  C   UNL     1       2.540   7.793  18.555  0.00  0.00    +0.000 C 
ATOM      4  C   UNL     1       1.942   7.719  19.763  0.00  0.00    +0.000 C 
ATOM      5  C   UNL     1       1.761   6.433  20.540  0.00  0.00    +0.000 C 
BRANCH   4   6
ATOM      6  C   UNL     1       1.398   8.936  20.372  0.00  0.00    +0.000 C 
ATOM      7  C   UNL     1       0.096   9.282  20.393  0.00  0.00    +0.000 C 
BRANCH   7   8
ATOM      8  C   UNL     1      -0.436  10.527  20.942  0.00  0.00    +0.000 C 
ATOM      9  C   UNL     1      -0.648  10.684  22.274  0.00  0.00    +0.000 C 
ATOM     10  C   UNL     1      -0.274   9.688  23.349  0.00  0.00    +0.000 C 
ATOM     11  C   UNL     1      -1.274  11.933  22.857  0.00  0.00    +0.000 C 
ATOM     12  C   UNL     1      -1.895  12.863  21.827  0.00  0.00    +0.000 C 
ATOM     13  C   UNL     1      -0.957  13.022  20.644  0.00  0.00    +0.000 C 
ATOM     14  C   UNL     1      -0.681  11.672  19.924  0.00  0.00    +0.000 C 
ATOM     15  C   UNL     1       0.541  11.929  19.007  0.00  0.00    +0.000 C 
ATOM     16  C   UNL     1      -1.888  11.322  19.027  0.00  0.00    +0.000 C 
ENDBRANCH   7   8
ENDBRANCH   4   6
ENDBRANCH   2   3
BRANCH   1  17
ATOM     17  C   UNL     1       4.865   5.216  16.841  0.00  0.00    +0.000 C 
ATOM     18  C   UNL     1       5.430   5.592  15.456  0.00  0.00    +0.000 C 
BRANCH  17  19
ATOM     19  O   UNL     1       3.681   4.438  16.588  0.00  0.00    +0.000 OA
ATOM     20  H   UNL     1       3.162   4.903  15.909  0.00  0.00    +0.000 HD
ENDBRANCH  17  19
BRANCH  17  21
ATOM     21  C   UNL     1       5.875   4.378  17.702  0.00  0.00    +0.000 C 
BRANCH  21  22
ATOM     22  C   UNL     1       5.502   4.389  19.210  0.00  0.00    +0.000 C 
BRANCH  22  23
ATOM     23  O   UNL     1       4.218   3.772  19.459  0.00  0.00    +0.000 OA
BRANCH  23  25
ATOM     24  C   UNL     1       3.349   1.683  18.778  0.00  0.00    +0.000 C 
ATOM     25  C   UNL     1       4.283   2.428  19.682  0.00  0.00    +0.000 C 
ATOM     26  O   UNL     1       5.021   1.888  20.494  0.00  0.00    +0.000 OA
ENDBRANCH  23  25
ENDBRANCH  22  23
ENDBRANCH  21  22
BRANCH  21  27
ATOM     27  O   UNL     1       7.259   4.884  17.581  0.00  0.00    +0.000 OA
BRANCH  27  28
ATOM     28  C   UNL     1       7.757   5.730  18.543  0.00  0.00    +0.000 C 
ATOM     29  C   UNL     1       7.812   7.192  18.163  0.00  0.00    +0.000 C 
ATOM     30  O   UNL     1       8.118   5.369  19.642  0.00  0.00    +0.000 OA
ENDBRANCH  27  28
ENDBRANCH  21  27
ENDBRANCH  17  21
ENDBRANCH   1  17
TORSDOF 11
ENDMDL
MODEL 7
REMARK VINA RESULT:      -7.3      0.992      1.074
REMARK  Name = 
REMARK  18 active torsions:
REMARK  status: ('A' for Active; 'I' for Inactive)
REMARK    1  A    between atoms: C_1  and  C_2
REMARK    2  A    between atoms: C_2  and  O_4
REMARK    3  A    between atoms: O_4  and  C_5
REMARK    4  A    between atoms: C_5  and  C_6
REMARK    5  A    between atoms: C_6  and  O_7
REMARK    6  A    between atoms: C_6  and  C_11
REMARK    7  A    between atoms: O_7  and  C_8
REMARK    8  A    between atoms: C_8  and  C_9
REMARK    9  A    between atoms: C_11  and  C_12
REMARK   10  A    between atoms: C_11  and  O_13
REMARK   11  A    between atoms: C_11  and  C_14
REMARK   12  A    between atoms: C_15  and  C_16
REMARK   13  A    between atoms: C_17  and  C_18
REMARK   14  A    between atoms: C_17  and  C_19
REMARK   15  A    between atoms: C_20  and  C_21
REMARK   16  A    between atoms: C_22  and  C_23
REMARK   17  A    between atoms: C_27  and  C_28
REMARK   18  A    between atoms: C_27  and  C_29
REMARK                            x       y       z     vdW  Elec       q    Type
REMARK                         _______ _______ _______ _____ _____    ______ ____
ROOT
ATOM      1  C   UNL     1       2.656   5.269  19.115  0.00  0.00    +0.000 C 
ATOM      2  C   UNL     1       2.659   6.592  18.932  0.00  0.00    +0.000 C 
ENDROOT
BRANCH   2   3
ATOM      3  C   UNL     1       1.755   7.535  19.541  0.00  0.00    +0.000 C 
ATOM      4  C   UNL     1       1.479   8.760  19.044  0.00  0.00    +0.000 C 
ATOM      5  C   UNL     1       2.089   9.313  17.773  0.00  0.00    +0.000 C 
BRANCH   4   6
ATOM      6  C   UNL     1       0.562   9.641  19.770  0.00  0.00    +0.000 C 
ATOM      7  C   UNL     1       0.929  10.585  20.659  0.00  0.00    +0.000 C 
BRANCH   7   8
ATOM      8  C   UNL     1       0.010  11.418  21.431  0.00  0.00    +0.000 C 
ATOM      9  C   UNL     1      -0.650  10.933  22.514  0.00  0.00    +0.000 C 
ATOM     10  C   UNL     1      -0.455   9.563  23.124  0.00  0.00    +0.000 C 
ATOM     11  C   UNL     1      -1.669  11.750  23.280  0.00  0.00    +0.000 C 
ATOM     12  C   UNL     1      -2.094  13.034  22.585  0.00  0.00    +0.000 C 
ATOM     13  C   UNL     1      -0.874  13.751  22.034  0.00  0.00    +0.000 C 
ATOM     14  C   UNL     1      -0.115  12.897  20.980  0.00  0.00    +0.000 C 
ATOM     15  C   UNL     1       1.261  13.585  20.796  0.00  0.00    +0.000 C 
ATOM     16  C   UNL     1      -0.869  12.968  19.634  0.00  0.00    +0.000 C 
ENDBRANCH   7   8
ENDBRANCH   4   6
ENDBRANCH   2   3
BRANCH   1  17
ATOM     17  C   UNL     1       3.651   4.351  18.425  0.00  0.00    +0.000 C 
ATOM     18  C   UNL     1       2.968   3.483  17.348  0.00  0.00    +0.000 C 
BRANCH  17  19
ATOM     19  O   UNL     1       4.094   3.439  19.446  0.00  0.00    +0.000 OA
ATOM     20  H   UNL     1       3.349   3.292  20.054  0.00  0.00    +0.000 HD
ENDBRANCH  17  19
BRANCH  17  21
ATOM     21  C   UNL     1       4.877   5.157  17.867  0.00  0.00    +0.000 C 
BRANCH  21  22
ATOM     22  C   UNL     1       5.607   4.390  16.729  0.00  0.00    +0.000 C 
BRANCH  22  23
ATOM     23  O   UNL     1       5.573   5.110  15.476  0.00  0.00    +0.000 OA
BRANCH  23  25
ATOM     24  C   UNL     1       6.168   3.845  13.571  0.00  0.00    +0.000 C 
ATOM     25  C   UNL     1       6.602   4.807  14.634  0.00  0.00    +0.000 C 
ATOM     26  O   UNL     1       7.731   5.272  14.713  0.00  0.00    +0.000 OA
ENDBRANCH  23  25
ENDBRANCH  22  23
ENDBRANCH  21  22
BRANCH  21  27
ATOM     27  O   UNL     1       5.873   5.449  18.919  0.00  0.00    +0.000 OA
BRANCH  27  28
ATOM     28  C   UNL     1       7.207   5.509  18.590  0.00  0.00    +0.000 C 
ATOM     29  C   UNL     1       7.721   6.873  18.190  0.00  0.00    +0.000 C 
ATOM     30  O   UNL     1       7.957   4.557  18.627  0.00  0.00    +0.000 OA
ENDBRANCH  27  28
ENDBRANCH  21  27
ENDBRANCH  17  21
ENDBRANCH   1  17
TORSDOF 11
ENDMDL
MODEL 8
REMARK VINA RESULT:      -7.3      1.267      3.125
REMARK  Name = 
REMARK  18 active torsions:
REMARK  status: ('A' for Active; 'I' for Inactive)
REMARK    1  A    between atoms: C_1  and  C_2
REMARK    2  A    between atoms: C_2  and  O_4
REMARK    3  A    between atoms: O_4  and  C_5
REMARK    4  A    between atoms: C_5  and  C_6
REMARK    5  A    between atoms: C_6  and  O_7
REMARK    6  A    between atoms: C_6  and  C_11
REMARK    7  A    between atoms: O_7  and  C_8
REMARK    8  A    between atoms: C_8  and  C_9
REMARK    9  A    between atoms: C_11  and  C_12
REMARK   10  A    between atoms: C_11  and  O_13
REMARK   11  A    between atoms: C_11  and  C_14
REMARK   12  A    between atoms: C_15  and  C_16
REMARK   13  A    between atoms: C_17  and  C_18
REMARK   14  A    between atoms: C_17  and  C_19
REMARK   15  A    between atoms: C_20  and  C_21
REMARK   16  A    between atoms: C_22  and  C_23
REMARK   17  A    between atoms: C_27  and  C_28
REMARK   18  A    between atoms: C_27  and  C_29
REMARK                            x       y       z     vdW  Elec       q    Type
REMARK                         _______ _______ _______ _____ _____    ______ ____
ROOT
ATOM      1  C   UNL     1       3.965   5.193  17.680  0.00  0.00    +0.000 C 
ATOM      2  C   UNL     1       3.753   5.535  18.954  0.00  0.00    +0.000 C 
ENDROOT
BRANCH   2   3
ATOM      3  C   UNL     1       3.186   6.778  19.414  0.00  0.00    +0.000 C 
ATOM      4  C   UNL     1       2.123   6.873  20.241  0.00  0.00    +0.000 C 
ATOM      5  C   UNL     1       1.375   5.680  20.797  0.00  0.00    +0.000 C 
BRANCH   4   6
ATOM      6  C   UNL     1       1.620   8.197  20.617  0.00  0.00    +0.000 C 
ATOM      7  C   UNL     1       0.332   8.587  20.554  0.00  0.00    +0.000 C 
BRANCH   7   8
ATOM      8  C   UNL     1      -0.158   9.928  20.866  0.00  0.00    +0.000 C 
ATOM      9  C   UNL     1      -0.396  10.318  22.145  0.00  0.00    +0.000 C 
ATOM     10  C   UNL     1      -0.094   9.506  23.385  0.00  0.00    +0.000 C 
ATOM     11  C   UNL     1      -0.981  11.671  22.488  0.00  0.00    +0.000 C 
ATOM     12  C   UNL     1      -1.535  12.436  21.295  0.00  0.00    +0.000 C 
ATOM     13  C   UNL     1      -0.561  12.354  20.133  0.00  0.00    +0.000 C 
ATOM     14  C   UNL     1      -0.328  10.891  19.662  0.00  0.00    +0.000 C 
ATOM     15  C   UNL     1       0.927  10.939  18.754  0.00  0.00    +0.000 C 
ATOM     16  C   UNL     1      -1.526  10.440  18.799  0.00  0.00    +0.000 C 
ENDBRANCH   7   8
ENDBRANCH   4   6
ENDBRANCH   2   3
BRANCH   1  17
ATOM     17  C   UNL     1       4.572   3.856  17.289  0.00  0.00    +0.000 C 
ATOM     18  C   UNL     1       3.509   2.897  16.714  0.00  0.00    +0.000 C 
BRANCH  17  19
ATOM     19  O   UNL     1       5.011   3.265  18.526  0.00  0.00    +0.000 OA
ATOM     20  H   UNL     1       5.289   3.988  19.116  0.00  0.00    +0.000 HD
ENDBRANCH  17  19
BRANCH  17  21
ATOM     21  C   UNL     1       5.800   4.046  16.329  0.00  0.00    +0.000 C 
BRANCH  21  22
ATOM     22  C   UNL     1       6.837   5.051  16.905  0.00  0.00    +0.000 C 
BRANCH  22  23
ATOM     23  O   UNL     1       7.446   4.569  18.124  0.00  0.00    +0.000 OA
BRANCH  23  25
ATOM     24  C   UNL     1       7.866   6.877  18.407  0.00  0.00    +0.000 C 
ATOM     25  C   UNL     1       7.668   5.541  19.054  0.00  0.00    +0.000 C 
ATOM     26  O   UNL     1       7.682   5.361  20.264  0.00  0.00    +0.000 OA
ENDBRANCH  23  25
ENDBRANCH  22  23
ENDBRANCH  21  22
BRANCH  21  27
ATOM     27  O   UNL     1       5.391   4.540  14.998  0.00  0.00    +0.000 OA
BRANCH  27  28
ATOM     28  C   UNL     1       6.120   4.181  13.889  0.00  0.00    +0.000 C 
ATOM     29  C   UNL     1       7.369   4.995  13.636  0.00  0.00    +0.000 C 
ATOM     30  O   UNL     1       5.825   3.266  13.151  0.00  0.00    +0.000 OA
ENDBRANCH  27  28
ENDBRANCH  21  27
ENDBRANCH  17  21
ENDBRANCH   1  17
TORSDOF 11
ENDMDL
MODEL 9
REMARK VINA RESULT:      -7.3      5.372      7.972
REMARK  Name = 
REMARK  18 active torsions:
REMARK  status: ('A' for Active; 'I' for Inactive)
REMARK    1  A    between atoms: C_1  and  C_2
REMARK    2  A    between atoms: C_2  and  O_4
REMARK    3  A    between atoms: O_4  and  C_5
REMARK    4  A    between atoms: C_5  and  C_6
REMARK    5  A    between atoms: C_6  and  O_7
REMARK    6  A    between atoms: C_6  and  C_11
REMARK    7  A    between atoms: O_7  and  C_8
REMARK    8  A    between atoms: C_8  and  C_9
REMARK    9  A    between atoms: C_11  and  C_12
REMARK   10  A    between atoms: C_11  and  O_13
REMARK   11  A    between atoms: C_11  and  C_14
REMARK   12  A    between atoms: C_15  and  C_16
REMARK   13  A    between atoms: C_17  and  C_18
REMARK   14  A    between atoms: C_17  and  C_19
REMARK   15  A    between atoms: C_20  and  C_21
REMARK   16  A    between atoms: C_22  and  C_23
REMARK   17  A    between atoms: C_27  and  C_28
REMARK   18  A    between atoms: C_27  and  C_29
REMARK                            x       y       z     vdW  Elec       q    Type
REMARK                         _______ _______ _______ _____ _____    ______ ____
ROOT
ATOM      1  C   UNL     1       7.174   6.852  17.146  0.00  0.00    +0.000 C 
ATOM      2  C   UNL     1       7.785   7.757  17.917  0.00  0.00    +0.000 C 
ENDROOT
BRANCH   2   3
ATOM      3  C   UNL     1       8.137   9.101  17.531  0.00  0.00    +0.000 C 
ATOM      4  C   UNL     1       8.736   9.997  18.343  0.00  0.00    +0.000 C 
ATOM      5  C   UNL     1       9.119   9.712  19.780  0.00  0.00    +0.000 C 
BRANCH   4   6
ATOM      6  C   UNL     1       9.019  11.345  17.844  0.00  0.00    +0.000 C 
ATOM      7  C   UNL     1       9.480  12.370  18.587  0.00  0.00    +0.000 C 
BRANCH   7   8
ATOM      8  C   UNL     1       9.699  13.730  18.101  0.00  0.00    +0.000 C 
ATOM      9  C   UNL     1      10.801  14.060  17.380  0.00  0.00    +0.000 C 
ATOM     10  C   UNL     1      11.858  13.093  16.894  0.00  0.00    +0.000 C 
ATOM     11  C   UNL     1      11.090  15.478  16.937  0.00  0.00    +0.000 C 
ATOM     12  C   UNL     1      10.211  16.532  17.591  0.00  0.00    +0.000 C 
ATOM     13  C   UNL     1       8.765  16.067  17.596  0.00  0.00    +0.000 C 
ATOM     14  C   UNL     1       8.571  14.752  18.403  0.00  0.00    +0.000 C 
ATOM     15  C   UNL     1       7.167  14.226  18.013  0.00  0.00    +0.000 C 
ATOM     16  C   UNL     1       8.557  15.082  19.911  0.00  0.00    +0.000 C 
ENDBRANCH   7   8
ENDBRANCH   4   6
ENDBRANCH   2   3
BRANCH   1  17
ATOM     17  C   UNL     1       6.845   5.454  17.642  0.00  0.00    +0.000 C 
ATOM     18  C   UNL     1       6.413   5.465  19.123  0.00  0.00    +0.000 C 
BRANCH  17  19
ATOM     19  O   UNL     1       8.091   4.735  17.598  0.00  0.00    +0.000 OA
ATOM     20  H   UNL     1       8.789   5.369  17.356  0.00  0.00    +0.000 HD
ENDBRANCH  17  19
BRANCH  17  21
ATOM     21  C   UNL     1       5.796   4.751  16.710  0.00  0.00    +0.000 C 
BRANCH  21  22
ATOM     22  C   UNL     1       6.040   5.079  15.210  0.00  0.00    +0.000 C 
BRANCH  22  23
ATOM     23  O   UNL     1       6.526   3.933  14.473  0.00  0.00    +0.000 OA
BRANCH  23  25
ATOM     24  C   UNL     1       7.099   3.912  12.181  0.00  0.00    +0.000 C 
ATOM     25  C   UNL     1       6.016   3.829  13.213  0.00  0.00    +0.000 C 
ATOM     26  O   UNL     1       4.833   3.663  12.948  0.00  0.00    +0.000 OA
ENDBRANCH  23  25
ENDBRANCH  22  23
ENDBRANCH  21  22
BRANCH  21  27
ATOM     27  O   UNL     1       4.411   5.151  17.034  0.00  0.00    +0.000 OA
BRANCH  27  28
ATOM     28  C   UNL     1       3.503   4.195  17.425  0.00  0.00    +0.000 C 
ATOM     29  C   UNL     1       2.157   4.717  17.874  0.00  0.00    +0.000 C 
ATOM     30  O   UNL     1       3.724   3.004  17.406  0.00  0.00    +0.000 OA
ENDBRANCH  27  28
ENDBRANCH  21  27
ENDBRANCH  17  21
ENDBRANCH   1  17
TORSDOF 11
ENDMDL
