MODEL 1
REMARK VINA RESULT:      -7.5      0.000      0.000
REMARK  Name = 
REMARK  13 active torsions:
REMARK  status: ('A' for Active; 'I' for Inactive)
REMARK    1  A    between atoms: C_1  and  O_2
REMARK    2  A    between atoms: O_2  and  C_3
REMARK    3  A    between atoms: C_3  and  C_5
REMARK    4  A    between atoms: C_5  and  C_6
REMARK    5  A    between atoms: C_6  and  N_7
REMARK    6  A    between atoms: C_8  and  C_10
REMARK    7  A    between atoms: P_12  and  O_14
REMARK    8  A    between atoms: O_14  and  C_15
REMARK    9  A    between atoms: C_15  and  O_16
REMARK   10  A    between atoms: O_16  and  C_17
REMARK   11  A    between atoms: C_17  and  C_19
REMARK   12  A    between atoms: C_27  and  C_28
REMARK   13  A    between atoms: C_27  and  C_29
REMARK                            x       y       z     vdW  Elec       q    Type
REMARK                         _______ _______ _______ _____ _____    ______ ____
ROOT
ATOM      1  C   UNL     1       2.834   5.443  19.898  0.00  0.00    +0.000 C 
ATOM      2  O   UNL     1       4.254   5.534  19.929  0.00  0.00    +0.000 OA
ATOM      3  P   UNL     1       5.157   4.597  18.981  0.00  0.00    +0.000 P 
ATOM      4  O   UNL     1       6.596   4.537  19.381  0.00  0.00    +0.000 OA
ATOM      5  O   UNL     1       4.401   3.182  18.983  0.00  0.00    +0.000 OA
ATOM      6  C   UNL     1       2.996   3.197  18.806  0.00  0.00    +0.000 C 
ATOM      7  C   UNL     1       2.345   3.964  19.963  0.00  0.00    +0.000 C 
ATOM      8  C   UNL     1       0.815   3.800  19.896  0.00  0.00    +0.000 C 
ATOM      9  C   UNL     1       2.796   3.334  21.305  0.00  0.00    +0.000 C 
ENDROOT
BRANCH   1  11
ATOM     10  N   UNL     1       2.311   7.654  18.936  0.00  0.00    +0.000 N 
ATOM     11  C   UNL     1       2.267   6.292  18.736  0.00  0.00    +0.000 C 
ATOM     12  O   UNL     1       1.734   5.811  17.738  0.00  0.00    +0.000 OA
ATOM     13  H   UNL     1       2.856   8.011  19.714  0.00  0.00    +0.000 HD
BRANCH  10  14
ATOM     14  C   UNL     1       1.877   8.562  17.888  0.00  0.00    +0.000 C 
BRANCH  14  15
ATOM     15  C   UNL     1       1.544   9.949  18.424  0.00  0.00    +0.000 C 
BRANCH  15  16
ATOM     16  C   UNL     1       0.583   9.833  19.581  0.00  0.00    +0.000 C 
ATOM     17  O   UNL     1       0.865   9.401  20.689  0.00  0.00    +0.000 OA
BRANCH  16  19
ATOM     18  C   UNL     1      -0.623  11.469  18.432  0.00  0.00    +0.000 C 
ATOM     19  O   UNL     1      -0.652  10.266  19.205  0.00  0.00    +0.000 OA
ENDBRANCH  16  19
ENDBRANCH  15  16
ENDBRANCH  14  15
ENDBRANCH  10  14
ENDBRANCH   1  11
BRANCH   3  20
ATOM     20  O   UNL     1       4.934   5.144  17.486  0.00  0.00    +0.000 OA
BRANCH  20  21
ATOM     21  C   UNL     1       5.763   6.253  17.180  0.00  0.00    +0.000 C 
BRANCH  21  22
ATOM     22  O   UNL     1       6.228   6.212  15.831  0.00  0.00    +0.000 OA
BRANCH  22  23
ATOM     23  C   UNL     1       7.022   5.146  15.569  0.00  0.00    +0.000 C 
ATOM     24  O   UNL     1       7.862   4.683  16.324  0.00  0.00    +0.000 OA
BRANCH  23  25
ATOM     25  C   UNL     1       6.771   4.605  14.206  0.00  0.00    +0.000 A 
ATOM     26  C   UNL     1       7.657   4.985  13.187  0.00  0.00    +0.000 A 
ATOM     27  C   UNL     1       7.459   4.540  11.878  0.00  0.00    +0.000 A 
ATOM     28  C   UNL     1       6.377   3.715  11.581  0.00  0.00    +0.000 A 
ATOM     29  C   UNL     1       5.494   3.328  12.590  0.00  0.00    +0.000 A 
ATOM     30  C   UNL     1       5.688   3.770  13.903  0.00  0.00    +0.000 A 
ENDBRANCH  23  25
ENDBRANCH  22  23
ENDBRANCH  21  22
ENDBRANCH  20  21
ENDBRANCH   3  20
TORSDOF 10
ENDMDL
MODEL 2
REMARK VINA RESULT:      -7.5      1.332      1.802
REMARK  Name = 
REMARK  13 active torsions:
REMARK  status: ('A' for Active; 'I' for Inactive)
REMARK    1  A    between atoms: C_1  and  O_2
REMARK    2  A    between atoms: O_2  and  C_3
REMARK    3  A    between atoms: C_3  and  C_5
REMARK    4  A    between atoms: C_5  and  C_6
REMARK    5  A    between atoms: C_6  and  N_7
REMARK    6  A    between atoms: C_8  and  C_10
REMARK    7  A    between atoms: P_12  and  O_14
REMARK    8  A    between atoms: O_14  and  C_15
REMARK    9  A    between atoms: C_15  and  O_16
REMARK   10  A    between atoms: O_16  and  C_17
REMARK   11  A    between atoms: C_17  and  C_19
REMARK   12  A    between atoms: C_27  and  C_28
REMARK   13  A    between atoms: C_27  and  C_29
REMARK                            x       y       z     vdW  Elec       q    Type
REMARK                         _______ _______ _______ _____ _____    ______ ____
ROOT
ATOM      1  C   UNL     1       2.988   5.121  19.871  0.00  0.00    +0.000 C 
ATOM      2  O   UNL     1       4.380   5.264  20.133  0.00  0.00    +0.000 OA
ATOM      3  P   UNL     1       5.458   5.104  18.949  0.00  0.00    +0.000 P 
ATOM      4  O   UNL     1       6.860   4.912  19.428  0.00  0.00    +0.000 OA
ATOM      5  O   UNL     1       4.886   3.904  18.050  0.00  0.00    +0.000 OA
ATOM      6  C   UNL     1       3.507   3.932  17.731  0.00  0.00    +0.000 C 
ATOM      7  C   UNL     1       2.684   3.850  19.022  0.00  0.00    +0.000 C 
ATOM      8  C   UNL     1       1.196   3.661  18.676  0.00  0.00    +0.000 C 
ATOM      9  C   UNL     1       3.113   2.589  19.815  0.00  0.00    +0.000 C 
ENDROOT
BRANCH   1  11
ATOM     10  N   UNL     1       2.081   7.376  20.300  0.00  0.00    +0.000 N 
ATOM     11  C   UNL     1       2.403   6.449  19.334  0.00  0.00    +0.000 C 
ATOM     12  O   UNL     1       2.155   6.652  18.147  0.00  0.00    +0.000 OA
ATOM     13  H   UNL     1       2.403   7.217  21.249  0.00  0.00    +0.000 HD
BRANCH  10  14
ATOM     14  C   UNL     1       1.593   8.690  19.919  0.00  0.00    +0.000 C 
BRANCH  14  15
ATOM     15  C   UNL     1       0.367   9.108  20.721  0.00  0.00    +0.000 C 
BRANCH  15  16
ATOM     16  C   UNL     1       0.798   9.807  21.987  0.00  0.00    +0.000 C 
ATOM     17  O   UNL     1       1.659   9.404  22.755  0.00  0.00    +0.000 OA
BRANCH  16  19
ATOM     18  C   UNL     1      -1.014  10.802  23.073  0.00  0.00    +0.000 C 
ATOM     19  O   UNL     1       0.075  10.949  22.157  0.00  0.00    +0.000 OA
ENDBRANCH  16  19
ENDBRANCH  15  16
ENDBRANCH  14  15
ENDBRANCH  10  14
ENDBRANCH   1  11
BRANCH   3  20
ATOM     20  O   UNL     1       5.276   6.399  18.013  0.00  0.00    +0.000 OA
BRANCH  20  21
ATOM     21  C   UNL     1       5.296   6.082  16.631  0.00  0.00    +0.000 C 
BRANCH  21  22
ATOM     22  O   UNL     1       6.594   6.263  16.064  0.00  0.00    +0.000 OA
BRANCH  22  23
ATOM     23  C   UNL     1       7.213   5.099  15.758  0.00  0.00    +0.000 C 
ATOM     24  O   UNL     1       7.909   4.442  16.516  0.00  0.00    +0.000 OA
BRANCH  23  25
ATOM     25  C   UNL     1       6.969   4.711  14.342  0.00  0.00    +0.000 A 
ATOM     26  C   UNL     1       5.911   3.826  14.087  0.00  0.00    +0.000 A 
ATOM     27  C   UNL     1       5.649   3.396  12.785  0.00  0.00    +0.000 A 
ATOM     28  C   UNL     1       6.443   3.845  11.732  0.00  0.00    +0.000 A 
ATOM     29  C   UNL     1       7.495   4.729  11.977  0.00  0.00    +0.000 A 
ATOM     30  C   UNL     1       7.761   5.164  13.279  0.00  0.00    +0.000 A 
ENDBRANCH  23  25
ENDBRANCH  22  23
ENDBRANCH  21  22
ENDBRANCH  20  21
ENDBRANCH   3  20
TORSDOF 10
ENDMDL
MODEL 3
REMARK VINA RESULT:      -7.4      2.622      7.261
REMARK  Name = 
REMARK  13 active torsions:
REMARK  status: ('A' for Active; 'I' for Inactive)
REMARK    1  A    between atoms: C_1  and  O_2
REMARK    2  A    between atoms: O_2  and  C_3
REMARK    3  A    between atoms: C_3  and  C_5
REMARK    4  A    between atoms: C_5  and  C_6
REMARK    5  A    between atoms: C_6  and  N_7
REMARK    6  A    between atoms: C_8  and  C_10
REMARK    7  A    between atoms: P_12  and  O_14
REMARK    8  A    between atoms: O_14  and  C_15
REMARK    9  A    between atoms: C_15  and  O_16
REMARK   10  A    between atoms: O_16  and  C_17
REMARK   11  A    between atoms: C_17  and  C_19
REMARK   12  A    between atoms: C_27  and  C_28
REMARK   13  A    between atoms: C_27  and  C_29
REMARK                            x       y       z     vdW  Elec       q    Type
REMARK                         _______ _______ _______ _____ _____    ______ ____
ROOT
ATOM      1  C   UNL     1       4.455   3.425  18.402  0.00  0.00    +0.000 C 
ATOM      2  O   UNL     1       3.452   3.907  17.513  0.00  0.00    +0.000 OA
ATOM      3  P   UNL     1       2.007   4.348  18.069  0.00  0.00    +0.000 P 
ATOM      4  O   UNL     1       0.962   4.470  17.008  0.00  0.00    +0.000 OA
ATOM      5  O   UNL     1       1.677   3.274  19.214  0.00  0.00    +0.000 OA
ATOM      6  C   UNL     1       2.708   2.969  20.135  0.00  0.00    +0.000 C 
ATOM      7  C   UNL     1       3.895   2.353  19.384  0.00  0.00    +0.000 C 
ATOM      8  C   UNL     1       4.927   1.821  20.395  0.00  0.00    +0.000 C 
ATOM      9  C   UNL     1       3.400   1.127  18.576  0.00  0.00    +0.000 C 
ENDROOT
BRANCH   1  11
ATOM     10  N   UNL     1       6.540   4.709  18.710  0.00  0.00    +0.000 N 
ATOM     11  C   UNL     1       5.209   4.609  19.052  0.00  0.00    +0.000 C 
ATOM     12  O   UNL     1       4.705   5.365  19.880  0.00  0.00    +0.000 OA
ATOM     13  H   UNL     1       6.886   4.141  17.944  0.00  0.00    +0.000 HD
BRANCH  10  14
ATOM     14  C   UNL     1       7.338   5.822  19.196  0.00  0.00    +0.000 C 
BRANCH  14  15
ATOM     15  C   UNL     1       7.775   6.754  18.073  0.00  0.00    +0.000 C 
BRANCH  15  16
ATOM     16  C   UNL     1       7.118   6.340  16.779  0.00  0.00    +0.000 C 
ATOM     17  O   UNL     1       7.589   5.554  15.971  0.00  0.00    +0.000 OA
BRANCH  16  19
ATOM     18  C   UNL     1       5.044   6.350  15.705  0.00  0.00    +0.000 C 
ATOM     19  O   UNL     1       5.927   6.985  16.635  0.00  0.00    +0.000 OA
ENDBRANCH  16  19
ENDBRANCH  15  16
ENDBRANCH  14  15
ENDBRANCH  10  14
ENDBRANCH   1  11
BRANCH   3  20
ATOM     20  O   UNL     1       2.250   5.711  18.885  0.00  0.00    +0.000 OA
BRANCH  20  21
ATOM     21  C   UNL     1       2.080   6.867  18.082  0.00  0.00    +0.000 C 
BRANCH  21  22
ATOM     22  O   UNL     1       2.638   8.028  18.698  0.00  0.00    +0.000 OA
BRANCH  22  23
ATOM     23  C   UNL     1       1.877   9.137  18.542  0.00  0.00    +0.000 C 
ATOM     24  O   UNL     1       1.847   9.844  17.548  0.00  0.00    +0.000 OA
BRANCH  23  25
ATOM     25  C   UNL     1       1.080   9.424  19.765  0.00  0.00    +0.000 A 
ATOM     26  C   UNL     1       0.152  10.474  19.700  0.00  0.00    +0.000 A 
ATOM     27  C   UNL     1      -0.604  10.819  20.822  0.00  0.00    +0.000 A 
ATOM     28  C   UNL     1      -0.437  10.118  22.014  0.00  0.00    +0.000 A 
ATOM     29  C   UNL     1       0.481   9.069  22.085  0.00  0.00    +0.000 A 
ATOM     30  C   UNL     1       1.240   8.719  20.964  0.00  0.00    +0.000 A 
ENDBRANCH  23  25
ENDBRANCH  22  23
ENDBRANCH  21  22
ENDBRANCH  20  21
ENDBRANCH   3  20
TORSDOF 10
ENDMDL
MODEL 4
REMARK VINA RESULT:      -7.3      0.497      1.022
REMARK  Name = 
REMARK  13 active torsions:
REMARK  status: ('A' for Active; 'I' for Inactive)
REMARK    1  A    between atoms: C_1  and  O_2
REMARK    2  A    between atoms: O_2  and  C_3
REMARK    3  A    between atoms: C_3  and  C_5
REMARK    4  A    between atoms: C_5  and  C_6
REMARK    5  A    between atoms: C_6  and  N_7
REMARK    6  A    between atoms: C_8  and  C_10
REMARK    7  A    between atoms: P_12  and  O_14
REMARK    8  A    between atoms: O_14  and  C_15
REMARK    9  A    between atoms: C_15  and  O_16
REMARK   10  A    between atoms: O_16  and  C_17
REMARK   11  A    between atoms: C_17  and  C_19
REMARK   12  A    between atoms: C_27  and  C_28
REMARK   13  A    between atoms: C_27  and  C_29
REMARK                            x       y       z     vdW  Elec       q    Type
REMARK                         _______ _______ _______ _____ _____    ______ ____
ROOT
ATOM      1  C   UNL     1       2.831   5.340  19.798  0.00  0.00    +0.000 C 
ATOM      2  O   UNL     1       4.247   5.468  19.868  0.00  0.00    +0.000 OA
ATOM      3  P   UNL     1       5.199   4.566  18.936  0.00  0.00    +0.000 P 
ATOM      4  O   UNL     1       6.628   4.539  19.375  0.00  0.00    +0.000 OA
ATOM      5  O   UNL     1       4.481   3.132  18.903  0.00  0.00    +0.000 OA
ATOM      6  C   UNL     1       3.082   3.111  18.688  0.00  0.00    +0.000 C 
ATOM      7  C   UNL     1       2.380   3.849  19.834  0.00  0.00    +0.000 C 
ATOM      8  C   UNL     1       0.857   3.646  19.724  0.00  0.00    +0.000 C 
ATOM      9  C   UNL     1       2.811   3.216  21.181  0.00  0.00    +0.000 C 
ENDROOT
BRANCH   1  11
ATOM     10  N   UNL     1       2.213   7.542  18.869  0.00  0.00    +0.000 N 
ATOM     11  C   UNL     1       2.273   6.187  18.629  0.00  0.00    +0.000 C 
ATOM     12  O   UNL     1       1.829   5.704  17.589  0.00  0.00    +0.000 OA
ATOM     13  H   UNL     1       2.689   7.909  19.687  0.00  0.00    +0.000 HD
BRANCH  10  14
ATOM     14  C   UNL     1       1.778   8.452  17.824  0.00  0.00    +0.000 C 
BRANCH  14  15
ATOM     15  C   UNL     1       1.997   9.912  18.199  0.00  0.00    +0.000 C 
BRANCH  15  16
ATOM     16  C   UNL     1       0.798  10.431  18.955  0.00  0.00    +0.000 C 
ATOM     17  O   UNL     1       0.847  11.124  19.960  0.00  0.00    +0.000 OA
BRANCH  16  19
ATOM     18  C   UNL     1      -1.359  11.007  18.271  0.00  0.00    +0.000 C 
ATOM     19  O   UNL     1      -0.349   9.998  18.362  0.00  0.00    +0.000 OA
ENDBRANCH  16  19
ENDBRANCH  15  16
ENDBRANCH  14  15
ENDBRANCH  10  14
ENDBRANCH   1  11
BRANCH   3  20
ATOM     20  O   UNL     1       5.003   5.123  17.441  0.00  0.00    +0.000 OA
BRANCH  20  21
ATOM     21  C   UNL     1       5.675   6.352  17.222  0.00  0.00    +0.000 C 
BRANCH  21  22
ATOM     22  O   UNL     1       6.340   6.375  15.959  0.00  0.00    +0.000 OA
BRANCH  22  23
ATOM     23  C   UNL     1       7.045   5.247  15.702  0.00  0.00    +0.000 C 
ATOM     24  O   UNL     1       7.835   4.713  16.465  0.00  0.00    +0.000 OA
BRANCH  23  25
ATOM     25  C   UNL     1       6.765   4.732  14.335  0.00  0.00    +0.000 A 
ATOM     26  C   UNL     1       5.584   3.997  14.150  0.00  0.00    +0.000 A 
ATOM     27  C   UNL     1       5.278   3.456  12.900  0.00  0.00    +0.000 A 
ATOM     28  C   UNL     1       6.148   3.645  11.829  0.00  0.00    +0.000 A 
ATOM     29  C   UNL     1       7.321   4.380  12.003  0.00  0.00    +0.000 A 
ATOM     30  C   UNL     1       7.633   4.925  13.253  0.00  0.00    +0.000 A 
ENDBRANCH  23  25
ENDBRANCH  22  23
ENDBRANCH  21  22
ENDBRANCH  20  21
ENDBRANCH   3  20
TORSDOF 10
ENDMDL
MODEL 5
REMARK VINA RESULT:      -7.3      3.094      7.635
REMARK  Name = 
REMARK  13 active torsions:
REMARK  status: ('A' for Active; 'I' for Inactive)
REMARK    1  A    between atoms: C_1  and  O_2
REMARK    2  A    between atoms: O_2  and  C_3
REMARK    3  A    between atoms: C_3  and  C_5
REMARK    4  A    between atoms: C_5  and  C_6
REMARK    5  A    between atoms: C_6  and  N_7
REMARK    6  A    between atoms: C_8  and  C_10
REMARK    7  A    between atoms: P_12  and  O_14
REMARK    8  A    between atoms: O_14  and  C_15
REMARK    9  A    between atoms: C_15  and  O_16
REMARK   10  A    between atoms: O_16  and  C_17
REMARK   11  A    between atoms: C_17  and  C_19
REMARK   12  A    between atoms: C_27  and  C_28
REMARK   13  A    between atoms: C_27  and  C_29
REMARK                            x       y       z     vdW  Elec       q    Type
REMARK                         _______ _______ _______ _____ _____    ______ ____
ROOT
ATOM      1  C   UNL     1       7.219   5.139  17.128  0.00  0.00    +0.000 C 
ATOM      2  O   UNL     1       6.760   3.995  17.840  0.00  0.00    +0.000 OA
ATOM      3  P   UNL     1       5.379   4.042  18.665  0.00  0.00    +0.000 P 
ATOM      4  O   UNL     1       5.218   2.923  19.643  0.00  0.00    +0.000 OA
ATOM      5  O   UNL     1       5.353   5.509  19.315  0.00  0.00    +0.000 OA
ATOM      6  C   UNL     1       5.695   6.597  18.475  0.00  0.00    +0.000 C 
ATOM      7  C   UNL     1       7.141   6.433  17.994  0.00  0.00    +0.000 C 
ATOM      8  C   UNL     1       7.591   7.711  17.262  0.00  0.00    +0.000 C 
ATOM      9  C   UNL     1       8.070   6.282  19.225  0.00  0.00    +0.000 C 
ENDROOT
BRANCH   1  11
ATOM     10  N   UNL     1       6.244   3.994  15.171  0.00  0.00    +0.000 N 
ATOM     11  C   UNL     1       6.542   5.213  15.739  0.00  0.00    +0.000 C 
ATOM     12  O   UNL     1       6.352   6.264  15.129  0.00  0.00    +0.000 OA
ATOM     13  H   UNL     1       6.312   3.162  15.749  0.00  0.00    +0.000 HD
BRANCH  10  14
ATOM     14  C   UNL     1       5.540   3.931  13.902  0.00  0.00    +0.000 C 
BRANCH  14  15
ATOM     15  C   UNL     1       6.400   3.342  12.791  0.00  0.00    +0.000 C 
BRANCH  15  16
ATOM     16  C   UNL     1       5.517   2.745  11.723  0.00  0.00    +0.000 C 
ATOM     17  O   UNL     1       5.665   1.639  11.225  0.00  0.00    +0.000 OA
BRANCH  16  19
ATOM     18  C   UNL     1       3.353   3.001  10.884  0.00  0.00    +0.000 C 
ATOM     19  O   UNL     1       4.538   3.628  11.381  0.00  0.00    +0.000 OA
ENDBRANCH  16  19
ENDBRANCH  15  16
ENDBRANCH  14  15
ENDBRANCH  10  14
ENDBRANCH   1  11
BRANCH   3  20
ATOM     20  O   UNL     1       4.212   4.095  17.561  0.00  0.00    +0.000 OA
BRANCH  20  21
ATOM     21  C   UNL     1       3.577   2.841  17.375  0.00  0.00    +0.000 C 
BRANCH  21  22
ATOM     22  O   UNL     1       2.225   2.990  16.941  0.00  0.00    +0.000 OA
BRANCH  22  23
ATOM     23  C   UNL     1       1.535   3.919  17.644  0.00  0.00    +0.000 C 
ATOM     24  O   UNL     1       0.906   4.850  17.166  0.00  0.00    +0.000 OA
BRANCH  23  25
ATOM     25  C   UNL     1       1.657   3.691  19.109  0.00  0.00    +0.000 A 
ATOM     26  C   UNL     1       1.936   4.805  19.915  0.00  0.00    +0.000 A 
ATOM     27  C   UNL     1       2.097   4.656  21.294  0.00  0.00    +0.000 A 
ATOM     28  C   UNL     1       1.982   3.395  21.875  0.00  0.00    +0.000 A 
ATOM     29  C   UNL     1       1.700   2.283  21.080  0.00  0.00    +0.000 A 
ATOM     30  C   UNL     1       1.537   2.427  19.699  0.00  0.00    +0.000 A 
ENDBRANCH  23  25
ENDBRANCH  22  23
ENDBRANCH  21  22
ENDBRANCH  20  21
ENDBRANCH   3  20
TORSDOF 10
ENDMDL
MODEL 6
REMARK VINA RESULT:      -7.2      2.211      7.931
REMARK  Name = 
REMARK  13 active torsions:
REMARK  status: ('A' for Active; 'I' for Inactive)
REMARK    1  A    between atoms: C_1  and  O_2
REMARK    2  A    between atoms: O_2  and  C_3
REMARK    3  A    between atoms: C_3  and  C_5
REMARK    4  A    between atoms: C_5  and  C_6
REMARK    5  A    between atoms: C_6  and  N_7
REMARK    6  A    between atoms: C_8  and  C_10
REMARK    7  A    between atoms: P_12  and  O_14
REMARK    8  A    between atoms: O_14  and  C_15
REMARK    9  A    between atoms: C_15  and  O_16
REMARK   10  A    between atoms: O_16  and  C_17
REMARK   11  A    between atoms: C_17  and  C_19
REMARK   12  A    between atoms: C_27  and  C_28
REMARK   13  A    between atoms: C_27  and  C_29
REMARK                            x       y       z     vdW  Elec       q    Type
REMARK                         _______ _______ _______ _____ _____    ______ ____
ROOT
ATOM      1  C   UNL     1       4.262   3.494  18.501  0.00  0.00    +0.000 C 
ATOM      2  O   UNL     1       3.368   4.216  17.661  0.00  0.00    +0.000 OA
ATOM      3  P   UNL     1       2.276   5.216  18.292  0.00  0.00    +0.000 P 
ATOM      4  O   UNL     1       1.189   5.604  17.342  0.00  0.00    +0.000 OA
ATOM      5  O   UNL     1       1.771   4.467  19.618  0.00  0.00    +0.000 OA
ATOM      6  C   UNL     1       2.758   3.901  20.460  0.00  0.00    +0.000 C 
ATOM      7  C   UNL     1       3.520   2.815  19.691  0.00  0.00    +0.000 C 
ATOM      8  C   UNL     1       4.443   2.049  20.657  0.00  0.00    +0.000 C 
ATOM      9  C   UNL     1       2.507   1.781  19.139  0.00  0.00    +0.000 C 
ENDROOT
BRANCH   1  11
ATOM     10  N   UNL     1       6.552   4.281  18.022  0.00  0.00    +0.000 N 
ATOM     11  C   UNL     1       5.476   4.378  18.877  0.00  0.00    +0.000 C 
ATOM     12  O   UNL     1       5.534   5.055  19.901  0.00  0.00    +0.000 OA
ATOM     13  H   UNL     1       6.424   3.804  17.135  0.00  0.00    +0.000 HD
BRANCH  10  14
ATOM     14  C   UNL     1       7.723   5.116  18.224  0.00  0.00    +0.000 C 
BRANCH  14  15
ATOM     15  C   UNL     1       7.598   6.468  17.532  0.00  0.00    +0.000 C 
BRANCH  15  16
ATOM     16  C   UNL     1       6.780   6.323  16.272  0.00  0.00    +0.000 C 
ATOM     17  O   UNL     1       5.623   6.691  16.139  0.00  0.00    +0.000 OA
BRANCH  16  19
ATOM     18  C   UNL     1       6.771   4.756  14.541  0.00  0.00    +0.000 C 
ATOM     19  O   UNL     1       7.517   5.705  15.307  0.00  0.00    +0.000 OA
ENDBRANCH  16  19
ENDBRANCH  15  16
ENDBRANCH  14  15
ENDBRANCH  10  14
ENDBRANCH   1  11
BRANCH   3  20
ATOM     20  O   UNL     1       3.106   6.471  18.858  0.00  0.00    +0.000 OA
BRANCH  20  21
ATOM     21  C   UNL     1       2.473   7.711  18.591  0.00  0.00    +0.000 C 
BRANCH  21  22
ATOM     22  O   UNL     1       1.755   8.195  19.726  0.00  0.00    +0.000 OA
BRANCH  22  23
ATOM     23  C   UNL     1       0.950   9.247  19.443  0.00  0.00    +0.000 C 
ATOM     24  O   UNL     1       0.746   9.707  18.331  0.00  0.00    +0.000 OA
BRANCH  23  25
ATOM     25  C   UNL     1       0.349   9.817  20.679  0.00  0.00    +0.000 A 
ATOM     26  C   UNL     1       0.110   8.938  21.746  0.00  0.00    +0.000 A 
ATOM     27  C   UNL     1      -0.484   9.401  22.922  0.00  0.00    +0.000 A 
ATOM     28  C   UNL     1      -0.842  10.742  23.038  0.00  0.00    +0.000 A 
ATOM     29  C   UNL     1      -0.603  11.624  21.983  0.00  0.00    +0.000 A 
ATOM     30  C   UNL     1      -0.008  11.166  20.803  0.00  0.00    +0.000 A 
ENDBRANCH  23  25
ENDBRANCH  22  23
ENDBRANCH  21  22
ENDBRANCH  20  21
ENDBRANCH   3  20
TORSDOF 10
ENDMDL
MODEL 7
REMARK VINA RESULT:      -7.1      1.133      1.233
REMARK  Name = 
REMARK  13 active torsions:
REMARK  status: ('A' for Active; 'I' for Inactive)
REMARK    1  A    between atoms: C_1  and  O_2
REMARK    2  A    between atoms: O_2  and  C_3
REMARK    3  A    between atoms: C_3  and  C_5
REMARK    4  A    between atoms: C_5  and  C_6
REMARK    5  A    between atoms: C_6  and  N_7
REMARK    6  A    between atoms: C_8  and  C_10
REMARK    7  A    between atoms: P_12  and  O_14
REMARK    8  A    between atoms: O_14  and  C_15
REMARK    9  A    between atoms: C_15  and  O_16
REMARK   10  A    between atoms: O_16  and  C_17
REMARK   11  A    between atoms: C_17  and  C_19
REMARK   12  A    between atoms: C_27  and  C_28
REMARK   13  A    between atoms: C_27  and  C_29
REMARK                            x       y       z     vdW  Elec       q    Type
REMARK                         _______ _______ _______ _____ _____    ______ ____
ROOT
ATOM      1  C   UNL     1       2.950   5.834  19.135  0.00  0.00    +0.000 C 
ATOM      2  O   UNL     1       4.207   5.857  19.804  0.00  0.00    +0.000 OA
ATOM      3  P   UNL     1       5.555   5.434  19.033  0.00  0.00    +0.000 P 
ATOM      4  O   UNL     1       6.708   5.151  19.941  0.00  0.00    +0.000 OA
ATOM      5  O   UNL     1       5.113   4.200  18.107  0.00  0.00    +0.000 OA
ATOM      6  C   UNL     1       3.910   4.338  17.373  0.00  0.00    +0.000 C 
ATOM      7  C   UNL     1       2.737   4.508  18.345  0.00  0.00    +0.000 C 
ATOM      8  C   UNL     1       1.408   4.441  17.569  0.00  0.00    +0.000 C 
ATOM      9  C   UNL     1       2.726   3.317  19.337  0.00  0.00    +0.000 C 
ENDROOT
BRANCH   1  11
ATOM     10  N   UNL     1       1.888   8.050  18.906  0.00  0.00    +0.000 N 
ATOM     11  C   UNL     1       2.748   7.140  18.330  0.00  0.00    +0.000 C 
ATOM     12  O   UNL     1       3.236   7.339  17.220  0.00  0.00    +0.000 OA
ATOM     13  H   UNL     1       1.597   7.900  19.866  0.00  0.00    +0.000 HD
BRANCH  10  14
ATOM     14  C   UNL     1       1.673   9.346  18.285  0.00  0.00    +0.000 C 
BRANCH  14  15
ATOM     15  C   UNL     1       1.219  10.400  19.288  0.00  0.00    +0.000 C 
BRANCH  15  16
ATOM     16  C   UNL     1      -0.207  10.132  19.701  0.00  0.00    +0.000 C 
ATOM     17  O   UNL     1      -0.553   9.334  20.558  0.00  0.00    +0.000 OA
BRANCH  16  19
ATOM     18  C   UNL     1      -2.053  10.146  18.270  0.00  0.00    +0.000 C 
ATOM     19  O   UNL     1      -1.057  10.901  18.965  0.00  0.00    +0.000 OA
ENDBRANCH  16  19
ENDBRANCH  15  16
ENDBRANCH  14  15
ENDBRANCH  10  14
ENDBRANCH   1  11
BRANCH   3  20
ATOM     20  O   UNL     1       5.846   6.613  17.981  0.00  0.00    +0.000 OA
BRANCH  20  21
ATOM     21  C   UNL     1       7.123   6.502  17.375  0.00  0.00    +0.000 C 
BRANCH  21  22
ATOM     22  O   UNL     1       7.025   6.169  15.990  0.00  0.00    +0.000 OA
BRANCH  22  23
ATOM     23  C   UNL     1       7.382   4.891  15.720  0.00  0.00    +0.000 C 
ATOM     24  O   UNL     1       7.972   4.141  16.481  0.00  0.00    +0.000 OA
BRANCH  23  25
ATOM     25  C   UNL     1       6.992   4.500  14.338  0.00  0.00    +0.000 A 
ATOM     26  C   UNL     1       7.769   4.998  13.282  0.00  0.00    +0.000 A 
ATOM     27  C   UNL     1       7.438   4.698  11.959  0.00  0.00    +0.000 A 
ATOM     28  C   UNL     1       6.330   3.899  11.685  0.00  0.00    +0.000 A 
ATOM     29  C   UNL     1       5.555   3.395  12.730  0.00  0.00    +0.000 A 
ATOM     30  C   UNL     1       5.883   3.692  14.057  0.00  0.00    +0.000 A 
ENDBRANCH  23  25
ENDBRANCH  22  23
ENDBRANCH  21  22
ENDBRANCH  20  21
ENDBRANCH   3  20
TORSDOF 10
ENDMDL
MODEL 8
REMARK VINA RESULT:      -7.1      3.338      4.866
REMARK  Name = 
REMARK  13 active torsions:
REMARK  status: ('A' for Active; 'I' for Inactive)
REMARK    1  A    between atoms: C_1  and  O_2
REMARK    2  A    between atoms: O_2  and  C_3
REMARK    3  A    between atoms: C_3  and  C_5
REMARK    4  A    between atoms: C_5  and  C_6
REMARK    5  A    between atoms: C_6  and  N_7
REMARK    6  A    between atoms: C_8  and  C_10
REMARK    7  A    between atoms: P_12  and  O_14
REMARK    8  A    between atoms: O_14  and  C_15
REMARK    9  A    between atoms: C_15  and  O_16
REMARK   10  A    between atoms: O_16  and  C_17
REMARK   11  A    between atoms: C_17  and  C_19
REMARK   12  A    between atoms: C_27  and  C_28
REMARK   13  A    between atoms: C_27  and  C_29
REMARK                            x       y       z     vdW  Elec       q    Type
REMARK                         _______ _______ _______ _____ _____    ______ ____
ROOT
ATOM      1  C   UNL     1       3.344   5.062  19.447  0.00  0.00    +0.000 C 
ATOM      2  O   UNL     1       4.752   5.111  19.645  0.00  0.00    +0.000 OA
ATOM      3  P   UNL     1       5.757   5.140  18.389  0.00  0.00    +0.000 P 
ATOM      4  O   UNL     1       7.175   4.818  18.738  0.00  0.00    +0.000 OA
ATOM      5  O   UNL     1       5.088   4.147  17.321  0.00  0.00    +0.000 OA
ATOM      6  C   UNL     1       3.696   4.278  17.097  0.00  0.00    +0.000 C 
ATOM      7  C   UNL     1       2.941   3.982  18.398  0.00  0.00    +0.000 C 
ATOM      8  C   UNL     1       1.430   3.908  18.114  0.00  0.00    +0.000 C 
ATOM      9  C   UNL     1       3.359   2.583  18.918  0.00  0.00    +0.000 C 
ENDROOT
BRANCH   1  11
ATOM     10  N   UNL     1       2.162   7.062  20.283  0.00  0.00    +0.000 N 
ATOM     11  C   UNL     1       2.787   6.485  19.199  0.00  0.00    +0.000 C 
ATOM     12  O   UNL     1       2.812   7.044  18.105  0.00  0.00    +0.000 OA
ATOM     13  H   UNL     1       2.262   6.619  21.191  0.00  0.00    +0.000 HD
BRANCH  10  14
ATOM     14  C   UNL     1       1.664   8.424  20.200  0.00  0.00    +0.000 C 
BRANCH  14  15
ATOM     15  C   UNL     1       0.531   8.687  21.185  0.00  0.00    +0.000 C 
BRANCH  15  16
ATOM     16  C   UNL     1       1.077   9.348  22.427  0.00  0.00    +0.000 C 
ATOM     17  O   UNL     1       2.203   9.186  22.872  0.00  0.00    +0.000 OA
BRANCH  16  19
ATOM     18  C   UNL     1      -0.320  11.195  22.128  0.00  0.00    +0.000 C 
ATOM     19  O   UNL     1       0.124  10.142  22.988  0.00  0.00    +0.000 OA
ENDBRANCH  16  19
ENDBRANCH  15  16
ENDBRANCH  14  15
ENDBRANCH  10  14
ENDBRANCH   1  11
BRANCH   3  20
ATOM     20  O   UNL     1       5.580   6.591  17.720  0.00  0.00    +0.000 OA
BRANCH  20  21
ATOM     21  C   UNL     1       6.723   6.999  16.986  0.00  0.00    +0.000 C 
BRANCH  21  22
ATOM     22  O   UNL     1       7.104   8.338  17.297  0.00  0.00    +0.000 OA
BRANCH  22  23
ATOM     23  C   UNL     1       8.114   8.413  18.197  0.00  0.00    +0.000 C 
ATOM     24  O   UNL     1       8.578   7.475  18.825  0.00  0.00    +0.000 OA
BRANCH  23  25
ATOM     25  C   UNL     1       8.588   9.814  18.364  0.00  0.00    +0.000 A 
ATOM     26  C   UNL     1       9.451  10.080  19.438  0.00  0.00    +0.000 A 
ATOM     27  C   UNL     1       9.907  11.379  19.672  0.00  0.00    +0.000 A 
ATOM     28  C   UNL     1       9.502  12.418  18.837  0.00  0.00    +0.000 A 
ATOM     29  C   UNL     1       8.648  12.160  17.764  0.00  0.00    +0.000 A 
ATOM     30  C   UNL     1       8.190  10.861  17.524  0.00  0.00    +0.000 A 
ENDBRANCH  23  25
ENDBRANCH  22  23
ENDBRANCH  21  22
ENDBRANCH  20  21
ENDBRANCH   3  20
TORSDOF 10
ENDMDL
MODEL 9
REMARK VINA RESULT:      -7.0      3.062      7.801
REMARK  Name = 
REMARK  13 active torsions:
REMARK  status: ('A' for Active; 'I' for Inactive)
REMARK    1  A    between atoms: C_1  and  O_2
REMARK    2  A    between atoms: O_2  and  C_3
REMARK    3  A    between atoms: C_3  and  C_5
REMARK    4  A    between atoms: C_5  and  C_6
REMARK    5  A    between atoms: C_6  and  N_7
REMARK    6  A    between atoms: C_8  and  C_10
REMARK    7  A    between atoms: P_12  and  O_14
REMARK    8  A    between atoms: O_14  and  C_15
REMARK    9  A    between atoms: C_15  and  O_16
REMARK   10  A    between atoms: O_16  and  C_17
REMARK   11  A    between atoms: C_17  and  C_19
REMARK   12  A    between atoms: C_27  and  C_28
REMARK   13  A    between atoms: C_27  and  C_29
REMARK                            x       y       z     vdW  Elec       q    Type
REMARK                         _______ _______ _______ _____ _____    ______ ____
ROOT
ATOM      1  C   UNL     1       7.179   5.162  17.065  0.00  0.00    +0.000 C 
ATOM      2  O   UNL     1       6.658   4.003  17.706  0.00  0.00    +0.000 OA
ATOM      3  P   UNL     1       5.282   4.074  18.537  0.00  0.00    +0.000 P 
ATOM      4  O   UNL     1       5.060   2.907  19.445  0.00  0.00    +0.000 OA
ATOM      5  O   UNL     1       5.337   5.497  19.277  0.00  0.00    +0.000 OA
ATOM      6  C   UNL     1       5.737   6.614  18.505  0.00  0.00    +0.000 C 
ATOM      7  C   UNL     1       7.173   6.401  18.009  0.00  0.00    +0.000 C 
ATOM      8  C   UNL     1       7.692   7.696  17.356  0.00  0.00    +0.000 C 
ATOM      9  C   UNL     1       8.092   6.124  19.225  0.00  0.00    +0.000 C 
ENDROOT
BRANCH   1  11
ATOM     10  N   UNL     1       6.979   4.538  14.685  0.00  0.00    +0.000 N 
ATOM     11  C   UNL     1       6.506   5.359  15.685  0.00  0.00    +0.000 C 
ATOM     12  O   UNL     1       5.673   6.233  15.453  0.00  0.00    +0.000 OA
ATOM     13  H   UNL     1       7.579   3.761  14.941  0.00  0.00    +0.000 HD
BRANCH  10  14
ATOM     14  C   UNL     1       6.377   4.575  13.363  0.00  0.00    +0.000 C 
BRANCH  14  15
ATOM     15  C   UNL     1       6.660   3.310  12.563  0.00  0.00    +0.000 C 
BRANCH  15  16
ATOM     16  C   UNL     1       5.398   2.843  11.880  0.00  0.00    +0.000 C 
ATOM     17  O   UNL     1       4.353   3.473  11.828  0.00  0.00    +0.000 OA
BRANCH  16  19
ATOM     18  C   UNL     1       6.958   1.323  11.039  0.00  0.00    +0.000 C 
ATOM     19  O   UNL     1       5.589   1.606  11.343  0.00  0.00    +0.000 OA
ENDBRANCH  16  19
ENDBRANCH  15  16
ENDBRANCH  14  15
ENDBRANCH  10  14
ENDBRANCH   1  11
BRANCH   3  20
ATOM     20  O   UNL     1       4.119   4.260  17.443  0.00  0.00    +0.000 OA
BRANCH  20  21
ATOM     21  C   UNL     1       3.490   3.036  17.101  0.00  0.00    +0.000 C 
BRANCH  21  22
ATOM     22  O   UNL     1       2.079   3.191  16.943  0.00  0.00    +0.000 OA
BRANCH  22  23
ATOM     23  C   UNL     1       1.556   4.168  17.720  0.00  0.00    +0.000 C 
ATOM     24  O   UNL     1       1.085   5.220  17.320  0.00  0.00    +0.000 OA
BRANCH  23  25
ATOM     25  C   UNL     1       1.650   3.820  19.164  0.00  0.00    +0.000 A 
ATOM     26  C   UNL     1       2.023   4.840  20.052  0.00  0.00    +0.000 A 
ATOM     27  C   UNL     1       2.162   4.574  21.416  0.00  0.00    +0.000 A 
ATOM     28  C   UNL     1       1.932   3.288  21.899  0.00  0.00    +0.000 A 
ATOM     29  C   UNL     1       1.556   2.269  21.023  0.00  0.00    +0.000 A 
ATOM     30  C   UNL     1       1.413   2.531  19.657  0.00  0.00    +0.000 A 
ENDBRANCH  23  25
ENDBRANCH  22  23
ENDBRANCH  21  22
ENDBRANCH  20  21
ENDBRANCH   3  20
TORSDOF 10
ENDMDL
