MODEL 1
REMARK VINA RESULT:      -8.4      0.000      0.000
REMARK  Name = 
REMARK  4 active torsions:
REMARK  status: ('A' for Active; 'I' for Inactive)
REMARK    1  A    between atoms: N_9  and  C_10
REMARK    2  A    between atoms: C_10  and  C_11
REMARK    3  A    between atoms: C_11  and  C_12
REMARK    4  A    between atoms: C_12  and  C_13
REMARK                            x       y       z     vdW  Elec       q    Type
REMARK                         _______ _______ _______ _____ _____    ______ ____
ROOT
ATOM      1 CL   UNL     1       0.136   2.739  18.738  0.00  0.00    +0.000 Cl
ATOM      2  C   UNL     1       1.829   3.007  18.892  0.00  0.00    +0.000 A 
ATOM      3  C   UNL     1       2.615   2.071  19.559  0.00  0.00    +0.000 A 
ATOM      4  C   UNL     1       3.992   2.263  19.696  0.00  0.00    +0.000 A 
ATOM      5  C   UNL     1       4.543   3.423  19.139  0.00  0.00    +0.000 A 
ATOM      6  N   UNL     1       5.849   3.858  19.119  0.00  0.00    +0.000 N 
ATOM      7  C   UNL     1       5.951   5.064  18.461  0.00  0.00    +0.000 A 
ATOM      8  C   UNL     1       7.057   5.858  18.205  0.00  0.00    +0.000 A 
ATOM      9  N   UNL     1       6.860   7.026  17.553  0.00  0.00    +0.000 N 
ATOM     10  C   UNL     1       5.637   7.405  17.124  0.00  0.00    +0.000 A 
ATOM     11  C   UNL     1       4.510   6.620  17.349  0.00  0.00    +0.000 A 
ATOM     12  C   UNL     1       4.672   5.415  18.047  0.00  0.00    +0.000 A 
ATOM     13  C   UNL     1       3.780   4.377  18.467  0.00  0.00    +0.000 A 
ATOM     14  C   UNL     1       2.391   4.164  18.340  0.00  0.00    +0.000 A 
ATOM     15  H   UNL     1       6.613   3.346  19.542  0.00  0.00    +0.000 HD
ENDROOT
BRANCH   9  16
ATOM     16  C   UNL     1       8.033   7.895  17.262  0.00  0.00    +0.000 C 
BRANCH  16  17
ATOM     17  C   UNL     1       8.275   8.901  18.383  0.00  0.00    +0.000 C 
BRANCH  17  18
ATOM     18  C   UNL     1       8.432  10.348  17.901  0.00  0.00    +0.000 C 
BRANCH  18  19
ATOM     19  C   UNL     1       9.619  11.010  18.553  0.00  0.00    +0.000 A 
ATOM     20  C   UNL     1      10.691  11.455  17.766  0.00  0.00    +0.000 A 
ATOM     21  C   UNL     1      11.821  12.017  18.358  0.00  0.00    +0.000 A 
ATOM     22  C   UNL     1      11.891  12.145  19.744  0.00  0.00    +0.000 A 
ATOM     23  C   UNL     1      10.825  11.721  20.535  0.00  0.00    +0.000 A 
ATOM     24  C   UNL     1       9.693  11.154  19.944  0.00  0.00    +0.000 A 
ENDBRANCH  18  19
ENDBRANCH  17  18
ENDBRANCH  16  17
ENDBRANCH   9  16
TORSDOF 4
ENDMDL
MODEL 2
REMARK VINA RESULT:      -8.3      3.782      6.204
REMARK  Name = 
REMARK  4 active torsions:
REMARK  status: ('A' for Active; 'I' for Inactive)
REMARK    1  A    between atoms: N_9  and  C_10
REMARK    2  A    between atoms: C_10  and  C_11
REMARK    3  A    between atoms: C_11  and  C_12
REMARK    4  A    between atoms: C_12  and  C_13
REMARK                            x       y       z     vdW  Elec       q    Type
REMARK                         _______ _______ _______ _____ _____    ______ ____
ROOT
ATOM      1 CL   UNL     1      -0.487  10.149  22.955  0.00  0.00    +0.000 Cl
ATOM      2  C   UNL     1       0.313   9.640  21.519  0.00  0.00    +0.000 A 
ATOM      3  C   UNL     1       0.423  10.519  20.445  0.00  0.00    +0.000 A 
ATOM      4  C   UNL     1       1.070  10.132  19.268  0.00  0.00    +0.000 A 
ATOM      5  C   UNL     1       1.598   8.837  19.216  0.00  0.00    +0.000 A 
ATOM      6  N   UNL     1       2.280   8.203  18.203  0.00  0.00    +0.000 N 
ATOM      7  C   UNL     1       2.620   6.920  18.572  0.00  0.00    +0.000 A 
ATOM      8  C   UNL     1       3.303   5.935  17.877  0.00  0.00    +0.000 A 
ATOM      9  N   UNL     1       3.473   4.737  18.480  0.00  0.00    +0.000 N 
ATOM     10  C   UNL     1       3.034   4.503  19.736  0.00  0.00    +0.000 A 
ATOM     11  C   UNL     1       2.362   5.479  20.467  0.00  0.00    +0.000 A 
ATOM     12  C   UNL     1       2.142   6.724  19.862  0.00  0.00    +0.000 A 
ATOM     13  C   UNL     1       1.501   7.935  20.275  0.00  0.00    +0.000 A 
ATOM     14  C   UNL     1       0.844   8.347  21.454  0.00  0.00    +0.000 A 
ATOM     15  H   UNL     1       2.486   8.638  17.313  0.00  0.00    +0.000 HD
ENDROOT
BRANCH   9  16
ATOM     16  C   UNL     1       4.207   3.664  17.756  0.00  0.00    +0.000 C 
BRANCH  16  17
ATOM     17  C   UNL     1       4.664   4.132  16.377  0.00  0.00    +0.000 C 
BRANCH  17  18
ATOM     18  C   UNL     1       6.182   4.084  16.171  0.00  0.00    +0.000 C 
BRANCH  18  19
ATOM     19  C   UNL     1       6.876   5.127  17.008  0.00  0.00    +0.000 A 
ATOM     20  C   UNL     1       7.525   4.754  18.193  0.00  0.00    +0.000 A 
ATOM     21  C   UNL     1       8.123   5.716  19.008  0.00  0.00    +0.000 A 
ATOM     22  C   UNL     1       8.082   7.060  18.644  0.00  0.00    +0.000 A 
ATOM     23  C   UNL     1       7.454   7.440  17.461  0.00  0.00    +0.000 A 
ATOM     24  C   UNL     1       6.851   6.480  16.644  0.00  0.00    +0.000 A 
ENDBRANCH  18  19
ENDBRANCH  17  18
ENDBRANCH  16  17
ENDBRANCH   9  16
TORSDOF 4
ENDMDL
MODEL 3
REMARK VINA RESULT:      -8.2      5.665      8.740
REMARK  Name = 
REMARK  4 active torsions:
REMARK  status: ('A' for Active; 'I' for Inactive)
REMARK    1  A    between atoms: N_9  and  C_10
REMARK    2  A    between atoms: C_10  and  C_11
REMARK    3  A    between atoms: C_11  and  C_12
REMARK    4  A    between atoms: C_12  and  C_13
REMARK                            x       y       z     vdW  Elec       q    Type
REMARK                         _______ _______ _______ _____ _____    ______ ____
ROOT
ATOM      1 CL   UNL     1      -2.283  12.767  22.234  0.00  0.00    +0.000 Cl
ATOM      2  C   UNL     1      -1.246  11.401  22.100  0.00  0.00    +0.000 A 
ATOM      3  C   UNL     1      -1.044  10.579  23.206  0.00  0.00    +0.000 A 
ATOM      4  C   UNL     1      -0.209   9.463  23.125  0.00  0.00    +0.000 A 
ATOM      5  C   UNL     1       0.411   9.206  21.895  0.00  0.00    +0.000 A 
ATOM      6  N   UNL     1       1.264   8.189  21.534  0.00  0.00    +0.000 N 
ATOM      7  C   UNL     1       1.644   8.317  20.215  0.00  0.00    +0.000 A 
ATOM      8  C   UNL     1       2.480   7.531  19.439  0.00  0.00    +0.000 A 
ATOM      9  N   UNL     1       2.703   7.914  18.162  0.00  0.00    +0.000 N 
ATOM     10  C   UNL     1       2.107   9.003  17.630  0.00  0.00    +0.000 A 
ATOM     11  C   UNL     1       1.247   9.801  18.378  0.00  0.00    +0.000 A 
ATOM     12  C   UNL     1       1.015   9.451  19.716  0.00  0.00    +0.000 A 
ATOM     13  C   UNL     1       0.229  10.012  20.772  0.00  0.00    +0.000 A 
ATOM     14  C   UNL     1      -0.619  11.135  20.877  0.00  0.00    +0.000 A 
ATOM     15  H   UNL     1       1.564   7.461  22.169  0.00  0.00    +0.000 HD
ENDROOT
BRANCH   9  16
ATOM     16  C   UNL     1       3.594   7.083  17.307  0.00  0.00    +0.000 C 
BRANCH  16  17
ATOM     17  C   UNL     1       4.105   5.857  18.058  0.00  0.00    +0.000 C 
BRANCH  17  18
ATOM     18  C   UNL     1       3.452   4.540  17.624  0.00  0.00    +0.000 C 
BRANCH  18  19
ATOM     19  C   UNL     1       2.670   3.924  18.755  0.00  0.00    +0.000 A 
ATOM     20  C   UNL     1       1.421   3.339  18.503  0.00  0.00    +0.000 A 
ATOM     21  C   UNL     1       0.658   2.816  19.548  0.00  0.00    +0.000 A 
ATOM     22  C   UNL     1       1.139   2.868  20.854  0.00  0.00    +0.000 A 
ATOM     23  C   UNL     1       2.386   3.433  21.114  0.00  0.00    +0.000 A 
ATOM     24  C   UNL     1       3.150   3.961  20.070  0.00  0.00    +0.000 A 
ENDBRANCH  18  19
ENDBRANCH  17  18
ENDBRANCH  16  17
ENDBRANCH   9  16
TORSDOF 4
ENDMDL
MODEL 4
REMARK VINA RESULT:      -8.1      3.918      6.256
REMARK  Name = 
REMARK  4 active torsions:
REMARK  status: ('A' for Active; 'I' for Inactive)
REMARK    1  A    between atoms: N_9  and  C_10
REMARK    2  A    between atoms: C_10  and  C_11
REMARK    3  A    between atoms: C_11  and  C_12
REMARK    4  A    between atoms: C_12  and  C_13
REMARK                            x       y       z     vdW  Elec       q    Type
REMARK                         _______ _______ _______ _____ _____    ______ ____
ROOT
ATOM      1 CL   UNL     1      -0.830  10.253  23.053  0.00  0.00    +0.000 Cl
ATOM      2  C   UNL     1       0.049   9.761  21.658  0.00  0.00    +0.000 A 
ATOM      3  C   UNL     1       0.237  10.659  20.610  0.00  0.00    +0.000 A 
ATOM      4  C   UNL     1       0.948  10.286  19.467  0.00  0.00    +0.000 A 
ATOM      5  C   UNL     1       1.461   8.984  19.421  0.00  0.00    +0.000 A 
ATOM      6  N   UNL     1       2.194   8.360  18.438  0.00  0.00    +0.000 N 
ATOM      7  C   UNL     1       2.493   7.065  18.800  0.00  0.00    +0.000 A 
ATOM      8  C   UNL     1       3.203   6.083  18.128  0.00  0.00    +0.000 A 
ATOM      9  N   UNL     1       3.320   4.872  18.716  0.00  0.00    +0.000 N 
ATOM     10  C   UNL     1       2.801   4.619  19.937  0.00  0.00    +0.000 A 
ATOM     11  C   UNL     1       2.100   5.591  20.646  0.00  0.00    +0.000 A 
ATOM     12  C   UNL     1       1.934   6.851  20.055  0.00  0.00    +0.000 A 
ATOM     13  C   UNL     1       1.287   8.063  20.453  0.00  0.00    +0.000 A 
ATOM     14  C   UNL     1       0.565   8.461  21.598  0.00  0.00    +0.000 A 
ATOM     15  H   UNL     1       2.461   8.809  17.571  0.00  0.00    +0.000 HD
ENDROOT
BRANCH   9  16
ATOM     16  C   UNL     1       4.082   3.802  18.015  0.00  0.00    +0.000 C 
BRANCH  16  17
ATOM     17  C   UNL     1       4.448   4.217  16.594  0.00  0.00    +0.000 C 
BRANCH  17  18
ATOM     18  C   UNL     1       5.953   4.197  16.304  0.00  0.00    +0.000 C 
BRANCH  18  19
ATOM     19  C   UNL     1       6.679   5.217  17.142  0.00  0.00    +0.000 A 
ATOM     20  C   UNL     1       6.750   6.551  16.715  0.00  0.00    +0.000 A 
ATOM     21  C   UNL     1       7.467   7.495  17.449  0.00  0.00    +0.000 A 
ATOM     22  C   UNL     1       8.118   7.117  18.622  0.00  0.00    +0.000 A 
ATOM     23  C   UNL     1       8.042   5.798  19.064  0.00  0.00    +0.000 A 
ATOM     24  C   UNL     1       7.327   4.849  18.329  0.00  0.00    +0.000 A 
ENDBRANCH  18  19
ENDBRANCH  17  18
ENDBRANCH  16  17
ENDBRANCH   9  16
TORSDOF 4
ENDMDL
MODEL 5
REMARK VINA RESULT:      -7.9      5.878      8.703
REMARK  Name = 
REMARK  4 active torsions:
REMARK  status: ('A' for Active; 'I' for Inactive)
REMARK    1  A    between atoms: N_9  and  C_10
REMARK    2  A    between atoms: C_10  and  C_11
REMARK    3  A    between atoms: C_11  and  C_12
REMARK    4  A    between atoms: C_12  and  C_13
REMARK                            x       y       z     vdW  Elec       q    Type
REMARK                         _______ _______ _______ _____ _____    ______ ____
ROOT
ATOM      1 CL   UNL     1       5.371   3.622  15.937  0.00  0.00    +0.000 Cl
ATOM      2  C   UNL     1       4.561   4.333  17.278  0.00  0.00    +0.000 A 
ATOM      3  C   UNL     1       4.489   3.641  18.484  0.00  0.00    +0.000 A 
ATOM      4  C   UNL     1       3.839   4.196  19.590  0.00  0.00    +0.000 A 
ATOM      5  C   UNL     1       3.269   5.466  19.435  0.00  0.00    +0.000 A 
ATOM      6  N   UNL     1       2.585   6.241  20.342  0.00  0.00    +0.000 N 
ATOM      7  C   UNL     1       2.191   7.430  19.768  0.00  0.00    +0.000 A 
ATOM      8  C   UNL     1       1.488   8.498  20.303  0.00  0.00    +0.000 A 
ATOM      9  N   UNL     1       1.209   9.542  19.491  0.00  0.00    +0.000 N 
ATOM     10  C   UNL     1       1.628   9.578  18.207  0.00  0.00    +0.000 A 
ATOM     11  C   UNL     1       2.352   8.530  17.647  0.00  0.00    +0.000 A 
ATOM     12  C   UNL     1       2.635   7.417  18.452  0.00  0.00    +0.000 A 
ATOM     13  C   UNL     1       3.323   6.180  18.239  0.00  0.00    +0.000 A 
ATOM     14  C   UNL     1       3.985   5.601  17.135  0.00  0.00    +0.000 A 
ATOM     15  H   UNL     1       2.402   5.954  21.295  0.00  0.00    +0.000 HD
ENDROOT
BRANCH   9  16
ATOM     16  C   UNL     1       0.460  10.703  20.043  0.00  0.00    +0.000 C 
BRANCH  16  17
ATOM     17  C   UNL     1      -1.048  10.491  19.948  0.00  0.00    +0.000 C 
BRANCH  17  18
ATOM     18  C   UNL     1      -1.803  11.652  19.291  0.00  0.00    +0.000 C 
BRANCH  18  19
ATOM     19  C   UNL     1      -2.473  11.210  18.016  0.00  0.00    +0.000 A 
ATOM     20  C   UNL     1      -3.768  11.657  17.716  0.00  0.00    +0.000 A 
ATOM     21  C   UNL     1      -4.424  11.212  16.568  0.00  0.00    +0.000 A 
ATOM     22  C   UNL     1      -3.791  10.319  15.706  0.00  0.00    +0.000 A 
ATOM     23  C   UNL     1      -2.499   9.880  15.986  0.00  0.00    +0.000 A 
ATOM     24  C   UNL     1      -1.841  10.322  17.137  0.00  0.00    +0.000 A 
ENDBRANCH  18  19
ENDBRANCH  17  18
ENDBRANCH  16  17
ENDBRANCH   9  16
TORSDOF 4
ENDMDL
MODEL 6
REMARK VINA RESULT:      -7.9      5.592      8.703
REMARK  Name = 
REMARK  4 active torsions:
REMARK  status: ('A' for Active; 'I' for Inactive)
REMARK    1  A    between atoms: N_9  and  C_10
REMARK    2  A    between atoms: C_10  and  C_11
REMARK    3  A    between atoms: C_11  and  C_12
REMARK    4  A    between atoms: C_12  and  C_13
REMARK                            x       y       z     vdW  Elec       q    Type
REMARK                         _______ _______ _______ _____ _____    ______ ____
ROOT
ATOM      1 CL   UNL     1      -1.399  11.237  22.818  0.00  0.00    +0.000 Cl
ATOM      2  C   UNL     1      -0.597  10.863  21.342  0.00  0.00    +0.000 A 
ATOM      3  C   UNL     1      -0.734  11.715  20.250  0.00  0.00    +0.000 A 
ATOM      4  C   UNL     1      -0.092  11.437  19.041  0.00  0.00    +0.000 A 
ATOM      5  C   UNL     1       0.689  10.276  18.975  0.00  0.00    +0.000 A 
ATOM      6  N   UNL     1       1.426   9.768  17.930  0.00  0.00    +0.000 N 
ATOM      7  C   UNL     1       2.045   8.593  18.297  0.00  0.00    +0.000 A 
ATOM      8  C   UNL     1       2.875   7.750  17.575  0.00  0.00    +0.000 A 
ATOM      9  N   UNL     1       3.324   6.630  18.185  0.00  0.00    +0.000 N 
ATOM     10  C   UNL     1       3.017   6.346  19.469  0.00  0.00    +0.000 A 
ATOM     11  C   UNL     1       2.202   7.183  20.226  0.00  0.00    +0.000 A 
ATOM     12  C   UNL     1       1.694   8.339  19.617  0.00  0.00    +0.000 A 
ATOM     13  C   UNL     1       0.843   9.404  20.052  0.00  0.00    +0.000 A 
ATOM     14  C   UNL     1       0.185   9.705  21.263  0.00  0.00    +0.000 A 
ATOM     15  H   UNL     1       1.486  10.211  17.022  0.00  0.00    +0.000 HD
ENDROOT
BRANCH   9  16
ATOM     16  C   UNL     1       4.220   5.711  17.432  0.00  0.00    +0.000 C 
BRANCH  16  17
ATOM     17  C   UNL     1       3.476   4.462  16.967  0.00  0.00    +0.000 C 
BRANCH  17  18
ATOM     18  C   UNL     1       3.795   3.204  17.783  0.00  0.00    +0.000 C 
BRANCH  18  19
ATOM     19  C   UNL     1       2.919   3.115  19.006  0.00  0.00    +0.000 A 
ATOM     20  C   UNL     1       3.488   2.828  20.254  0.00  0.00    +0.000 A 
ATOM     21  C   UNL     1       2.684   2.685  21.385  0.00  0.00    +0.000 A 
ATOM     22  C   UNL     1       1.303   2.832  21.281  0.00  0.00    +0.000 A 
ATOM     23  C   UNL     1       0.727   3.132  20.048  0.00  0.00    +0.000 A 
ATOM     24  C   UNL     1       1.529   3.272  18.913  0.00  0.00    +0.000 A 
ENDBRANCH  18  19
ENDBRANCH  17  18
ENDBRANCH  16  17
ENDBRANCH   9  16
TORSDOF 4
ENDMDL
MODEL 7
REMARK VINA RESULT:      -7.7      1.501      2.090
REMARK  Name = 
REMARK  4 active torsions:
REMARK  status: ('A' for Active; 'I' for Inactive)
REMARK    1  A    between atoms: N_9  and  C_10
REMARK    2  A    between atoms: C_10  and  C_11
REMARK    3  A    between atoms: C_11  and  C_12
REMARK    4  A    between atoms: C_12  and  C_13
REMARK                            x       y       z     vdW  Elec       q    Type
REMARK                         _______ _______ _______ _____ _____    ______ ____
ROOT
ATOM      1 CL   UNL     1       1.422   2.284  22.009  0.00  0.00    +0.000 Cl
ATOM      2  C   UNL     1       1.859   3.299  20.689  0.00  0.00    +0.000 A 
ATOM      3  C   UNL     1       0.895   3.660  19.752  0.00  0.00    +0.000 A 
ATOM      4  C   UNL     1       1.222   4.484  18.672  0.00  0.00    +0.000 A 
ATOM      5  C   UNL     1       2.547   4.927  18.574  0.00  0.00    +0.000 A 
ATOM      6  N   UNL     1       3.137   5.739  17.633  0.00  0.00    +0.000 N 
ATOM      7  C   UNL     1       4.474   5.921  17.916  0.00  0.00    +0.000 A 
ATOM      8  C   UNL     1       5.443   6.653  17.249  0.00  0.00    +0.000 A 
ATOM      9  N   UNL     1       6.702   6.631  17.741  0.00  0.00    +0.000 N 
ATOM     10  C   UNL     1       7.016   5.955  18.867  0.00  0.00    +0.000 A 
ATOM     11  C   UNL     1       6.060   5.227  19.570  0.00  0.00    +0.000 A 
ATOM     12  C   UNL     1       4.749   5.203  19.073  0.00  0.00    +0.000 A 
ATOM     13  C   UNL     1       3.532   4.579  19.496  0.00  0.00    +0.000 A 
ATOM     14  C   UNL     1       3.180   3.746  20.579  0.00  0.00    +0.000 A 
ATOM     15  H   UNL     1       2.639   6.133  16.845  0.00  0.00    +0.000 HD
ENDROOT
BRANCH   9  16
ATOM     16  C   UNL     1       7.760   7.413  17.045  0.00  0.00    +0.000 C 
BRANCH  16  17
ATOM     17  C   UNL     1       7.887   8.819  17.623  0.00  0.00    +0.000 C 
BRANCH  17  18
ATOM     18  C   UNL     1       8.793   8.909  18.856  0.00  0.00    +0.000 C 
BRANCH  18  19
ATOM     19  C   UNL     1       9.287  10.317  19.063  0.00  0.00    +0.000 A 
ATOM     20  C   UNL     1       9.634  11.106  17.957  0.00  0.00    +0.000 A 
ATOM     21  C   UNL     1      10.148  12.391  18.135  0.00  0.00    +0.000 A 
ATOM     22  C   UNL     1      10.315  12.903  19.420  0.00  0.00    +0.000 A 
ATOM     23  C   UNL     1       9.959  12.134  20.526  0.00  0.00    +0.000 A 
ATOM     24  C   UNL     1       9.448  10.845  20.351  0.00  0.00    +0.000 A 
ENDBRANCH  18  19
ENDBRANCH  17  18
ENDBRANCH  16  17
ENDBRANCH   9  16
TORSDOF 4
ENDMDL
MODEL 8
REMARK VINA RESULT:      -7.6      5.510      7.397
REMARK  Name = 
REMARK  4 active torsions:
REMARK  status: ('A' for Active; 'I' for Inactive)
REMARK    1  A    between atoms: N_9  and  C_10
REMARK    2  A    between atoms: C_10  and  C_11
REMARK    3  A    between atoms: C_11  and  C_12
REMARK    4  A    between atoms: C_12  and  C_13
REMARK                            x       y       z     vdW  Elec       q    Type
REMARK                         _______ _______ _______ _____ _____    ______ ____
ROOT
ATOM      1 CL   UNL     1      -0.770  12.434  19.667  0.00  0.00    +0.000 Cl
ATOM      2  C   UNL     1      -0.057  10.938  20.130  0.00  0.00    +0.000 A 
ATOM      3  C   UNL     1      -0.272  10.442  21.413  0.00  0.00    +0.000 A 
ATOM      4  C   UNL     1       0.294   9.229  21.814  0.00  0.00    +0.000 A 
ATOM      5  C   UNL     1       1.078   8.540  20.880  0.00  0.00    +0.000 A 
ATOM      6  N   UNL     1       1.740   7.340  21.000  0.00  0.00    +0.000 N 
ATOM      7  C   UNL     1       2.398   7.028  19.831  0.00  0.00    +0.000 A 
ATOM      8  C   UNL     1       3.179   5.931  19.503  0.00  0.00    +0.000 A 
ATOM      9  N   UNL     1       3.736   5.896  18.272  0.00  0.00    +0.000 N 
ATOM     10  C   UNL     1       3.517   6.871  17.363  0.00  0.00    +0.000 A 
ATOM     11  C   UNL     1       2.722   7.975  17.655  0.00  0.00    +0.000 A 
ATOM     12  C   UNL     1       2.151   8.059  18.933  0.00  0.00    +0.000 A 
ATOM     13  C   UNL     1       1.311   9.014  19.590  0.00  0.00    +0.000 A 
ATOM     14  C   UNL     1       0.730  10.241  19.206  0.00  0.00    +0.000 A 
ATOM     15  H   UNL     1       1.735   6.782  21.845  0.00  0.00    +0.000 HD
ENDROOT
BRANCH   9  16
ATOM     16  C   UNL     1       4.576   4.727  17.894  0.00  0.00    +0.000 C 
BRANCH  16  17
ATOM     17  C   UNL     1       4.886   4.721  16.400  0.00  0.00    +0.000 C 
BRANCH  17  18
ATOM     18  C   UNL     1       6.380   4.815  16.072  0.00  0.00    +0.000 C 
BRANCH  18  19
ATOM     19  C   UNL     1       6.631   4.551  14.609  0.00  0.00    +0.000 A 
ATOM     20  C   UNL     1       7.595   5.299  13.919  0.00  0.00    +0.000 A 
ATOM     21  C   UNL     1       7.799   5.107  12.553  0.00  0.00    +0.000 A 
ATOM     22  C   UNL     1       7.044   4.161  11.863  0.00  0.00    +0.000 A 
ATOM     23  C   UNL     1       6.094   3.400  12.541  0.00  0.00    +0.000 A 
ATOM     24  C   UNL     1       5.885   3.593  13.909  0.00  0.00    +0.000 A 
ENDBRANCH  18  19
ENDBRANCH  17  18
ENDBRANCH  16  17
ENDBRANCH   9  16
TORSDOF 4
ENDMDL
MODEL 9
REMARK VINA RESULT:      -7.5      6.041      8.612
REMARK  Name = 
REMARK  4 active torsions:
REMARK  status: ('A' for Active; 'I' for Inactive)
REMARK    1  A    between atoms: N_9  and  C_10
REMARK    2  A    between atoms: C_10  and  C_11
REMARK    3  A    between atoms: C_11  and  C_12
REMARK    4  A    between atoms: C_12  and  C_13
REMARK                            x       y       z     vdW  Elec       q    Type
REMARK                         _______ _______ _______ _____ _____    ______ ____
ROOT
ATOM      1 CL   UNL     1       5.653   4.172  15.673  0.00  0.00    +0.000 Cl
ATOM      2  C   UNL     1       4.815   4.711  17.076  0.00  0.00    +0.000 A 
ATOM      3  C   UNL     1       4.868   3.952  18.242  0.00  0.00    +0.000 A 
ATOM      4  C   UNL     1       4.199   4.367  19.396  0.00  0.00    +0.000 A 
ATOM      5  C   UNL     1       3.480   5.567  19.331  0.00  0.00    +0.000 A 
ATOM      6  N   UNL     1       2.745   6.207  20.302  0.00  0.00    +0.000 N 
ATOM      7  C   UNL     1       2.196   7.371  19.809  0.00  0.00    +0.000 A 
ATOM      8  C   UNL     1       1.395   8.319  20.425  0.00  0.00    +0.000 A 
ATOM      9  N   UNL     1       0.968   9.365  19.682  0.00  0.00    +0.000 N 
ATOM     10  C   UNL     1       1.332   9.518  18.391  0.00  0.00    +0.000 A 
ATOM     11  C   UNL     1       2.152   8.593  17.750  0.00  0.00    +0.000 A 
ATOM     12  C   UNL     1       2.590   7.480  18.481  0.00  0.00    +0.000 A 
ATOM     13  C   UNL     1       3.408   6.346  18.177  0.00  0.00    +0.000 A 
ATOM     14  C   UNL     1       4.092   5.908  17.023  0.00  0.00    +0.000 A 
ATOM     15  H   UNL     1       2.632   5.850  21.242  0.00  0.00    +0.000 HD
ENDROOT
BRANCH   9  16
ATOM     16  C   UNL     1       0.109  10.399  20.322  0.00  0.00    +0.000 C 
BRANCH  16  17
ATOM     17  C   UNL     1       0.150  11.714  19.550  0.00  0.00    +0.000 C 
BRANCH  17  18
ATOM     18  C   UNL     1      -1.159  12.509  19.599  0.00  0.00    +0.000 C 
BRANCH  18  19
ATOM     19  C   UNL     1      -2.185  11.924  18.663  0.00  0.00    +0.000 A 
ATOM     20  C   UNL     1      -1.784  11.405  17.423  0.00  0.00    +0.000 A 
ATOM     21  C   UNL     1      -2.728  10.912  16.521  0.00  0.00    +0.000 A 
ATOM     22  C   UNL     1      -4.081  10.928  16.852  0.00  0.00    +0.000 A 
ATOM     23  C   UNL     1      -4.489  11.426  18.087  0.00  0.00    +0.000 A 
ATOM     24  C   UNL     1      -3.547  11.924  18.991  0.00  0.00    +0.000 A 
ENDBRANCH  18  19
ENDBRANCH  17  18
ENDBRANCH  16  17
ENDBRANCH   9  16
TORSDOF 4
ENDMDL
