MODEL 1
REMARK VINA RESULT:      -8.0      0.000      0.000
REMARK  Name = 
REMARK  4 active torsions:
REMARK  status: ('A' for Active; 'I' for Inactive)
REMARK    1  A    between atoms: C_2  and  C_3
REMARK    2  A    between atoms: C_6  and  S_7
REMARK    3  A    between atoms: S_7  and  N_10
REMARK    4  A    between atoms: N_10  and  C_11
REMARK                            x       y       z     vdW  Elec       q    Type
REMARK                         _______ _______ _______ _____ _____    ______ ____
ROOT
ATOM      1  N   UNL     1       4.505   2.870  17.987  0.00  0.00    +0.000 N 
ATOM      2  H   UNL     1       4.780   1.918  17.728  0.00  0.00    +0.000 HD
ENDROOT
BRANCH   1   3
ATOM      3  C   UNL     1       5.160   3.834  17.138  0.00  0.00    +0.000 A 
ATOM      4  C   UNL     1       4.896   3.827  15.767  0.00  0.00    +0.000 A 
ATOM      5  C   UNL     1       5.513   4.762  14.940  0.00  0.00    +0.000 A 
ATOM      6  C   UNL     1       6.411   5.680  15.484  0.00  0.00    +0.000 A 
ATOM      7  C   UNL     1       6.696   5.667  16.862  0.00  0.00    +0.000 A 
ATOM      8  C   UNL     1       7.607   6.565  17.433  0.00  0.00    +0.000 A 
ATOM      9  C   UNL     1       7.867   6.515  18.797  0.00  0.00    +0.000 A 
ATOM     10  C   UNL     1       7.197   5.573  19.552  0.00  0.00    +0.000 A 
ATOM     11  N   UNL     1       6.300   4.702  19.043  0.00  0.00    +0.000 NA
ATOM     12  C   UNL     1       6.061   4.738  17.712  0.00  0.00    +0.000 A 
ENDBRANCH   1   3
BRANCH   1  13
ATOM     13  S   UNL     1       2.813   2.939  18.078  0.00  0.00    +0.000 S 
ATOM     14  O   UNL     1       2.332   1.863  18.919  0.00  0.00    +0.000 OA
ATOM     15  O   UNL     1       2.338   3.090  16.717  0.00  0.00    +0.000 OA
BRANCH  13  19
ATOM     16  C   UNL     1       1.839   6.886  20.185  0.00  0.00    +0.000 A 
ATOM     17  C   UNL     1       2.309   6.891  18.866  0.00  0.00    +0.000 A 
ATOM     18  C   UNL     1       2.617   5.687  18.226  0.00  0.00    +0.000 A 
ATOM     19  C   UNL     1       2.465   4.477  18.913  0.00  0.00    +0.000 A 
ATOM     20  C   UNL     1       1.972   4.462  20.222  0.00  0.00    +0.000 A 
ATOM     21  C   UNL     1       1.668   5.669  20.858  0.00  0.00    +0.000 A 
BRANCH  16  23
ATOM     22  N   UNL     1       1.278   9.126  21.372  0.00  0.00    +0.000 NA
ATOM     23  C   UNL     1       1.532   8.122  20.843  0.00  0.00    +0.000 C 
ENDBRANCH  16  23
ENDBRANCH  13  19
ENDBRANCH   1  13
TORSDOF 4
ENDMDL
MODEL 2
REMARK VINA RESULT:      -7.9      0.067      1.037
REMARK  Name = 
REMARK  4 active torsions:
REMARK  status: ('A' for Active; 'I' for Inactive)
REMARK    1  A    between atoms: C_2  and  C_3
REMARK    2  A    between atoms: C_6  and  S_7
REMARK    3  A    between atoms: S_7  and  N_10
REMARK    4  A    between atoms: N_10  and  C_11
REMARK                            x       y       z     vdW  Elec       q    Type
REMARK                         _______ _______ _______ _____ _____    ______ ____
ROOT
ATOM      1  N   UNL     1       4.540   2.875  17.980  0.00  0.00    +0.000 N 
ATOM      2  H   UNL     1       4.853   1.931  17.734  0.00  0.00    +0.000 HD
ENDROOT
BRANCH   1   3
ATOM      3  C   UNL     1       5.170   3.854  17.130  0.00  0.00    +0.000 A 
ATOM      4  C   UNL     1       4.882   3.858  15.763  0.00  0.00    +0.000 A 
ATOM      5  C   UNL     1       5.475   4.808  14.936  0.00  0.00    +0.000 A 
ATOM      6  C   UNL     1       6.371   5.730  15.473  0.00  0.00    +0.000 A 
ATOM      7  C   UNL     1       6.679   5.708  16.845  0.00  0.00    +0.000 A 
ATOM      8  C   UNL     1       7.589   6.611  17.410  0.00  0.00    +0.000 A 
ATOM      9  C   UNL     1       7.873   6.550  18.769  0.00  0.00    +0.000 A 
ATOM     10  C   UNL     1       7.227   5.594  19.526  0.00  0.00    +0.000 A 
ATOM     11  N   UNL     1       6.331   4.717  19.024  0.00  0.00    +0.000 NA
ATOM     12  C   UNL     1       6.070   4.763  17.697  0.00  0.00    +0.000 A 
ENDBRANCH   1   3
BRANCH   1  13
ATOM     13  S   UNL     1       2.845   2.882  18.048  0.00  0.00    +0.000 S 
ATOM     14  O   UNL     1       2.394   1.795  18.893  0.00  0.00    +0.000 OA
ATOM     15  O   UNL     1       2.382   3.003  16.681  0.00  0.00    +0.000 OA
BRANCH  13  19
ATOM     16  C   UNL     1       1.859   6.811  20.183  0.00  0.00    +0.000 A 
ATOM     17  C   UNL     1       1.688   5.589  20.845  0.00  0.00    +0.000 A 
ATOM     18  C   UNL     1       1.978   4.388  20.191  0.00  0.00    +0.000 A 
ATOM     19  C   UNL     1       2.429   4.413  18.866  0.00  0.00    +0.000 A 
ATOM     20  C   UNL     1       2.627   5.630  18.206  0.00  0.00    +0.000 A 
ATOM     21  C   UNL     1       2.332   6.827  18.865  0.00  0.00    +0.000 A 
BRANCH  16  23
ATOM     22  N   UNL     1       1.300   9.041  21.390  0.00  0.00    +0.000 NA
ATOM     23  C   UNL     1       1.551   8.041  20.853  0.00  0.00    +0.000 C 
ENDBRANCH  16  23
ENDBRANCH  13  19
ENDBRANCH   1  13
TORSDOF 4
ENDMDL
MODEL 3
REMARK VINA RESULT:      -7.7      2.573      5.891
REMARK  Name = 
REMARK  4 active torsions:
REMARK  status: ('A' for Active; 'I' for Inactive)
REMARK    1  A    between atoms: C_2  and  C_3
REMARK    2  A    between atoms: C_6  and  S_7
REMARK    3  A    between atoms: S_7  and  N_10
REMARK    4  A    between atoms: N_10  and  C_11
REMARK                            x       y       z     vdW  Elec       q    Type
REMARK                         _______ _______ _______ _____ _____    ______ ____
ROOT
ATOM      1  N   UNL     1       4.260   5.172  17.172  0.00  0.00    +0.000 N 
ATOM      2  H   UNL     1       3.868   4.569  16.442  0.00  0.00    +0.000 HD
ENDROOT
BRANCH   1   3
ATOM      3  C   UNL     1       3.340   5.297  18.274  0.00  0.00    +0.000 A 
ATOM      4  C   UNL     1       3.284   6.498  18.985  0.00  0.00    +0.000 A 
ATOM      5  C   UNL     1       2.389   6.633  20.042  0.00  0.00    +0.000 A 
ATOM      6  C   UNL     1       1.574   5.560  20.400  0.00  0.00    +0.000 A 
ATOM      7  C   UNL     1       1.650   4.343  19.699  0.00  0.00    +0.000 A 
ATOM      8  C   UNL     1       0.857   3.242  20.047  0.00  0.00    +0.000 A 
ATOM      9  C   UNL     1       0.968   2.054  19.336  0.00  0.00    +0.000 A 
ATOM     10  C   UNL     1       1.864   2.008  18.286  0.00  0.00    +0.000 A 
ATOM     11  N   UNL     1       2.634   3.050  17.907  0.00  0.00    +0.000 NA
ATOM     12  C   UNL     1       2.539   4.201  18.613  0.00  0.00    +0.000 A 
ENDBRANCH   1   3
BRANCH   1  13
ATOM     13  S   UNL     1       5.830   4.638  17.529  0.00  0.00    +0.000 S 
ATOM     14  O   UNL     1       6.386   3.969  16.370  0.00  0.00    +0.000 OA
ATOM     15  O   UNL     1       5.750   3.965  18.809  0.00  0.00    +0.000 OA
BRANCH  13  19
ATOM     16  C   UNL     1       8.178   8.499  18.266  0.00  0.00    +0.000 A 
ATOM     17  C   UNL     1       7.155   8.470  17.310  0.00  0.00    +0.000 A 
ATOM     18  C   UNL     1       6.445   7.289  17.076  0.00  0.00    +0.000 A 
ATOM     19  C   UNL     1       6.769   6.131  17.794  0.00  0.00    +0.000 A 
ATOM     20  C   UNL     1       7.772   6.159  18.769  0.00  0.00    +0.000 A 
ATOM     21  C   UNL     1       8.481   7.342  18.996  0.00  0.00    +0.000 A 
BRANCH  16  23
ATOM     22  N   UNL     1       9.502  10.694  18.681  0.00  0.00    +0.000 NA
ATOM     23  C   UNL     1       8.911   9.709  18.498  0.00  0.00    +0.000 C 
ENDBRANCH  16  23
ENDBRANCH  13  19
ENDBRANCH   1  13
TORSDOF 4
ENDMDL
MODEL 4
REMARK VINA RESULT:      -7.6      2.544      5.863
REMARK  Name = 
REMARK  4 active torsions:
REMARK  status: ('A' for Active; 'I' for Inactive)
REMARK    1  A    between atoms: C_2  and  C_3
REMARK    2  A    between atoms: C_6  and  S_7
REMARK    3  A    between atoms: S_7  and  N_10
REMARK    4  A    between atoms: N_10  and  C_11
REMARK                            x       y       z     vdW  Elec       q    Type
REMARK                         _______ _______ _______ _____ _____    ______ ____
ROOT
ATOM      1  N   UNL     1       4.126   4.940  17.056  0.00  0.00    +0.000 N 
ATOM      2  H   UNL     1       3.680   4.222  16.478  0.00  0.00    +0.000 HD
ENDROOT
BRANCH   1   3
ATOM      3  C   UNL     1       3.297   5.263  18.190  0.00  0.00    +0.000 A 
ATOM      4  C   UNL     1       3.338   6.555  18.721  0.00  0.00    +0.000 A 
ATOM      5  C   UNL     1       2.531   6.880  19.807  0.00  0.00    +0.000 A 
ATOM      6  C   UNL     1       1.708   5.907  20.374  0.00  0.00    +0.000 A 
ATOM      7  C   UNL     1       1.688   4.601  19.854  0.00  0.00    +0.000 A 
ATOM      8  C   UNL     1       0.885   3.598  20.414  0.00  0.00    +0.000 A 
ATOM      9  C   UNL     1       0.901   2.317  19.876  0.00  0.00    +0.000 A 
ATOM     10  C   UNL     1       1.711   2.080  18.784  0.00  0.00    +0.000 A 
ATOM     11  N   UNL     1       2.486   3.022  18.205  0.00  0.00    +0.000 NA
ATOM     12  C   UNL     1       2.487   4.264  18.740  0.00  0.00    +0.000 A 
ENDBRANCH   1   3
BRANCH   1  13
ATOM     13  S   UNL     1       5.723   4.465  17.373  0.00  0.00    +0.000 S 
ATOM     14  O   UNL     1       6.294   3.870  16.181  0.00  0.00    +0.000 OA
ATOM     15  O   UNL     1       5.691   3.738  18.625  0.00  0.00    +0.000 OA
BRANCH  13  19
ATOM     16  C   UNL     1       8.028   8.349  18.128  0.00  0.00    +0.000 A 
ATOM     17  C   UNL     1       8.355   7.188  18.839  0.00  0.00    +0.000 A 
ATOM     18  C   UNL     1       7.645   6.004  18.618  0.00  0.00    +0.000 A 
ATOM     19  C   UNL     1       6.597   5.988  17.689  0.00  0.00    +0.000 A 
ATOM     20  C   UNL     1       6.281   7.137  16.956  0.00  0.00    +0.000 A 
ATOM     21  C   UNL     1       6.993   8.318  17.184  0.00  0.00    +0.000 A 
BRANCH  16  23
ATOM     22  N   UNL     1       9.342  10.546  18.560  0.00  0.00    +0.000 NA
ATOM     23  C   UNL     1       8.752   9.564  18.364  0.00  0.00    +0.000 C 
ENDBRANCH  16  23
ENDBRANCH  13  19
ENDBRANCH   1  13
TORSDOF 4
ENDMDL
MODEL 5
REMARK VINA RESULT:      -7.5      1.222      1.584
REMARK  Name = 
REMARK  4 active torsions:
REMARK  status: ('A' for Active; 'I' for Inactive)
REMARK    1  A    between atoms: C_2  and  C_3
REMARK    2  A    between atoms: C_6  and  S_7
REMARK    3  A    between atoms: S_7  and  N_10
REMARK    4  A    between atoms: N_10  and  C_11
REMARK                            x       y       z     vdW  Elec       q    Type
REMARK                         _______ _______ _______ _____ _____    ______ ____
ROOT
ATOM      1  N   UNL     1       4.839   2.801  18.678  0.00  0.00    +0.000 N 
ATOM      2  H   UNL     1       4.992   1.842  18.353  0.00  0.00    +0.000 HD
ENDROOT
BRANCH   1   3
ATOM      3  C   UNL     1       5.245   3.748  17.670  0.00  0.00    +0.000 A 
ATOM      4  C   UNL     1       4.733   3.630  16.376  0.00  0.00    +0.000 A 
ATOM      5  C   UNL     1       5.109   4.547  15.398  0.00  0.00    +0.000 A 
ATOM      6  C   UNL     1       6.015   5.559  15.712  0.00  0.00    +0.000 A 
ATOM      7  C   UNL     1       6.551   5.659  17.008  0.00  0.00    +0.000 A 
ATOM      8  C   UNL     1       7.477   6.655  17.347  0.00  0.00    +0.000 A 
ATOM      9  C   UNL     1       7.989   6.715  18.637  0.00  0.00    +0.000 A 
ATOM     10  C   UNL     1       7.548   5.783  19.555  0.00  0.00    +0.000 A 
ATOM     11  N   UNL     1       6.645   4.819  19.274  0.00  0.00    +0.000 NA
ATOM     12  C   UNL     1       6.162   4.748  18.013  0.00  0.00    +0.000 A 
ENDBRANCH   1   3
BRANCH   1  13
ATOM     13  S   UNL     1       3.252   2.926  19.265  0.00  0.00    +0.000 S 
ATOM     14  O   UNL     1       3.250   2.700  20.696  0.00  0.00    +0.000 OA
ATOM     15  O   UNL     1       2.426   2.127  18.383  0.00  0.00    +0.000 OA
BRANCH  13  19
ATOM     16  C   UNL     1       2.164   7.310  18.509  0.00  0.00    +0.000 A 
ATOM     17  C   UNL     1       2.912   6.956  19.638  0.00  0.00    +0.000 A 
ATOM     18  C   UNL     1       3.236   5.617  19.876  0.00  0.00    +0.000 A 
ATOM     19  C   UNL     1       2.798   4.629  18.986  0.00  0.00    +0.000 A 
ATOM     20  C   UNL     1       2.072   4.977  17.842  0.00  0.00    +0.000 A 
ATOM     21  C   UNL     1       1.749   6.317  17.611  0.00  0.00    +0.000 A 
BRANCH  16  23
ATOM     22  N   UNL     1       1.557   9.797  18.083  0.00  0.00    +0.000 NA
ATOM     23  C   UNL     1       1.825   8.682  18.272  0.00  0.00    +0.000 C 
ENDBRANCH  16  23
ENDBRANCH  13  19
ENDBRANCH   1  13
TORSDOF 4
ENDMDL
MODEL 6
REMARK VINA RESULT:      -7.5      2.760      4.485
REMARK  Name = 
REMARK  4 active torsions:
REMARK  status: ('A' for Active; 'I' for Inactive)
REMARK    1  A    between atoms: C_2  and  C_3
REMARK    2  A    between atoms: C_6  and  S_7
REMARK    3  A    between atoms: S_7  and  N_10
REMARK    4  A    between atoms: N_10  and  C_11
REMARK                            x       y       z     vdW  Elec       q    Type
REMARK                         _______ _______ _______ _____ _____    ______ ____
ROOT
ATOM      1  N   UNL     1       5.473   3.317  18.914  0.00  0.00    +0.000 N 
ATOM      2  H   UNL     1       5.611   3.032  19.889  0.00  0.00    +0.000 HD
ENDROOT
BRANCH   1   3
ATOM      3  C   UNL     1       4.078   3.238  18.558  0.00  0.00    +0.000 A 
ATOM      4  C   UNL     1       3.707   3.382  17.219  0.00  0.00    +0.000 A 
ATOM      5  C   UNL     1       2.364   3.294  16.862  0.00  0.00    +0.000 A 
ATOM      6  C   UNL     1       1.399   3.089  17.847  0.00  0.00    +0.000 A 
ATOM      7  C   UNL     1       1.773   2.970  19.198  0.00  0.00    +0.000 A 
ATOM      8  C   UNL     1       0.824   2.782  20.211  0.00  0.00    +0.000 A 
ATOM      9  C   UNL     1       1.234   2.678  21.534  0.00  0.00    +0.000 A 
ATOM     10  C   UNL     1       2.585   2.753  21.804  0.00  0.00    +0.000 A 
ATOM     11  N   UNL     1       3.533   2.916  20.856  0.00  0.00    +0.000 NA
ATOM     12  C   UNL     1       3.132   3.038  19.569  0.00  0.00    +0.000 A 
ENDBRANCH   1   3
BRANCH   1  13
ATOM     13  S   UNL     1       6.254   4.802  18.669  0.00  0.00    +0.000 S 
ATOM     14  O   UNL     1       6.995   4.756  17.425  0.00  0.00    +0.000 OA
ATOM     15  O   UNL     1       6.913   5.128  19.917  0.00  0.00    +0.000 OA
BRANCH  13  19
ATOM     16  C   UNL     1       2.813   7.771  18.109  0.00  0.00    +0.000 A 
ATOM     17  C   UNL     1       3.772   7.609  17.102  0.00  0.00    +0.000 A 
ATOM     18  C   UNL     1       4.829   6.711  17.276  0.00  0.00    +0.000 A 
ATOM     19  C   UNL     1       4.931   5.983  18.468  0.00  0.00    +0.000 A 
ATOM     20  C   UNL     1       3.963   6.121  19.468  0.00  0.00    +0.000 A 
ATOM     21  C   UNL     1       2.910   7.022  19.289  0.00  0.00    +0.000 A 
BRANCH  16  23
ATOM     22  N   UNL     1       0.857   9.449  17.793  0.00  0.00    +0.000 NA
ATOM     23  C   UNL     1       1.735   8.700  17.932  0.00  0.00    +0.000 C 
ENDBRANCH  16  23
ENDBRANCH  13  19
ENDBRANCH   1  13
TORSDOF 4
ENDMDL
MODEL 7
REMARK VINA RESULT:      -7.5      2.769      4.594
REMARK  Name = 
REMARK  4 active torsions:
REMARK  status: ('A' for Active; 'I' for Inactive)
REMARK    1  A    between atoms: C_2  and  C_3
REMARK    2  A    between atoms: C_6  and  S_7
REMARK    3  A    between atoms: S_7  and  N_10
REMARK    4  A    between atoms: N_10  and  C_11
REMARK                            x       y       z     vdW  Elec       q    Type
REMARK                         _______ _______ _______ _____ _____    ______ ____
ROOT
ATOM      1  N   UNL     1       5.446   3.309  18.833  0.00  0.00    +0.000 N 
ATOM      2  H   UNL     1       5.618   2.978  19.787  0.00  0.00    +0.000 HD
ENDROOT
BRANCH   1   3
ATOM      3  C   UNL     1       4.043   3.220  18.513  0.00  0.00    +0.000 A 
ATOM      4  C   UNL     1       3.635   3.362  17.184  0.00  0.00    +0.000 A 
ATOM      5  C   UNL     1       2.284   3.264  16.863  0.00  0.00    +0.000 A 
ATOM      6  C   UNL     1       1.346   3.053  17.873  0.00  0.00    +0.000 A 
ATOM      7  C   UNL     1       1.757   2.938  19.213  0.00  0.00    +0.000 A 
ATOM      8  C   UNL     1       0.836   2.744  20.251  0.00  0.00    +0.000 A 
ATOM      9  C   UNL     1       1.281   2.643  21.563  0.00  0.00    +0.000 A 
ATOM     10  C   UNL     1       2.639   2.727  21.797  0.00  0.00    +0.000 A 
ATOM     11  N   UNL     1       3.560   2.897  20.824  0.00  0.00    +0.000 NA
ATOM     12  C   UNL     1       3.125   3.014  19.549  0.00  0.00    +0.000 A 
ENDBRANCH   1   3
BRANCH   1  13
ATOM     13  S   UNL     1       6.191   4.820  18.641  0.00  0.00    +0.000 S 
ATOM     14  O   UNL     1       6.972   4.820  17.421  0.00  0.00    +0.000 OA
ATOM     15  O   UNL     1       6.802   5.138  19.916  0.00  0.00    +0.000 OA
BRANCH  13  19
ATOM     16  C   UNL     1       2.776   7.826  18.123  0.00  0.00    +0.000 A 
ATOM     17  C   UNL     1       2.859   7.049  19.286  0.00  0.00    +0.000 A 
ATOM     18  C   UNL     1       3.894   6.123  19.440  0.00  0.00    +0.000 A 
ATOM     19  C   UNL     1       4.843   5.968  18.422  0.00  0.00    +0.000 A 
ATOM     20  C   UNL     1       4.782   6.758  17.269  0.00  0.00    +0.000 A 
ATOM     21  C   UNL     1       3.742   7.680  17.119  0.00  0.00    +0.000 A 
BRANCH  16  23
ATOM     22  N   UNL     1       0.837   9.528  17.837  0.00  0.00    +0.000 NA
ATOM     23  C   UNL     1       1.707   8.768  17.963  0.00  0.00    +0.000 C 
ENDBRANCH  16  23
ENDBRANCH  13  19
ENDBRANCH   1  13
TORSDOF 4
ENDMDL
MODEL 8
REMARK VINA RESULT:      -7.4      1.192      1.408
REMARK  Name = 
REMARK  4 active torsions:
REMARK  status: ('A' for Active; 'I' for Inactive)
REMARK    1  A    between atoms: C_2  and  C_3
REMARK    2  A    between atoms: C_6  and  S_7
REMARK    3  A    between atoms: S_7  and  N_10
REMARK    4  A    between atoms: N_10  and  C_11
REMARK                            x       y       z     vdW  Elec       q    Type
REMARK                         _______ _______ _______ _____ _____    ______ ____
ROOT
ATOM      1  N   UNL     1       4.806   2.801  18.640  0.00  0.00    +0.000 N 
ATOM      2  H   UNL     1       4.911   1.837  18.308  0.00  0.00    +0.000 HD
ENDROOT
BRANCH   1   3
ATOM      3  C   UNL     1       5.242   3.733  17.631  0.00  0.00    +0.000 A 
ATOM      4  C   UNL     1       4.762   3.601  16.326  0.00  0.00    +0.000 A 
ATOM      5  C   UNL     1       5.167   4.505  15.347  0.00  0.00    +0.000 A 
ATOM      6  C   UNL     1       6.069   5.517  15.671  0.00  0.00    +0.000 A 
ATOM      7  C   UNL     1       6.571   5.632  16.980  0.00  0.00    +0.000 A 
ATOM      8  C   UNL     1       7.492   6.628  17.330  0.00  0.00    +0.000 A 
ATOM      9  C   UNL     1       7.971   6.703  18.632  0.00  0.00    +0.000 A 
ATOM     10  C   UNL     1       7.504   5.784  19.550  0.00  0.00    +0.000 A 
ATOM     11  N   UNL     1       6.604   4.820  19.258  0.00  0.00    +0.000 NA
ATOM     12  C   UNL     1       6.153   4.735  17.985  0.00  0.00    +0.000 A 
ENDBRANCH   1   3
BRANCH   1  13
ATOM     13  S   UNL     1       3.235   2.994  19.248  0.00  0.00    +0.000 S 
ATOM     14  O   UNL     1       3.243   2.779  20.681  0.00  0.00    +0.000 OA
ATOM     15  O   UNL     1       2.365   2.222  18.384  0.00  0.00    +0.000 OA
BRANCH  13  19
ATOM     16  C   UNL     1       2.153   7.388  18.547  0.00  0.00    +0.000 A 
ATOM     17  C   UNL     1       1.786   6.415  17.608  0.00  0.00    +0.000 A 
ATOM     18  C   UNL     1       2.126   5.076  17.816  0.00  0.00    +0.000 A 
ATOM     19  C   UNL     1       2.845   4.712  18.961  0.00  0.00    +0.000 A 
ATOM     20  C   UNL     1       3.192   5.673  19.916  0.00  0.00    +0.000 A 
ATOM     21  C   UNL     1       2.852   7.013  19.701  0.00  0.00    +0.000 A 
BRANCH  16  23
ATOM     22  N   UNL     1       1.543   9.880  18.147  0.00  0.00    +0.000 NA
ATOM     23  C   UNL     1       1.812   8.763  18.327  0.00  0.00    +0.000 C 
ENDBRANCH  16  23
ENDBRANCH  13  19
ENDBRANCH   1  13
TORSDOF 4
ENDMDL
MODEL 9
REMARK VINA RESULT:      -7.4      2.130      6.105
REMARK  Name = 
REMARK  4 active torsions:
REMARK  status: ('A' for Active; 'I' for Inactive)
REMARK    1  A    between atoms: C_2  and  C_3
REMARK    2  A    between atoms: C_6  and  S_7
REMARK    3  A    between atoms: S_7  and  N_10
REMARK    4  A    between atoms: N_10  and  C_11
REMARK                            x       y       z     vdW  Elec       q    Type
REMARK                         _______ _______ _______ _____ _____    ______ ____
ROOT
ATOM      1  N   UNL     1       2.671   6.148  20.508  0.00  0.00    +0.000 N 
ATOM      2  H   UNL     1       3.615   6.301  20.877  0.00  0.00    +0.000 HD
ENDROOT
BRANCH   1   3
ATOM      3  C   UNL     1       2.229   7.298  19.759  0.00  0.00    +0.000 A 
ATOM      4  C   UNL     1       2.602   7.426  18.419  0.00  0.00    +0.000 A 
ATOM      5  C   UNL     1       2.169   8.525  17.684  0.00  0.00    +0.000 A 
ATOM      6  C   UNL     1       1.389   9.504  18.298  0.00  0.00    +0.000 A 
ATOM      7  C   UNL     1       1.036   9.386  19.654  0.00  0.00    +0.000 A 
ATOM      8  C   UNL     1       0.268  10.363  20.302  0.00  0.00    +0.000 A 
ATOM      9  C   UNL     1      -0.052  10.214  21.646  0.00  0.00    +0.000 A 
ATOM     10  C   UNL     1       0.396   9.084  22.300  0.00  0.00    +0.000 A 
ATOM     11  N   UNL     1       1.124   8.112  21.708  0.00  0.00    +0.000 NA
ATOM     12  C   UNL     1       1.452   8.267  20.405  0.00  0.00    +0.000 A 
ENDBRANCH   1   3
BRANCH   1  13
ATOM     13  S   UNL     1       2.636   4.647  19.719  0.00  0.00    +0.000 S 
ATOM     14  O   UNL     1       1.373   4.498  19.025  0.00  0.00    +0.000 OA
ATOM     15  O   UNL     1       3.072   3.665  20.691  0.00  0.00    +0.000 OA
BRANCH  13  19
ATOM     16  C   UNL     1       5.903   4.993  16.529  0.00  0.00    +0.000 A 
ATOM     17  C   UNL     1       4.648   4.468  16.196  0.00  0.00    +0.000 A 
ATOM     18  C   UNL     1       3.654   4.352  17.172  0.00  0.00    +0.000 A 
ATOM     19  C   UNL     1       3.922   4.752  18.487  0.00  0.00    +0.000 A 
ATOM     20  C   UNL     1       5.164   5.300  18.821  0.00  0.00    +0.000 A 
ATOM     21  C   UNL     1       6.156   5.411  17.842  0.00  0.00    +0.000 A 
BRANCH  16  23
ATOM     22  N   UNL     1       7.757   5.185  14.722  0.00  0.00    +0.000 NA
ATOM     23  C   UNL     1       6.925   5.102  15.530  0.00  0.00    +0.000 C 
ENDBRANCH  16  23
ENDBRANCH  13  19
ENDBRANCH   1  13
TORSDOF 4
ENDMDL
