MODEL 1
REMARK VINA RESULT:      -7.6      0.000      0.000
REMARK  Name = 
REMARK  4 active torsions:
REMARK  status: ('A' for Active; 'I' for Inactive)
REMARK    1  A    between atoms: C_5  and  C_6
REMARK    2  A    between atoms: C_6  and  S_7
REMARK    3  A    between atoms: S_7  and  C_10
REMARK    4  A    between atoms: C_14  and  C_15
REMARK                            x       y       z     vdW  Elec       q    Type
REMARK                         _______ _______ _______ _____ _____    ______ ____
ROOT
ATOM      1  S   UNL     1       5.620   5.032  18.448  0.00  0.00    +0.000 S 
ATOM      2  O   UNL     1       6.581   4.001  18.111  0.00  0.00    +0.000 OA
ATOM      3  O   UNL     1       5.573   5.670  19.751  0.00  0.00    +0.000 OA
ENDROOT
BRANCH   1   4
ATOM      4  C   UNL     1       4.077   4.221  18.312  0.00  0.00    +0.000 A 
ATOM      5  N   UNL     1       3.982   2.915  17.972  0.00  0.00    +0.000 NA
ATOM      6  N   UNL     1       2.663   2.669  18.019  0.00  0.00    +0.000 N 
ATOM      7  C   UNL     1       1.918   3.749  18.391  0.00  0.00    +0.000 A 
ATOM      8  C   UNL     1       2.797   4.799  18.590  0.00  0.00    +0.000 A 
ATOM      9  H   UNL     1       2.334   1.735  17.791  0.00  0.00    +0.000 HD
BRANCH   8  10
ATOM     10  C   UNL     1       2.360   6.136  18.992  0.00  0.00    +0.000 A 
ATOM     11  C   UNL     1       2.377   7.207  18.085  0.00  0.00    +0.000 A 
ATOM     12  C   UNL     1       1.968   8.490  18.476  0.00  0.00    +0.000 A 
ATOM     13  C   UNL     1       1.516   8.717  19.772  0.00  0.00    +0.000 A 
ATOM     14  C   UNL     1       1.494   7.669  20.683  0.00  0.00    +0.000 A 
ATOM     15  C   UNL     1       1.933   6.399  20.299  0.00  0.00    +0.000 A 
ENDBRANCH   8  10
ENDBRANCH   1   4
BRANCH   1  16
ATOM     16  C   UNL     1       5.607   6.290  17.199  0.00  0.00    +0.000 C 
BRANCH  16  21
ATOM     17  N   UNL     1       6.597   3.608  12.917  0.00  0.00    +0.000 N 
ATOM     18  C   UNL     1       6.618   4.410  13.997  0.00  0.00    +0.000 A 
ATOM     19  N   UNL     1       7.654   5.114  14.391  0.00  0.00    +0.000 NA
ATOM     20  N   UNL     1       7.399   5.851  15.530  0.00  0.00    +0.000 NA
ATOM     21  C   UNL     1       6.177   5.658  15.981  0.00  0.00    +0.000 A 
ATOM     22  S   UNL     1       5.238   4.597  15.004  0.00  0.00    +0.000 S 
ATOM     23  H   UNL     1       7.503   3.350  12.542  0.00  0.00    +0.000 HD
ATOM     24  H   UNL     1       5.911   2.863  12.892  0.00  0.00    +0.000 HD
ENDBRANCH  16  21
ENDBRANCH   1  16
TORSDOF 4
ENDMDL
MODEL 2
REMARK VINA RESULT:      -7.5      0.085      1.051
REMARK  Name = 
REMARK  4 active torsions:
REMARK  status: ('A' for Active; 'I' for Inactive)
REMARK    1  A    between atoms: C_5  and  C_6
REMARK    2  A    between atoms: C_6  and  S_7
REMARK    3  A    between atoms: S_7  and  C_10
REMARK    4  A    between atoms: C_14  and  C_15
REMARK                            x       y       z     vdW  Elec       q    Type
REMARK                         _______ _______ _______ _____ _____    ______ ____
ROOT
ATOM      1  S   UNL     1       5.566   5.040  18.442  0.00  0.00    +0.000 S 
ATOM      2  O   UNL     1       6.512   3.988  18.127  0.00  0.00    +0.000 OA
ATOM      3  O   UNL     1       5.496   5.674  19.747  0.00  0.00    +0.000 OA
ENDROOT
BRANCH   1   4
ATOM      4  C   UNL     1       4.008   4.266  18.257  0.00  0.00    +0.000 A 
ATOM      5  N   UNL     1       3.892   2.974  17.873  0.00  0.00    +0.000 NA
ATOM      6  N   UNL     1       2.569   2.754  17.894  0.00  0.00    +0.000 N 
ATOM      7  C   UNL     1       1.840   3.836  18.291  0.00  0.00    +0.000 A 
ATOM      8  C   UNL     1       2.736   4.861  18.537  0.00  0.00    +0.000 A 
ATOM      9  H   UNL     1       2.224   1.835  17.630  0.00  0.00    +0.000 HD
BRANCH   8  10
ATOM     10  C   UNL     1       2.321   6.192  18.978  0.00  0.00    +0.000 A 
ATOM     11  C   UNL     1       1.893   6.417  20.296  0.00  0.00    +0.000 A 
ATOM     12  C   UNL     1       1.485   7.692  20.714  0.00  0.00    +0.000 A 
ATOM     13  C   UNL     1       1.519   8.764  19.828  0.00  0.00    +0.000 A 
ATOM     14  C   UNL     1       1.939   8.559  18.521  0.00  0.00    +0.000 A 
ATOM     15  C   UNL     1       2.314   7.281  18.098  0.00  0.00    +0.000 A 
ENDBRANCH   8  10
ENDBRANCH   1   4
BRANCH   1  16
ATOM     16  C   UNL     1       5.618   6.304  17.200  0.00  0.00    +0.000 C 
BRANCH  16  21
ATOM     17  N   UNL     1       6.598   3.613  12.922  0.00  0.00    +0.000 N 
ATOM     18  C   UNL     1       6.625   4.408  14.007  0.00  0.00    +0.000 A 
ATOM     19  N   UNL     1       7.678   5.072  14.426  0.00  0.00    +0.000 NA
ATOM     20  N   UNL     1       7.426   5.812  15.564  0.00  0.00    +0.000 NA
ATOM     21  C   UNL     1       6.189   5.659  15.989  0.00  0.00    +0.000 A 
ATOM     22  S   UNL     1       5.234   4.638  14.987  0.00  0.00    +0.000 S 
ATOM     23  H   UNL     1       7.502   3.325  12.563  0.00  0.00    +0.000 HD
ATOM     24  H   UNL     1       5.887   2.893  12.879  0.00  0.00    +0.000 HD
ENDBRANCH  16  21
ENDBRANCH   1  16
TORSDOF 4
ENDMDL
MODEL 3
REMARK VINA RESULT:      -7.5      2.003      2.406
REMARK  Name = 
REMARK  4 active torsions:
REMARK  status: ('A' for Active; 'I' for Inactive)
REMARK    1  A    between atoms: C_5  and  C_6
REMARK    2  A    between atoms: C_6  and  S_7
REMARK    3  A    between atoms: S_7  and  C_10
REMARK    4  A    between atoms: C_14  and  C_15
REMARK                            x       y       z     vdW  Elec       q    Type
REMARK                         _______ _______ _______ _____ _____    ______ ____
ROOT
ATOM      1  S   UNL     1       4.319   3.137  19.238  0.00  0.00    +0.000 S 
ATOM      2  O   UNL     1       3.997   2.768  17.874  0.00  0.00    +0.000 OA
ATOM      3  O   UNL     1       5.073   2.274  20.131  0.00  0.00    +0.000 OA
ENDROOT
BRANCH   1   4
ATOM      4  C   UNL     1       2.756   3.288  20.007  0.00  0.00    +0.000 A 
ATOM      5  N   UNL     1       2.218   2.284  20.737  0.00  0.00    +0.000 NA
ATOM      6  N   UNL     1       1.061   2.800  21.182  0.00  0.00    +0.000 N 
ATOM      7  C   UNL     1       0.847   4.087  20.787  0.00  0.00    +0.000 A 
ATOM      8  C   UNL     1       1.929   4.456  20.006  0.00  0.00    +0.000 A 
ATOM      9  H   UNL     1       0.460   2.219  21.760  0.00  0.00    +0.000 HD
BRANCH   8  10
ATOM     10  C   UNL     1       2.052   5.778  19.392  0.00  0.00    +0.000 A 
ATOM     11  C   UNL     1       2.257   5.917  18.010  0.00  0.00    +0.000 A 
ATOM     12  C   UNL     1       2.385   7.185  17.424  0.00  0.00    +0.000 A 
ATOM     13  C   UNL     1       2.288   8.331  18.206  0.00  0.00    +0.000 A 
ATOM     14  C   UNL     1       2.086   8.212  19.575  0.00  0.00    +0.000 A 
ATOM     15  C   UNL     1       1.992   6.946  20.160  0.00  0.00    +0.000 A 
ENDBRANCH   8  10
ENDBRANCH   1   4
BRANCH   1  16
ATOM     16  C   UNL     1       5.030   4.760  19.284  0.00  0.00    +0.000 C 
BRANCH  16  21
ATOM     17  N   UNL     1       7.578   5.353  14.850  0.00  0.00    +0.000 N 
ATOM     18  C   UNL     1       7.174   5.090  16.106  0.00  0.00    +0.000 A 
ATOM     19  N   UNL     1       7.917   4.528  17.032  0.00  0.00    +0.000 NA
ATOM     20  N   UNL     1       7.251   4.377  18.232  0.00  0.00    +0.000 NA
ATOM     21  C   UNL     1       6.008   4.806  18.167  0.00  0.00    +0.000 A 
ATOM     22  S   UNL     1       5.587   5.476  16.639  0.00  0.00    +0.000 S 
ATOM     23  H   UNL     1       8.412   4.864  14.544  0.00  0.00    +0.000 HD
ATOM     24  H   UNL     1       6.868   5.451  14.134  0.00  0.00    +0.000 HD
ENDBRANCH  16  21
ENDBRANCH   1  16
TORSDOF 4
ENDMDL
MODEL 4
REMARK VINA RESULT:      -7.3      3.304      6.414
REMARK  Name = 
REMARK  4 active torsions:
REMARK  status: ('A' for Active; 'I' for Inactive)
REMARK    1  A    between atoms: C_5  and  C_6
REMARK    2  A    between atoms: C_6  and  S_7
REMARK    3  A    between atoms: S_7  and  C_10
REMARK    4  A    between atoms: C_14  and  C_15
REMARK                            x       y       z     vdW  Elec       q    Type
REMARK                         _______ _______ _______ _____ _____    ______ ____
ROOT
ATOM      1  S   UNL     1       4.129   5.745  17.969  0.00  0.00    +0.000 S 
ATOM      2  O   UNL     1       4.177   6.580  16.785  0.00  0.00    +0.000 OA
ATOM      3  O   UNL     1       3.640   6.222  19.251  0.00  0.00    +0.000 OA
ENDROOT
BRANCH   1   4
ATOM      4  C   UNL     1       5.807   5.355  18.270  0.00  0.00    +0.000 A 
ATOM      5  N   UNL     1       6.348   5.425  19.508  0.00  0.00    +0.000 NA
ATOM      6  N   UNL     1       7.613   5.016  19.326  0.00  0.00    +0.000 N 
ATOM      7  C   UNL     1       7.897   4.670  18.039  0.00  0.00    +0.000 A 
ATOM      8  C   UNL     1       6.746   4.881  17.299  0.00  0.00    +0.000 A 
ATOM      9  H   UNL     1       8.235   4.988  20.129  0.00  0.00    +0.000 HD
BRANCH   8  10
ATOM     10  C   UNL     1       6.668   4.626  15.861  0.00  0.00    +0.000 A 
ATOM     11  C   UNL     1       7.501   5.307  14.958  0.00  0.00    +0.000 A 
ATOM     12  C   UNL     1       7.417   5.069  13.579  0.00  0.00    +0.000 A 
ATOM     13  C   UNL     1       6.515   4.133  13.083  0.00  0.00    +0.000 A 
ATOM     14  C   UNL     1       5.683   3.451  13.961  0.00  0.00    +0.000 A 
ATOM     15  C   UNL     1       5.747   3.714  15.332  0.00  0.00    +0.000 A 
ENDBRANCH   8  10
ENDBRANCH   1   4
BRANCH   1  16
ATOM     16  C   UNL     1       3.342   4.201  17.599  0.00  0.00    +0.000 C 
BRANCH  16  21
ATOM     17  N   UNL     1       1.646   2.426  22.124  0.00  0.00    +0.000 N 
ATOM     18  C   UNL     1       1.812   3.003  20.920  0.00  0.00    +0.000 A 
ATOM     19  N   UNL     1       0.875   3.637  20.254  0.00  0.00    +0.000 NA
ATOM     20  N   UNL     1       1.319   4.133  19.045  0.00  0.00    +0.000 NA
ATOM     21  C   UNL     1       2.581   3.830  18.820  0.00  0.00    +0.000 A 
ATOM     22  S   UNL     1       3.324   2.961  20.106  0.00  0.00    +0.000 S 
ATOM     23  H   UNL     1       0.685   2.265  22.407  0.00  0.00    +0.000 HD
ATOM     24  H   UNL     1       2.285   1.686  22.389  0.00  0.00    +0.000 HD
ENDBRANCH  16  21
ENDBRANCH   1  16
TORSDOF 4
ENDMDL
MODEL 5
REMARK VINA RESULT:      -7.2      3.317      6.483
REMARK  Name = 
REMARK  4 active torsions:
REMARK  status: ('A' for Active; 'I' for Inactive)
REMARK    1  A    between atoms: C_5  and  C_6
REMARK    2  A    between atoms: C_6  and  S_7
REMARK    3  A    between atoms: S_7  and  C_10
REMARK    4  A    between atoms: C_14  and  C_15
REMARK                            x       y       z     vdW  Elec       q    Type
REMARK                         _______ _______ _______ _____ _____    ______ ____
ROOT
ATOM      1  S   UNL     1       4.175   5.671  18.062  0.00  0.00    +0.000 S 
ATOM      2  O   UNL     1       4.173   6.507  16.878  0.00  0.00    +0.000 OA
ATOM      3  O   UNL     1       3.710   6.136  19.357  0.00  0.00    +0.000 OA
ENDROOT
BRANCH   1   4
ATOM      4  C   UNL     1       5.869   5.319  18.318  0.00  0.00    +0.000 A 
ATOM      5  N   UNL     1       6.439   5.396  19.542  0.00  0.00    +0.000 NA
ATOM      6  N   UNL     1       7.709   5.016  19.326  0.00  0.00    +0.000 N 
ATOM      7  C   UNL     1       7.967   4.683  18.030  0.00  0.00    +0.000 A 
ATOM      8  C   UNL     1       6.793   4.869  17.321  0.00  0.00    +0.000 A 
ATOM      9  H   UNL     1       8.352   5.000  20.112  0.00  0.00    +0.000 HD
BRANCH   8  10
ATOM     10  C   UNL     1       6.683   4.619  15.884  0.00  0.00    +0.000 A 
ATOM     11  C   UNL     1       5.744   3.706  15.378  0.00  0.00    +0.000 A 
ATOM     12  C   UNL     1       5.647   3.460  14.001  0.00  0.00    +0.000 A 
ATOM     13  C   UNL     1       6.472   4.138  13.108  0.00  0.00    +0.000 A 
ATOM     14  C   UNL     1       7.407   5.043  13.592  0.00  0.00    +0.000 A 
ATOM     15  C   UNL     1       7.523   5.262  14.967  0.00  0.00    +0.000 A 
ENDBRANCH   8  10
ENDBRANCH   1   4
BRANCH   1  16
ATOM     16  C   UNL     1       3.413   4.109  17.712  0.00  0.00    +0.000 C 
BRANCH  16  21
ATOM     17  N   UNL     1       1.532   2.420  22.197  0.00  0.00    +0.000 N 
ATOM     18  C   UNL     1       1.752   2.984  20.995  0.00  0.00    +0.000 A 
ATOM     19  N   UNL     1       0.856   3.649  20.302  0.00  0.00    +0.000 NA
ATOM     20  N   UNL     1       1.351   4.122  19.103  0.00  0.00    +0.000 NA
ATOM     21  C   UNL     1       2.607   3.773  18.913  0.00  0.00    +0.000 A 
ATOM     22  S   UNL     1       3.283   2.884  20.222  0.00  0.00    +0.000 S 
ATOM     23  H   UNL     1       0.559   2.295  22.454  0.00  0.00    +0.000 HD
ATOM     24  H   UNL     1       2.137   1.658  22.481  0.00  0.00    +0.000 HD
ENDBRANCH  16  21
ENDBRANCH   1  16
TORSDOF 4
ENDMDL
MODEL 6
REMARK VINA RESULT:      -7.2      1.621      2.153
REMARK  Name = 
REMARK  4 active torsions:
REMARK  status: ('A' for Active; 'I' for Inactive)
REMARK    1  A    between atoms: C_5  and  C_6
REMARK    2  A    between atoms: C_6  and  S_7
REMARK    3  A    between atoms: S_7  and  C_10
REMARK    4  A    between atoms: C_14  and  C_15
REMARK                            x       y       z     vdW  Elec       q    Type
REMARK                         _______ _______ _______ _____ _____    ______ ____
ROOT
ATOM      1  S   UNL     1       4.583   3.781  19.155  0.00  0.00    +0.000 S 
ATOM      2  O   UNL     1       5.295   2.632  19.679  0.00  0.00    +0.000 OA
ATOM      3  O   UNL     1       5.003   5.149  19.406  0.00  0.00    +0.000 OA
ENDROOT
BRANCH   1   4
ATOM      4  C   UNL     1       3.009   3.672  19.908  0.00  0.00    +0.000 A 
ATOM      5  N   UNL     1       2.582   2.540  20.515  0.00  0.00    +0.000 NA
ATOM      6  N   UNL     1       1.372   2.872  20.992  0.00  0.00    +0.000 N 
ATOM      7  C   UNL     1       1.017   4.163  20.734  0.00  0.00    +0.000 A 
ATOM      8  C   UNL     1       2.055   4.734  20.018  0.00  0.00    +0.000 A 
ATOM      9  H   UNL     1       0.837   2.168  21.493  0.00  0.00    +0.000 HD
BRANCH   8  10
ATOM     10  C   UNL     1       2.031   6.120  19.552  0.00  0.00    +0.000 A 
ATOM     11  C   UNL     1       1.722   7.173  20.428  0.00  0.00    +0.000 A 
ATOM     12  C   UNL     1       1.690   8.500  19.978  0.00  0.00    +0.000 A 
ATOM     13  C   UNL     1       1.987   8.797  18.651  0.00  0.00    +0.000 A 
ATOM     14  C   UNL     1       2.294   7.768  17.771  0.00  0.00    +0.000 A 
ATOM     15  C   UNL     1       2.293   6.443  18.216  0.00  0.00    +0.000 A 
ENDBRANCH   8  10
ENDBRANCH   1   4
BRANCH   1  16
ATOM     16  C   UNL     1       4.295   3.584  17.418  0.00  0.00    +0.000 C 
BRANCH  16  21
ATOM     17  N   UNL     1       7.836   5.457  14.184  0.00  0.00    +0.000 N 
ATOM     18  C   UNL     1       7.130   4.992  15.231  0.00  0.00    +0.000 A 
ATOM     19  N   UNL     1       7.610   4.813  16.441  0.00  0.00    +0.000 NA
ATOM     20  N   UNL     1       6.667   4.325  17.323  0.00  0.00    +0.000 NA
ATOM     21  C   UNL     1       5.503   4.123  16.742  0.00  0.00    +0.000 A 
ATOM     22  S   UNL     1       5.472   4.570  15.081  0.00  0.00    +0.000 S 
ATOM     23  H   UNL     1       8.844   5.429  14.284  0.00  0.00    +0.000 HD
ATOM     24  H   UNL     1       7.505   5.235  13.253  0.00  0.00    +0.000 HD
ENDBRANCH  16  21
ENDBRANCH   1  16
TORSDOF 4
ENDMDL
MODEL 7
REMARK VINA RESULT:      -7.2      1.005      1.150
REMARK  Name = 
REMARK  4 active torsions:
REMARK  status: ('A' for Active; 'I' for Inactive)
REMARK    1  A    between atoms: C_5  and  C_6
REMARK    2  A    between atoms: C_6  and  S_7
REMARK    3  A    between atoms: S_7  and  C_10
REMARK    4  A    between atoms: C_14  and  C_15
REMARK                            x       y       z     vdW  Elec       q    Type
REMARK                         _______ _______ _______ _____ _____    ______ ____
ROOT
ATOM      1  S   UNL     1       5.456   5.492  18.237  0.00  0.00    +0.000 S 
ATOM      2  O   UNL     1       5.542   5.669  19.673  0.00  0.00    +0.000 OA
ATOM      3  O   UNL     1       5.454   6.605  17.304  0.00  0.00    +0.000 OA
ENDROOT
BRANCH   1   4
ATOM      4  C   UNL     1       3.896   4.737  18.005  0.00  0.00    +0.000 A 
ATOM      5  N   UNL     1       3.776   3.453  17.598  0.00  0.00    +0.000 NA
ATOM      6  N   UNL     1       2.450   3.246  17.585  0.00  0.00    +0.000 N 
ATOM      7  C   UNL     1       1.723   4.328  17.983  0.00  0.00    +0.000 A 
ATOM      8  C   UNL     1       2.624   5.340  18.266  0.00  0.00    +0.000 A 
ATOM      9  H   UNL     1       2.102   2.335  17.299  0.00  0.00    +0.000 HD
BRANCH   8  10
ATOM     10  C   UNL     1       2.212   6.668  18.719  0.00  0.00    +0.000 A 
ATOM     11  C   UNL     1       2.092   7.737  17.816  0.00  0.00    +0.000 A 
ATOM     12  C   UNL     1       1.706   9.012  18.254  0.00  0.00    +0.000 A 
ATOM     13  C   UNL     1       1.415   9.233  19.597  0.00  0.00    +0.000 A 
ATOM     14  C   UNL     1       1.529   8.188  20.504  0.00  0.00    +0.000 A 
ATOM     15  C   UNL     1       1.945   6.926  20.069  0.00  0.00    +0.000 A 
ENDBRANCH   8  10
ENDBRANCH   1   4
BRANCH   1  16
ATOM     16  C   UNL     1       6.647   4.297  17.694  0.00  0.00    +0.000 C 
BRANCH  16  21
ATOM     17  N   UNL     1       6.675   4.282  12.546  0.00  0.00    +0.000 N 
ATOM     18  C   UNL     1       6.842   4.528  13.859  0.00  0.00    +0.000 A 
ATOM     19  N   UNL     1       7.591   5.486  14.355  0.00  0.00    +0.000 NA
ATOM     20  N   UNL     1       7.580   5.513  15.735  0.00  0.00    +0.000 NA
ATOM     21  C   UNL     1       6.841   4.548  16.243  0.00  0.00    +0.000 A 
ATOM     22  S   UNL     1       6.063   3.575  15.057  0.00  0.00    +0.000 S 
ATOM     23  H   UNL     1       7.360   4.704  11.928  0.00  0.00    +0.000 HD
ATOM     24  H   UNL     1       6.386   3.351  12.271  0.00  0.00    +0.000 HD
ENDBRANCH  16  21
ENDBRANCH   1  16
TORSDOF 4
ENDMDL
MODEL 8
REMARK VINA RESULT:      -7.2      1.354      1.463
REMARK  Name = 
REMARK  4 active torsions:
REMARK  status: ('A' for Active; 'I' for Inactive)
REMARK    1  A    between atoms: C_5  and  C_6
REMARK    2  A    between atoms: C_6  and  S_7
REMARK    3  A    between atoms: S_7  and  C_10
REMARK    4  A    between atoms: C_14  and  C_15
REMARK                            x       y       z     vdW  Elec       q    Type
REMARK                         _______ _______ _______ _____ _____    ______ ____
ROOT
ATOM      1  S   UNL     1       6.489   5.437  18.724  0.00  0.00    +0.000 S 
ATOM      2  O   UNL     1       7.071   5.688  20.027  0.00  0.00    +0.000 OA
ATOM      3  O   UNL     1       5.955   6.493  17.882  0.00  0.00    +0.000 OA
ENDROOT
BRANCH   1   4
ATOM      4  C   UNL     1       5.105   4.428  19.076  0.00  0.00    +0.000 A 
ATOM      5  N   UNL     1       5.228   3.104  19.321  0.00  0.00    +0.000 NA
ATOM      6  N   UNL     1       3.972   2.710  19.583  0.00  0.00    +0.000 N 
ATOM      7  C   UNL     1       3.060   3.723  19.536  0.00  0.00    +0.000 A 
ATOM      8  C   UNL     1       3.750   4.875  19.200  0.00  0.00    +0.000 A 
ATOM      9  H   UNL     1       3.803   1.731  19.795  0.00  0.00    +0.000 HD
BRANCH   8  10
ATOM     10  C   UNL     1       3.099   6.176  19.046  0.00  0.00    +0.000 A 
ATOM     11  C   UNL     1       3.150   6.871  17.828  0.00  0.00    +0.000 A 
ATOM     12  C   UNL     1       2.534   8.123  17.685  0.00  0.00    +0.000 A 
ATOM     13  C   UNL     1       1.841   8.688  18.751  0.00  0.00    +0.000 A 
ATOM     14  C   UNL     1       1.782   8.014  19.964  0.00  0.00    +0.000 A 
ATOM     15  C   UNL     1       2.424   6.782  20.112  0.00  0.00    +0.000 A 
ENDBRANCH   8  10
ENDBRANCH   1   4
BRANCH   1  16
ATOM     16  C   UNL     1       7.576   4.430  17.751  0.00  0.00    +0.000 C 
BRANCH  16  21
ATOM     17  N   UNL     1       5.253   4.060  13.171  0.00  0.00    +0.000 N 
ATOM     18  C   UNL     1       6.015   4.376  14.235  0.00  0.00    +0.000 A 
ATOM     19  N   UNL     1       6.966   5.282  14.236  0.00  0.00    +0.000 NA
ATOM     20  N   UNL     1       7.587   5.404  15.462  0.00  0.00    +0.000 NA
ATOM     21  C   UNL     1       7.102   4.559  16.349  0.00  0.00    +0.000 A 
ATOM     22  S   UNL     1       5.810   3.594  15.751  0.00  0.00    +0.000 S 
ATOM     23  H   UNL     1       5.606   4.365  12.271  0.00  0.00    +0.000 HD
ATOM     24  H   UNL     1       4.813   3.148  13.157  0.00  0.00    +0.000 HD
ENDBRANCH  16  21
ENDBRANCH   1  16
TORSDOF 4
ENDMDL
MODEL 9
REMARK VINA RESULT:      -7.2      1.001      1.551
REMARK  Name = 
REMARK  4 active torsions:
REMARK  status: ('A' for Active; 'I' for Inactive)
REMARK    1  A    between atoms: C_5  and  C_6
REMARK    2  A    between atoms: C_6  and  S_7
REMARK    3  A    between atoms: S_7  and  C_10
REMARK    4  A    between atoms: C_14  and  C_15
REMARK                            x       y       z     vdW  Elec       q    Type
REMARK                         _______ _______ _______ _____ _____    ______ ____
ROOT
ATOM      1  S   UNL     1       5.589   5.540  18.180  0.00  0.00    +0.000 S 
ATOM      2  O   UNL     1       5.710   5.740  19.611  0.00  0.00    +0.000 OA
ATOM      3  O   UNL     1       5.532   6.638  17.232  0.00  0.00    +0.000 OA
ENDROOT
BRANCH   1   4
ATOM      4  C   UNL     1       4.043   4.741  18.003  0.00  0.00    +0.000 A 
ATOM      5  N   UNL     1       3.947   3.442  17.638  0.00  0.00    +0.000 NA
ATOM      6  N   UNL     1       2.626   3.203  17.659  0.00  0.00    +0.000 N 
ATOM      7  C   UNL     1       1.881   4.280  18.038  0.00  0.00    +0.000 A 
ATOM      8  C   UNL     1       2.762   5.321  18.270  0.00  0.00    +0.000 A 
ATOM      9  H   UNL     1       2.296   2.275  17.408  0.00  0.00    +0.000 HD
BRANCH   8  10
ATOM     10  C   UNL     1       2.327   6.653  18.690  0.00  0.00    +0.000 A 
ATOM     11  C   UNL     1       1.983   6.914  20.026  0.00  0.00    +0.000 A 
ATOM     12  C   UNL     1       1.556   8.189  20.425  0.00  0.00    +0.000 A 
ATOM     13  C   UNL     1       1.486   9.226  19.499  0.00  0.00    +0.000 A 
ATOM     14  C   UNL     1       1.822   8.985  18.174  0.00  0.00    +0.000 A 
ATOM     15  C   UNL     1       2.216   7.705  17.774  0.00  0.00    +0.000 A 
ENDBRANCH   8  10
ENDBRANCH   1   4
BRANCH   1  16
ATOM     16  C   UNL     1       6.796   4.368  17.621  0.00  0.00    +0.000 C 
BRANCH  16  21
ATOM     17  N   UNL     1       6.598   4.196  12.479  0.00  0.00    +0.000 N 
ATOM     18  C   UNL     1       6.815   4.487  13.776  0.00  0.00    +0.000 A 
ATOM     19  N   UNL     1       7.556   5.480  14.209  0.00  0.00    +0.000 NA
ATOM     20  N   UNL     1       7.606   5.549  15.587  0.00  0.00    +0.000 NA
ATOM     21  C   UNL     1       6.919   4.580  16.156  0.00  0.00    +0.000 A 
ATOM     22  S   UNL     1       6.118   3.549  15.035  0.00  0.00    +0.000 S 
ATOM     23  H   UNL     1       7.242   4.619  11.820  0.00  0.00    +0.000 HD
ATOM     24  H   UNL     1       6.325   3.249  12.245  0.00  0.00    +0.000 HD
ENDBRANCH  16  21
ENDBRANCH   1  16
TORSDOF 4
ENDMDL
