MODEL 1
REMARK VINA RESULT:      -9.3      0.000      0.000
REMARK  Name = 
REMARK  10 active torsions:
REMARK  status: ('A' for Active; 'I' for Inactive)
REMARK    1  A    between atoms: C_2  and  C_3
REMARK    2  A    between atoms: C_3  and  C_4
REMARK    3  A    between atoms: C_7  and  O_8
REMARK    4  A    between atoms: C_9  and  C_10
REMARK    5  A    between atoms: C_12  and  C_13
REMARK    6  A    between atoms: C_13  and  C_14
REMARK    7  A    between atoms: C_17  and  C_18
REMARK    8  A    between atoms: C_18  and  C_19
REMARK    9  A    between atoms: C_18  and  N_26
REMARK   10  A    between atoms: C_32  and  O_33
REMARK                            x       y       z     vdW  Elec       q    Type
REMARK                         _______ _______ _______ _____ _____    ______ ____
ROOT
ATOM      1  C   UNL     1       6.229   5.267  15.533  0.00  0.00    +0.000 A 
ATOM      2  C   UNL     1       7.214   5.971  16.253  0.00  0.00    +0.000 A 
ATOM      3  C   UNL     1       6.970   6.529  17.517  0.00  0.00    +0.000 A 
ATOM      4  C   UNL     1       5.673   6.470  18.038  0.00  0.00    +0.000 A 
ATOM      5  C   UNL     1       4.644   5.787  17.363  0.00  0.00    +0.000 A 
ATOM      6  C   UNL     1       4.958   5.145  16.147  0.00  0.00    +0.000 A 
ENDROOT
BRANCH   1  11
ATOM      7  C   UNL     1       5.768   3.398  12.232  0.00  0.00    +0.000 A 
ATOM      8  C   UNL     1       6.901   3.777  11.511  0.00  0.00    +0.000 A 
ATOM      9  C   UNL     1       7.840   4.627  12.091  0.00  0.00    +0.000 A 
ATOM     10  C   UNL     1       7.658   5.099  13.399  0.00  0.00    +0.000 A 
ATOM     11  C   UNL     1       6.519   4.759  14.157  0.00  0.00    +0.000 A 
ATOM     12  C   UNL     1       5.580   3.919  13.522  0.00  0.00    +0.000 A 
BRANCH  10  13
ATOM     13  O   UNL     1       8.628   5.912  13.930  0.00  0.00    +0.000 OA
ATOM     14  H   UNL     1       8.325   6.240  14.792  0.00  0.00    +0.000 HD
ENDBRANCH  10  13
BRANCH   7  15
ATOM     15  C   UNL     1       4.744   2.459  11.647  0.00  0.00    +0.000 C 
BRANCH  15  17
ATOM     16  C   UNL     1       3.373   3.803  10.029  0.00  0.00    +0.000 C 
ATOM     17  C   UNL     1       3.500   3.177  11.210  0.00  0.00    +0.000 C 
ENDBRANCH  15  17
ENDBRANCH   7  15
ENDBRANCH   1  11
BRANCH   6  18
ATOM     18  O   UNL     1       3.989   4.381  15.534  0.00  0.00    +0.000 OA
ATOM     19  H   UNL     1       4.028   4.564  14.571  0.00  0.00    +0.000 HD
ENDBRANCH   6  18
BRANCH   3  20
ATOM     20  C   UNL     1       8.090   7.194  18.283  0.00  0.00    +0.000 C 
BRANCH  20  21
ATOM     21  C   UNL     1       8.341   8.617  17.875  0.00  0.00    +0.000 C 
ATOM     22  C   UNL     1       8.723   9.586  18.719  0.00  0.00    +0.000 C 
ENDBRANCH  20  21
ENDBRANCH   3  20
BRANCH   5  23
ATOM     23  C   UNL     1       3.212   5.896  17.911  0.00  0.00    +0.000 C 
BRANCH  23  24
ATOM     24  C   UNL     1       2.795   4.561  18.539  0.00  0.00    +0.000 A 
ATOM     25  C   UNL     1       3.539   3.935  19.554  0.00  0.00    +0.000 A 
ATOM     26  C   UNL     1       3.099   2.737  20.124  0.00  0.00    +0.000 A 
ATOM     27  C   UNL     1       1.911   2.147  19.693  0.00  0.00    +0.000 A 
ATOM     28  C   UNL     1       1.162   2.754  18.688  0.00  0.00    +0.000 A 
ATOM     29  C   UNL     1       1.606   3.946  18.122  0.00  0.00    +0.000 A 
ATOM     30  F   UNL     1       0.848   4.520  17.176  0.00  0.00    +0.000 F 
ENDBRANCH  23  24
BRANCH  23  31
ATOM     31  N   UNL     1       2.981   7.105  18.811  0.00  0.00    +0.000 NA
ATOM     32  C   UNL     1       2.307   8.164  18.011  0.00  0.00    +0.000 C 
ATOM     33  C   UNL     1       1.665   9.295  18.821  0.00  0.00    +0.000 C 
ATOM     34  C   UNL     1       0.726   8.745  19.880  0.00  0.00    +0.000 C 
ATOM     35  C   UNL     1       1.515   7.825  20.788  0.00  0.00    +0.000 C 
ATOM     36  C   UNL     1       2.167   6.700  19.986  0.00  0.00    +0.000 C 
ENDBRANCH  23  31
ENDBRANCH   5  23
TORSDOF 10
ENDMDL
MODEL 2
REMARK VINA RESULT:      -9.1      1.094      3.199
REMARK  Name = 
REMARK  10 active torsions:
REMARK  status: ('A' for Active; 'I' for Inactive)
REMARK    1  A    between atoms: C_2  and  C_3
REMARK    2  A    between atoms: C_3  and  C_4
REMARK    3  A    between atoms: C_7  and  O_8
REMARK    4  A    between atoms: C_9  and  C_10
REMARK    5  A    between atoms: C_12  and  C_13
REMARK    6  A    between atoms: C_13  and  C_14
REMARK    7  A    between atoms: C_17  and  C_18
REMARK    8  A    between atoms: C_18  and  C_19
REMARK    9  A    between atoms: C_18  and  N_26
REMARK   10  A    between atoms: C_32  and  O_33
REMARK                            x       y       z     vdW  Elec       q    Type
REMARK                         _______ _______ _______ _____ _____    ______ ____
ROOT
ATOM      1  C   UNL     1       6.502   5.296  15.785  0.00  0.00    +0.000 A 
ATOM      2  C   UNL     1       7.418   6.208  16.346  0.00  0.00    +0.000 A 
ATOM      3  C   UNL     1       7.287   6.702  17.652  0.00  0.00    +0.000 A 
ATOM      4  C   UNL     1       6.150   6.354  18.391  0.00  0.00    +0.000 A 
ATOM      5  C   UNL     1       5.195   5.454  17.882  0.00  0.00    +0.000 A 
ATOM      6  C   UNL     1       5.420   4.894  16.607  0.00  0.00    +0.000 A 
ENDROOT
BRANCH   1  11
ATOM      7  C   UNL     1       5.679   3.627  12.447  0.00  0.00    +0.000 A 
ATOM      8  C   UNL     1       6.748   4.022  11.642  0.00  0.00    +0.000 A 
ATOM      9  C   UNL     1       7.761   4.816  12.174  0.00  0.00    +0.000 A 
ATOM     10  C   UNL     1       7.716   5.218  13.517  0.00  0.00    +0.000 A 
ATOM     11  C   UNL     1       6.645   4.861  14.362  0.00  0.00    +0.000 A 
ATOM     12  C   UNL     1       5.628   4.079  13.776  0.00  0.00    +0.000 A 
BRANCH  10  13
ATOM     13  O   UNL     1       8.754   5.978  13.995  0.00  0.00    +0.000 OA
ATOM     14  H   UNL     1       8.721   5.979  14.965  0.00  0.00    +0.000 HD
ENDBRANCH  10  13
BRANCH   7  15
ATOM     15  C   UNL     1       4.579   2.744  11.914  0.00  0.00    +0.000 C 
BRANCH  15  17
ATOM     16  C   UNL     1       3.366   3.700   9.933  0.00  0.00    +0.000 C 
ATOM     17  C   UNL     1       3.483   3.537  11.261  0.00  0.00    +0.000 C 
ENDBRANCH  15  17
ENDBRANCH   7  15
ENDBRANCH   1  11
BRANCH   6  18
ATOM     18  O   UNL     1       4.552   3.928  16.147  0.00  0.00    +0.000 OA
ATOM     19  H   UNL     1       3.655   4.324  16.113  0.00  0.00    +0.000 HD
ENDBRANCH   6  18
BRANCH   3  20
ATOM     20  C   UNL     1       8.349   7.606  18.233  0.00  0.00    +0.000 C 
BRANCH  20  21
ATOM     21  C   UNL     1       8.146   9.060  17.917  0.00  0.00    +0.000 C 
ATOM     22  C   UNL     1       8.853  10.056  18.469  0.00  0.00    +0.000 C 
ENDBRANCH  20  21
ENDBRANCH   3  20
BRANCH   5  23
ATOM     23  C   UNL     1       3.897   5.240  18.677  0.00  0.00    +0.000 C 
BRANCH  23  24
ATOM     24  C   UNL     1       3.100   6.550  18.728  0.00  0.00    +0.000 A 
ATOM     25  C   UNL     1       3.074   7.465  17.662  0.00  0.00    +0.000 A 
ATOM     26  C   UNL     1       2.303   8.627  17.739  0.00  0.00    +0.000 A 
ATOM     27  C   UNL     1       1.545   8.895  18.878  0.00  0.00    +0.000 A 
ATOM     28  C   UNL     1       1.559   7.999  19.945  0.00  0.00    +0.000 A 
ATOM     29  C   UNL     1       2.331   6.844  19.864  0.00  0.00    +0.000 A 
ATOM     30  F   UNL     1       2.302   5.987  20.895  0.00  0.00    +0.000 F 
ENDBRANCH  23  24
BRANCH  23  31
ATOM     31  N   UNL     1       3.080   4.036  18.223  0.00  0.00    +0.000 NA
ATOM     32  C   UNL     1       3.235   2.955  19.236  0.00  0.00    +0.000 C 
ATOM     33  C   UNL     1       2.213   1.818  19.151  0.00  0.00    +0.000 C 
ATOM     34  C   UNL     1       0.793   2.357  19.157  0.00  0.00    +0.000 C 
ATOM     35  C   UNL     1       0.635   3.301  17.983  0.00  0.00    +0.000 C 
ATOM     36  C   UNL     1       1.659   4.433  18.056  0.00  0.00    +0.000 C 
ENDBRANCH  23  31
ENDBRANCH   5  23
TORSDOF 10
ENDMDL
MODEL 3
REMARK VINA RESULT:      -8.8      0.828      1.169
REMARK  Name = 
REMARK  10 active torsions:
REMARK  status: ('A' for Active; 'I' for Inactive)
REMARK    1  A    between atoms: C_2  and  C_3
REMARK    2  A    between atoms: C_3  and  C_4
REMARK    3  A    between atoms: C_7  and  O_8
REMARK    4  A    between atoms: C_9  and  C_10
REMARK    5  A    between atoms: C_12  and  C_13
REMARK    6  A    between atoms: C_13  and  C_14
REMARK    7  A    between atoms: C_17  and  C_18
REMARK    8  A    between atoms: C_18  and  C_19
REMARK    9  A    between atoms: C_18  and  N_26
REMARK   10  A    between atoms: C_32  and  O_33
REMARK                            x       y       z     vdW  Elec       q    Type
REMARK                         _______ _______ _______ _____ _____    ______ ____
ROOT
ATOM      1  C   UNL     1       6.225   5.353  15.435  0.00  0.00    +0.000 A 
ATOM      2  C   UNL     1       7.199   6.109  16.116  0.00  0.00    +0.000 A 
ATOM      3  C   UNL     1       6.951   6.718  17.356  0.00  0.00    +0.000 A 
ATOM      4  C   UNL     1       5.659   6.655  17.889  0.00  0.00    +0.000 A 
ATOM      5  C   UNL     1       4.641   5.921  17.251  0.00  0.00    +0.000 A 
ATOM      6  C   UNL     1       4.960   5.233  16.063  0.00  0.00    +0.000 A 
ENDROOT
BRANCH   1  11
ATOM      7  C   UNL     1       5.754   3.380  12.197  0.00  0.00    +0.000 A 
ATOM      8  C   UNL     1       6.902   3.708  11.476  0.00  0.00    +0.000 A 
ATOM      9  C   UNL     1       7.855   4.556  12.035  0.00  0.00    +0.000 A 
ATOM     10  C   UNL     1       7.670   5.078  13.324  0.00  0.00    +0.000 A 
ATOM     11  C   UNL     1       6.516   4.791  14.081  0.00  0.00    +0.000 A 
ATOM     12  C   UNL     1       5.565   3.950  13.466  0.00  0.00    +0.000 A 
BRANCH  10  13
ATOM     13  O   UNL     1       8.653   5.887  13.836  0.00  0.00    +0.000 OA
ATOM     14  H   UNL     1       9.389   5.925  13.205  0.00  0.00    +0.000 HD
ENDBRANCH  10  13
BRANCH   7  15
ATOM     15  C   UNL     1       4.715   2.443  11.635  0.00  0.00    +0.000 C 
BRANCH  15  17
ATOM     16  C   UNL     1       3.459   3.909  10.028  0.00  0.00    +0.000 C 
ATOM     17  C   UNL     1       3.495   3.174  11.151  0.00  0.00    +0.000 C 
ENDBRANCH  15  17
ENDBRANCH   7  15
ENDBRANCH   1  11
BRANCH   6  18
ATOM     18  O   UNL     1       4.004   4.422  15.492  0.00  0.00    +0.000 OA
ATOM     19  H   UNL     1       3.709   3.781  16.174  0.00  0.00    +0.000 HD
ENDBRANCH   6  18
BRANCH   3  20
ATOM     20  C   UNL     1       8.062   7.440  18.083  0.00  0.00    +0.000 C 
BRANCH  20  21
ATOM     21  C   UNL     1       7.989   8.935  17.967  0.00  0.00    +0.000 C 
ATOM     22  C   UNL     1       8.929   9.772  18.430  0.00  0.00    +0.000 C 
ENDBRANCH  20  21
ENDBRANCH   3  20
BRANCH   5  23
ATOM     23  C   UNL     1       3.210   6.025  17.804  0.00  0.00    +0.000 C 
BRANCH  23  24
ATOM     24  C   UNL     1       2.799   4.687  18.431  0.00  0.00    +0.000 A 
ATOM     25  C   UNL     1       1.651   3.982  18.029  0.00  0.00    +0.000 A 
ATOM     26  C   UNL     1       1.337   2.747  18.601  0.00  0.00    +0.000 A 
ATOM     27  C   UNL     1       2.161   2.195  19.580  0.00  0.00    +0.000 A 
ATOM     28  C   UNL     1       3.303   2.880  19.991  0.00  0.00    +0.000 A 
ATOM     29  C   UNL     1       3.610   4.112  19.419  0.00  0.00    +0.000 A 
ATOM     30  F   UNL     1       4.730   4.733  19.815  0.00  0.00    +0.000 F 
ENDBRANCH  23  24
BRANCH  23  31
ATOM     31  N   UNL     1       2.978   7.231  18.709  0.00  0.00    +0.000 NA
ATOM     32  C   UNL     1       2.307   8.293  17.911  0.00  0.00    +0.000 C 
ATOM     33  C   UNL     1       1.665   9.422  18.723  0.00  0.00    +0.000 C 
ATOM     34  C   UNL     1       0.723   8.870  19.779  0.00  0.00    +0.000 C 
ATOM     35  C   UNL     1       1.509   7.946  20.685  0.00  0.00    +0.000 C 
ATOM     36  C   UNL     1       2.161   6.823  19.880  0.00  0.00    +0.000 C 
ENDBRANCH  23  31
ENDBRANCH   5  23
TORSDOF 10
ENDMDL
MODEL 4
REMARK VINA RESULT:      -8.6      0.673      1.060
REMARK  Name = 
REMARK  10 active torsions:
REMARK  status: ('A' for Active; 'I' for Inactive)
REMARK    1  A    between atoms: C_2  and  C_3
REMARK    2  A    between atoms: C_3  and  C_4
REMARK    3  A    between atoms: C_7  and  O_8
REMARK    4  A    between atoms: C_9  and  C_10
REMARK    5  A    between atoms: C_12  and  C_13
REMARK    6  A    between atoms: C_13  and  C_14
REMARK    7  A    between atoms: C_17  and  C_18
REMARK    8  A    between atoms: C_18  and  C_19
REMARK    9  A    between atoms: C_18  and  N_26
REMARK   10  A    between atoms: C_32  and  O_33
REMARK                            x       y       z     vdW  Elec       q    Type
REMARK                         _______ _______ _______ _____ _____    ______ ____
ROOT
ATOM      1  C   UNL     1       6.366   5.138  15.544  0.00  0.00    +0.000 A 
ATOM      2  C   UNL     1       7.367   5.741  16.330  0.00  0.00    +0.000 A 
ATOM      3  C   UNL     1       7.114   6.254  17.611  0.00  0.00    +0.000 A 
ATOM      4  C   UNL     1       5.798   6.257  18.085  0.00  0.00    +0.000 A 
ATOM      5  C   UNL     1       4.752   5.675  17.343  0.00  0.00    +0.000 A 
ATOM      6  C   UNL     1       5.067   5.072  16.109  0.00  0.00    +0.000 A 
ENDROOT
BRANCH   1  11
ATOM      7  C   UNL     1       6.028   3.250  12.239  0.00  0.00    +0.000 A 
ATOM      8  C   UNL     1       7.087   3.764  11.490  0.00  0.00    +0.000 A 
ATOM      9  C   UNL     1       7.937   4.714  12.050  0.00  0.00    +0.000 A 
ATOM     10  C   UNL     1       7.739   5.153  13.368  0.00  0.00    +0.000 A 
ATOM     11  C   UNL     1       6.671   4.677  14.155  0.00  0.00    +0.000 A 
ATOM     12  C   UNL     1       5.819   3.737  13.539  0.00  0.00    +0.000 A 
BRANCH  10  13
ATOM     13  O   UNL     1       8.623   6.070  13.879  0.00  0.00    +0.000 OA
ATOM     14  H   UNL     1       9.106   6.483  13.145  0.00  0.00    +0.000 HD
ENDBRANCH  10  13
BRANCH   7  15
ATOM     15  C   UNL     1       5.104   2.200  11.674  0.00  0.00    +0.000 C 
BRANCH  15  17
ATOM     16  C   UNL     1       6.232  -0.027  11.408  0.00  0.00    +0.000 C 
ATOM     17  C   UNL     1       5.846   1.152  10.895  0.00  0.00    +0.000 C 
ENDBRANCH  15  17
ENDBRANCH   7  15
ENDBRANCH   1  11
BRANCH   6  18
ATOM     18  O   UNL     1       4.075   4.402  15.428  0.00  0.00    +0.000 OA
ATOM     19  H   UNL     1       4.367   4.300  14.496  0.00  0.00    +0.000 HD
ENDBRANCH   6  18
BRANCH   3  20
ATOM     20  C   UNL     1       8.246   6.809  18.445  0.00  0.00    +0.000 C 
BRANCH  20  21
ATOM     21  C   UNL     1       8.159   8.290  18.676  0.00  0.00    +0.000 C 
ATOM     22  C   UNL     1       8.284   9.210  17.710  0.00  0.00    +0.000 C 
ENDBRANCH  20  21
ENDBRANCH   3  20
BRANCH   5  23
ATOM     23  C   UNL     1       3.311   5.853  17.849  0.00  0.00    +0.000 C 
BRANCH  23  24
ATOM     24  C   UNL     1       2.843   4.567  18.540  0.00  0.00    +0.000 A 
ATOM     25  C   UNL     1       3.567   3.956  19.578  0.00  0.00    +0.000 A 
ATOM     26  C   UNL     1       3.082   2.806  20.205  0.00  0.00    +0.000 A 
ATOM     27  C   UNL     1       1.867   2.248  19.809  0.00  0.00    +0.000 A 
ATOM     28  C   UNL     1       1.136   2.840  18.782  0.00  0.00    +0.000 A 
ATOM     29  C   UNL     1       1.626   3.985  18.159  0.00  0.00    +0.000 A 
ATOM     30  F   UNL     1       0.885   4.547  17.193  0.00  0.00    +0.000 F 
ENDBRANCH  23  24
BRANCH  23  31
ATOM     31  N   UNL     1       3.093   7.116  18.674  0.00  0.00    +0.000 NA
ATOM     32  C   UNL     1       2.486   8.153  17.794  0.00  0.00    +0.000 C 
ATOM     33  C   UNL     1       1.858   9.348  18.518  0.00  0.00    +0.000 C 
ATOM     34  C   UNL     1       0.862   8.890  19.569  0.00  0.00    +0.000 C 
ATOM     35  C   UNL     1       1.585   7.994  20.554  0.00  0.00    +0.000 C 
ATOM     36  C   UNL     1       2.223   6.804  19.837  0.00  0.00    +0.000 C 
ENDBRANCH  23  31
ENDBRANCH   5  23
TORSDOF 10
ENDMDL
MODEL 5
REMARK VINA RESULT:      -8.4      1.081      3.183
REMARK  Name = 
REMARK  10 active torsions:
REMARK  status: ('A' for Active; 'I' for Inactive)
REMARK    1  A    between atoms: C_2  and  C_3
REMARK    2  A    between atoms: C_3  and  C_4
REMARK    3  A    between atoms: C_7  and  O_8
REMARK    4  A    between atoms: C_9  and  C_10
REMARK    5  A    between atoms: C_12  and  C_13
REMARK    6  A    between atoms: C_13  and  C_14
REMARK    7  A    between atoms: C_17  and  C_18
REMARK    8  A    between atoms: C_18  and  C_19
REMARK    9  A    between atoms: C_18  and  N_26
REMARK   10  A    between atoms: C_32  and  O_33
REMARK                            x       y       z     vdW  Elec       q    Type
REMARK                         _______ _______ _______ _____ _____    ______ ____
ROOT
ATOM      1  C   UNL     1       6.471   5.244  15.866  0.00  0.00    +0.000 A 
ATOM      2  C   UNL     1       7.384   6.146  16.447  0.00  0.00    +0.000 A 
ATOM      3  C   UNL     1       7.259   6.598  17.770  0.00  0.00    +0.000 A 
ATOM      4  C   UNL     1       6.133   6.217  18.507  0.00  0.00    +0.000 A 
ATOM      5  C   UNL     1       5.182   5.324  17.979  0.00  0.00    +0.000 A 
ATOM      6  C   UNL     1       5.401   4.806  16.685  0.00  0.00    +0.000 A 
ENDROOT
BRANCH   1  11
ATOM      7  C   UNL     1       5.610   3.717  12.471  0.00  0.00    +0.000 A 
ATOM      8  C   UNL     1       6.691   4.109  11.682  0.00  0.00    +0.000 A 
ATOM      9  C   UNL     1       7.725   4.855  12.243  0.00  0.00    +0.000 A 
ATOM     10  C   UNL     1       7.688   5.211  13.599  0.00  0.00    +0.000 A 
ATOM     11  C   UNL     1       6.606   4.855  14.429  0.00  0.00    +0.000 A 
ATOM     12  C   UNL     1       5.569   4.123  13.815  0.00  0.00    +0.000 A 
BRANCH  10  13
ATOM     13  O   UNL     1       8.746   5.925  14.105  0.00  0.00    +0.000 OA
ATOM     14  H   UNL     1       8.724   6.822  13.736  0.00  0.00    +0.000 HD
ENDBRANCH  10  13
BRANCH   7  15
ATOM     15  C   UNL     1       4.487   2.885  11.905  0.00  0.00    +0.000 C 
BRANCH  15  17
ATOM     16  C   UNL     1       3.251   3.452   9.794  0.00  0.00    +0.000 C 
ATOM     17  C   UNL     1       3.534   3.704  11.082  0.00  0.00    +0.000 C 
ENDBRANCH  15  17
ENDBRANCH   7  15
ENDBRANCH   1  11
BRANCH   6  18
ATOM     18  O   UNL     1       4.538   3.847  16.203  0.00  0.00    +0.000 OA
ATOM     19  H   UNL     1       4.959   3.433  15.418  0.00  0.00    +0.000 HD
ENDBRANCH   6  18
BRANCH   3  20
ATOM     20  C   UNL     1       8.318   7.495  18.369  0.00  0.00    +0.000 C 
BRANCH  20  21
ATOM     21  C   UNL     1       8.300   8.897  17.832  0.00  0.00    +0.000 C 
ATOM     22  C   UNL     1       8.745   9.966  18.507  0.00  0.00    +0.000 C 
ENDBRANCH  20  21
ENDBRANCH   3  20
BRANCH   5  23
ATOM     23  C   UNL     1       3.893   5.073  18.777  0.00  0.00    +0.000 C 
BRANCH  23  24
ATOM     24  C   UNL     1       3.094   6.377  18.894  0.00  0.00    +0.000 A 
ATOM     25  C   UNL     1       2.455   6.771  20.082  0.00  0.00    +0.000 A 
ATOM     26  C   UNL     1       1.771   7.988  20.152  0.00  0.00    +0.000 A 
ATOM     27  C   UNL     1       1.714   8.829  19.042  0.00  0.00    +0.000 A 
ATOM     28  C   UNL     1       2.341   8.453  17.856  0.00  0.00    +0.000 A 
ATOM     29  C   UNL     1       3.019   7.239  17.791  0.00  0.00    +0.000 A 
ATOM     30  F   UNL     1       3.637   6.918  16.644  0.00  0.00    +0.000 F 
ENDBRANCH  23  24
BRANCH  23  31
ATOM     31  N   UNL     1       3.074   3.886  18.282  0.00  0.00    +0.000 NA
ATOM     32  C   UNL     1       3.379   2.712  19.145  0.00  0.00    +0.000 C 
ATOM     33  C   UNL     1       2.394   1.543  19.043  0.00  0.00    +0.000 C 
ATOM     34  C   UNL     1       0.966   2.010  19.260  0.00  0.00    +0.000 C 
ATOM     35  C   UNL     1       0.645   3.067  18.223  0.00  0.00    +0.000 C 
ATOM     36  C   UNL     1       1.630   4.231  18.313  0.00  0.00    +0.000 C 
ENDBRANCH  23  31
ENDBRANCH   5  23
TORSDOF 10
ENDMDL
MODEL 6
REMARK VINA RESULT:      -8.2      3.825      7.622
REMARK  Name = 
REMARK  10 active torsions:
REMARK  status: ('A' for Active; 'I' for Inactive)
REMARK    1  A    between atoms: C_2  and  C_3
REMARK    2  A    between atoms: C_3  and  C_4
REMARK    3  A    between atoms: C_7  and  O_8
REMARK    4  A    between atoms: C_9  and  C_10
REMARK    5  A    between atoms: C_12  and  C_13
REMARK    6  A    between atoms: C_13  and  C_14
REMARK    7  A    between atoms: C_17  and  C_18
REMARK    8  A    between atoms: C_18  and  C_19
REMARK    9  A    between atoms: C_18  and  N_26
REMARK   10  A    between atoms: C_32  and  O_33
REMARK                            x       y       z     vdW  Elec       q    Type
REMARK                         _______ _______ _______ _____ _____    ______ ____
ROOT
ATOM      1  C   UNL     1       2.110   7.882  18.987  0.00  0.00    +0.000 A 
ATOM      2  C   UNL     1       1.840   7.723  20.360  0.00  0.00    +0.000 A 
ATOM      3  C   UNL     1       1.024   8.613  21.076  0.00  0.00    +0.000 A 
ATOM      4  C   UNL     1       0.542   9.754  20.426  0.00  0.00    +0.000 A 
ATOM      5  C   UNL     1       0.785   9.972  19.057  0.00  0.00    +0.000 A 
ATOM      6  C   UNL     1       1.517   8.999  18.347  0.00  0.00    +0.000 A 
ENDROOT
BRANCH   1  11
ATOM      7  C   UNL     1       5.304   6.576  17.345  0.00  0.00    +0.000 A 
ATOM      8  C   UNL     1       4.964   5.260  17.032  0.00  0.00    +0.000 A 
ATOM      9  C   UNL     1       3.690   4.782  17.329  0.00  0.00    +0.000 A 
ATOM     10  C   UNL     1       2.743   5.620  17.936  0.00  0.00    +0.000 A 
ATOM     11  C   UNL     1       3.048   6.950  18.289  0.00  0.00    +0.000 A 
ATOM     12  C   UNL     1       4.357   7.384  17.995  0.00  0.00    +0.000 A 
BRANCH  10  13
ATOM     13  O   UNL     1       1.494   5.105  18.182  0.00  0.00    +0.000 OA
ATOM     14  H   UNL     1       1.110   4.801  17.345  0.00  0.00    +0.000 HD
ENDBRANCH  10  13
BRANCH   7  15
ATOM     15  C   UNL     1       6.664   7.135  17.014  0.00  0.00    +0.000 C 
BRANCH  15  17
ATOM     16  C   UNL     1       7.724   5.879  18.912  0.00  0.00    +0.000 C 
ATOM     17  C   UNL     1       7.633   6.981  18.151  0.00  0.00    +0.000 C 
ENDBRANCH  15  17
ENDBRANCH   7  15
ENDBRANCH   1  11
BRANCH   6  18
ATOM     18  O   UNL     1       1.664   9.146  16.985  0.00  0.00    +0.000 OA
ATOM     19  H   UNL     1       1.051   8.515  16.548  0.00  0.00    +0.000 HD
ENDBRANCH   6  18
BRANCH   3  20
ATOM     20  C   UNL     1       0.696   8.342  22.527  0.00  0.00    +0.000 C 
BRANCH  20  21
ATOM     21  C   UNL     1       0.292   9.567  23.295  0.00  0.00    +0.000 C 
ATOM     22  C   UNL     1      -0.909  10.154  23.199  0.00  0.00    +0.000 C 
ENDBRANCH  20  21
ENDBRANCH   3  20
BRANCH   5  23
ATOM     23  C   UNL     1       0.364  11.319  18.447  0.00  0.00    +0.000 C 
BRANCH  23  24
ATOM     24  C   UNL     1      -1.157  11.484  18.556  0.00  0.00    +0.000 A 
ATOM     25  C   UNL     1      -1.766  12.258  19.559  0.00  0.00    +0.000 A 
ATOM     26  C   UNL     1      -3.154  12.411  19.596  0.00  0.00    +0.000 A 
ATOM     27  C   UNL     1      -3.956  11.798  18.635  0.00  0.00    +0.000 A 
ATOM     28  C   UNL     1      -3.370  11.027  17.634  0.00  0.00    +0.000 A 
ATOM     29  C   UNL     1      -1.986  10.875  17.603  0.00  0.00    +0.000 A 
ATOM     30  F   UNL     1      -1.449  10.150  16.611  0.00  0.00    +0.000 F 
ENDBRANCH  23  24
BRANCH  23  31
ATOM     31  N   UNL     1       1.156  12.513  18.966  0.00  0.00    +0.000 NA
ATOM     32  C   UNL     1       2.517  12.471  18.363  0.00  0.00    +0.000 C 
ATOM     33  C   UNL     1       3.326  13.768  18.468  0.00  0.00    +0.000 C 
ATOM     34  C   UNL     1       2.538  14.950  17.930  0.00  0.00    +0.000 C 
ATOM     35  C   UNL     1       1.249  15.063  18.716  0.00  0.00    +0.000 C 
ATOM     36  C   UNL     1       0.442  13.770  18.625  0.00  0.00    +0.000 C 
ENDBRANCH  23  31
ENDBRANCH   5  23
TORSDOF 10
ENDMDL
MODEL 7
REMARK VINA RESULT:      -8.2      4.024      7.911
REMARK  Name = 
REMARK  10 active torsions:
REMARK  status: ('A' for Active; 'I' for Inactive)
REMARK    1  A    between atoms: C_2  and  C_3
REMARK    2  A    between atoms: C_3  and  C_4
REMARK    3  A    between atoms: C_7  and  O_8
REMARK    4  A    between atoms: C_9  and  C_10
REMARK    5  A    between atoms: C_12  and  C_13
REMARK    6  A    between atoms: C_13  and  C_14
REMARK    7  A    between atoms: C_17  and  C_18
REMARK    8  A    between atoms: C_18  and  C_19
REMARK    9  A    between atoms: C_18  and  N_26
REMARK   10  A    between atoms: C_32  and  O_33
REMARK                            x       y       z     vdW  Elec       q    Type
REMARK                         _______ _______ _______ _____ _____    ______ ____
ROOT
ATOM      1  C   UNL     1       1.844   8.110  19.255  0.00  0.00    +0.000 A 
ATOM      2  C   UNL     1       1.716   8.131  20.658  0.00  0.00    +0.000 A 
ATOM      3  C   UNL     1       1.029   9.149  21.338  0.00  0.00    +0.000 A 
ATOM      4  C   UNL     1       0.539  10.234  20.604  0.00  0.00    +0.000 A 
ATOM      5  C   UNL     1       0.642  10.274  19.200  0.00  0.00    +0.000 A 
ATOM      6  C   UNL     1       1.242   9.179  18.545  0.00  0.00    +0.000 A 
ENDROOT
BRANCH   1  11
ATOM      7  C   UNL     1       4.673   6.463  17.284  0.00  0.00    +0.000 A 
ATOM      8  C   UNL     1       4.329   5.112  17.337  0.00  0.00    +0.000 A 
ATOM      9  C   UNL     1       3.165   4.717  17.993  0.00  0.00    +0.000 A 
ATOM     10  C   UNL     1       2.333   5.671  18.597  0.00  0.00    +0.000 A 
ATOM     11  C   UNL     1       2.651   7.044  18.587  0.00  0.00    +0.000 A 
ATOM     12  C   UNL     1       3.851   7.397  17.936  0.00  0.00    +0.000 A 
BRANCH  10  13
ATOM     13  O   UNL     1       1.185   5.228  19.207  0.00  0.00    +0.000 OA
ATOM     14  H   UNL     1       0.700   4.661  18.587  0.00  0.00    +0.000 HD
ENDBRANCH  10  13
BRANCH   7  15
ATOM     15  C   UNL     1       5.910   6.930  16.560  0.00  0.00    +0.000 C 
BRANCH  15  17
ATOM     16  C   UNL     1       7.834   8.130  17.637  0.00  0.00    +0.000 C 
ATOM     17  C   UNL     1       7.101   7.018  17.470  0.00  0.00    +0.000 C 
ENDBRANCH  15  17
ENDBRANCH   7  15
ENDBRANCH   1  11
BRANCH   6  18
ATOM     18  O   UNL     1       1.248   9.155  17.168  0.00  0.00    +0.000 OA
ATOM     19  H   UNL     1       2.162   8.950  16.876  0.00  0.00    +0.000 HD
ENDBRANCH   6  18
BRANCH   3  20
ATOM     20  C   UNL     1       0.846   9.073  22.836  0.00  0.00    +0.000 C 
BRANCH  20  21
ATOM     21  C   UNL     1      -0.547   9.394  23.294  0.00  0.00    +0.000 C 
ATOM     22  C   UNL     1      -1.090  10.619  23.247  0.00  0.00    +0.000 C 
ENDBRANCH  20  21
ENDBRANCH   3  20
BRANCH   5  23
ATOM     23  C   UNL     1       0.227  11.564  18.474  0.00  0.00    +0.000 C 
BRANCH  23  24
ATOM     24  C   UNL     1      -1.282  11.541  18.201  0.00  0.00    +0.000 A 
ATOM     25  C   UNL     1      -1.824  11.130  16.971  0.00  0.00    +0.000 A 
ATOM     26  C   UNL     1      -3.208  11.089  16.781  0.00  0.00    +0.000 A 
ATOM     27  C   UNL     1      -4.072  11.454  17.813  0.00  0.00    +0.000 A 
ATOM     28  C   UNL     1      -3.552  11.864  19.038  0.00  0.00    +0.000 A 
ATOM     29  C   UNL     1      -2.172  11.906  19.221  0.00  0.00    +0.000 A 
ATOM     30  F   UNL     1      -1.702  12.278  20.421  0.00  0.00    +0.000 F 
ENDBRANCH  23  24
BRANCH  23  31
ATOM     31  N   UNL     1       0.717  12.842  19.145  0.00  0.00    +0.000 NA
ATOM     32  C   UNL     1       2.204  12.865  19.083  0.00  0.00    +0.000 C 
ATOM     33  C   UNL     1       2.856  14.221  19.367  0.00  0.00    +0.000 C 
ATOM     34  C   UNL     1       2.267  15.307  18.484  0.00  0.00    +0.000 C 
ATOM     35  C   UNL     1       0.775  15.373  18.737  0.00  0.00    +0.000 C 
ATOM     36  C   UNL     1       0.120  14.020  18.465  0.00  0.00    +0.000 C 
ENDBRANCH  23  31
ENDBRANCH   5  23
TORSDOF 10
ENDMDL
MODEL 8
REMARK VINA RESULT:      -8.2      4.332      8.052
REMARK  Name = 
REMARK  10 active torsions:
REMARK  status: ('A' for Active; 'I' for Inactive)
REMARK    1  A    between atoms: C_2  and  C_3
REMARK    2  A    between atoms: C_3  and  C_4
REMARK    3  A    between atoms: C_7  and  O_8
REMARK    4  A    between atoms: C_9  and  C_10
REMARK    5  A    between atoms: C_12  and  C_13
REMARK    6  A    between atoms: C_13  and  C_14
REMARK    7  A    between atoms: C_17  and  C_18
REMARK    8  A    between atoms: C_18  and  C_19
REMARK    9  A    between atoms: C_18  and  N_26
REMARK   10  A    between atoms: C_32  and  O_33
REMARK                            x       y       z     vdW  Elec       q    Type
REMARK                         _______ _______ _______ _____ _____    ______ ____
ROOT
ATOM      1  C   UNL     1       1.604   8.208  19.354  0.00  0.00    +0.000 A 
ATOM      2  C   UNL     1       1.510   8.267  20.758  0.00  0.00    +0.000 A 
ATOM      3  C   UNL     1       0.859   9.315  21.427  0.00  0.00    +0.000 A 
ATOM      4  C   UNL     1       0.373  10.391  20.678  0.00  0.00    +0.000 A 
ATOM      5  C   UNL     1       0.444  10.394  19.272  0.00  0.00    +0.000 A 
ATOM      6  C   UNL     1       1.007   9.271  18.631  0.00  0.00    +0.000 A 
ENDROOT
BRANCH   1  11
ATOM      7  C   UNL     1       2.648   4.679  18.328  0.00  0.00    +0.000 A 
ATOM      8  C   UNL     1       3.701   4.921  17.447  0.00  0.00    +0.000 A 
ATOM      9  C   UNL     1       4.103   6.229  17.188  0.00  0.00    +0.000 A 
ATOM     10  C   UNL     1       3.458   7.306  17.813  0.00  0.00    +0.000 A 
ATOM     11  C   UNL     1       2.375   7.110  18.695  0.00  0.00    +0.000 A 
ATOM     12  C   UNL     1       1.984   5.772  18.907  0.00  0.00    +0.000 A 
BRANCH  10  13
ATOM     13  O   UNL     1       3.912   8.573  17.542  0.00  0.00    +0.000 OA
ATOM     14  H   UNL     1       4.227   8.603  16.625  0.00  0.00    +0.000 HD
ENDBRANCH  10  13
BRANCH   7  15
ATOM     15  C   UNL     1       2.203   3.275  18.653  0.00  0.00    +0.000 C 
BRANCH  15  17
ATOM     16  C   UNL     1       1.287   2.812  20.945  0.00  0.00    +0.000 C 
ATOM     17  C   UNL     1       1.115   3.249  19.687  0.00  0.00    +0.000 C 
ENDBRANCH  15  17
ENDBRANCH   7  15
ENDBRANCH   1  11
BRANCH   6  18
ATOM     18  O   UNL     1       0.980   9.213  17.255  0.00  0.00    +0.000 OA
ATOM     19  H   UNL     1       0.056   9.375  16.967  0.00  0.00    +0.000 HD
ENDBRANCH   6  18
BRANCH   3  20
ATOM     20  C   UNL     1       0.710   9.280  22.931  0.00  0.00    +0.000 C 
BRANCH  20  21
ATOM     21  C   UNL     1      -0.661   9.655  23.413  0.00  0.00    +0.000 C 
ATOM     22  C   UNL     1      -1.226  10.855  23.215  0.00  0.00    +0.000 C 
ENDBRANCH  20  21
ENDBRANCH   3  20
BRANCH   5  23
ATOM     23  C   UNL     1       0.037  11.673  18.523  0.00  0.00    +0.000 C 
BRANCH  23  24
ATOM     24  C   UNL     1      -1.460  11.625  18.192  0.00  0.00    +0.000 A 
ATOM     25  C   UNL     1      -1.948  11.222  16.938  0.00  0.00    +0.000 A 
ATOM     26  C   UNL     1      -3.322  11.157  16.695  0.00  0.00    +0.000 A 
ATOM     27  C   UNL     1      -4.231  11.490  17.698  0.00  0.00    +0.000 A 
ATOM     28  C   UNL     1      -3.766  11.893  18.948  0.00  0.00    +0.000 A 
ATOM     29  C   UNL     1      -2.395  11.958  19.183  0.00  0.00    +0.000 A 
ATOM     30  F   UNL     1      -1.978  12.322  20.405  0.00  0.00    +0.000 F 
ENDBRANCH  23  24
BRANCH  23  31
ATOM     31  N   UNL     1       0.480  12.962  19.205  0.00  0.00    +0.000 NA
ATOM     32  C   UNL     1       1.968  13.009  19.198  0.00  0.00    +0.000 C 
ATOM     33  C   UNL     1       2.588  14.377  19.499  0.00  0.00    +0.000 C 
ATOM     34  C   UNL     1       2.015  15.450  18.588  0.00  0.00    +0.000 C 
ATOM     35  C   UNL     1       0.514  15.492  18.785  0.00  0.00    +0.000 C 
ATOM     36  C   UNL     1      -0.110  14.127  18.497  0.00  0.00    +0.000 C 
ENDBRANCH  23  31
ENDBRANCH   5  23
TORSDOF 10
ENDMDL
MODEL 9
REMARK VINA RESULT:      -8.1      5.765     10.230
REMARK  Name = 
REMARK  10 active torsions:
REMARK  status: ('A' for Active; 'I' for Inactive)
REMARK    1  A    between atoms: C_2  and  C_3
REMARK    2  A    between atoms: C_3  and  C_4
REMARK    3  A    between atoms: C_7  and  O_8
REMARK    4  A    between atoms: C_9  and  C_10
REMARK    5  A    between atoms: C_12  and  C_13
REMARK    6  A    between atoms: C_13  and  C_14
REMARK    7  A    between atoms: C_17  and  C_18
REMARK    8  A    between atoms: C_18  and  C_19
REMARK    9  A    between atoms: C_18  and  N_26
REMARK   10  A    between atoms: C_32  and  O_33
REMARK                            x       y       z     vdW  Elec       q    Type
REMARK                         _______ _______ _______ _____ _____    ______ ____
ROOT
ATOM      1  C   UNL     1       0.227  10.499  19.035  0.00  0.00    +0.000 A 
ATOM      2  C   UNL     1      -0.938  10.461  18.244  0.00  0.00    +0.000 A 
ATOM      3  C   UNL     1      -1.731  11.595  18.014  0.00  0.00    +0.000 A 
ATOM      4  C   UNL     1      -1.408  12.786  18.674  0.00  0.00    +0.000 A 
ATOM      5  C   UNL     1      -0.260  12.885  19.483  0.00  0.00    +0.000 A 
ATOM      6  C   UNL     1       0.571  11.752  19.601  0.00  0.00    +0.000 A 
ENDROOT
BRANCH   1  11
ATOM      7  C   UNL     1       2.662   7.599  18.519  0.00  0.00    +0.000 A 
ATOM      8  C   UNL     1       2.573   6.913  19.730  0.00  0.00    +0.000 A 
ATOM      9  C   UNL     1       1.708   7.367  20.723  0.00  0.00    +0.000 A 
ATOM     10  C   UNL     1       0.921   8.508  20.511  0.00  0.00    +0.000 A 
ATOM     11  C   UNL     1       0.993   9.245  19.311  0.00  0.00    +0.000 A 
ATOM     12  C   UNL     1       1.901   8.766  18.344  0.00  0.00    +0.000 A 
BRANCH  10  13
ATOM     13  O   UNL     1       0.067   8.895  21.513  0.00  0.00    +0.000 OA
ATOM     14  H   UNL     1       0.124   9.858  21.619  0.00  0.00    +0.000 HD
ENDBRANCH  10  13
BRANCH   7  15
ATOM     15  C   UNL     1       3.567   7.122  17.411  0.00  0.00    +0.000 C 
BRANCH  15  17
ATOM     16  C   UNL     1       4.332   4.747  17.131  0.00  0.00    +0.000 C 
ATOM     17  C   UNL     1       4.355   5.906  17.807  0.00  0.00    +0.000 C 
ENDBRANCH  15  17
ENDBRANCH   7  15
ENDBRANCH   1  11
BRANCH   6  18
ATOM     18  O   UNL     1       1.754  11.869  20.297  0.00  0.00    +0.000 OA
ATOM     19  H   UNL     1       1.708  12.694  20.828  0.00  0.00    +0.000 HD
ENDBRANCH   6  18
BRANCH   3  20
ATOM     20  C   UNL     1      -2.919  11.516  17.083  0.00  0.00    +0.000 C 
BRANCH  20  21
ATOM     21  C   UNL     1      -3.032  10.208  16.355  0.00  0.00    +0.000 C 
ATOM     22  C   UNL     1      -2.943  10.078  15.024  0.00  0.00    +0.000 C 
ENDBRANCH  20  21
ENDBRANCH   3  20
BRANCH   5  23
ATOM     23  C   UNL     1      -0.052  14.169  20.302  0.00  0.00    +0.000 C 
BRANCH  23  24
ATOM     24  C   UNL     1       0.282  15.334  19.362  0.00  0.00    +0.000 A 
ATOM     25  C   UNL     1      -0.695  16.218  18.873  0.00  0.00    +0.000 A 
ATOM     26  C   UNL     1      -0.338  17.289  18.050  0.00  0.00    +0.000 A 
ATOM     27  C   UNL     1       0.996  17.496  17.703  0.00  0.00    +0.000 A 
ATOM     28  C   UNL     1       1.978  16.629  18.178  0.00  0.00    +0.000 A 
ATOM     29  C   UNL     1       1.616  15.562  18.996  0.00  0.00    +0.000 A 
ATOM     30  F   UNL     1       2.586  14.762  19.461  0.00  0.00    +0.000 F 
ENDBRANCH  23  24
BRANCH  23  31
ATOM     31  N   UNL     1      -1.177  14.469  21.286  0.00  0.00    +0.000 NA
ATOM     32  C   UNL     1      -1.406  13.257  22.120  0.00  0.00    +0.000 C 
ATOM     33  C   UNL     1      -2.228  13.478  23.394  0.00  0.00    +0.000 C 
ATOM     34  C   UNL     1      -1.646  14.603  24.233  0.00  0.00    +0.000 C 
ATOM     35  C   UNL     1      -1.621  15.863  23.392  0.00  0.00    +0.000 C 
ATOM     36  C   UNL     1      -0.812  15.646  22.114  0.00  0.00    +0.000 C 
ENDBRANCH  23  31
ENDBRANCH   5  23
TORSDOF 10
ENDMDL
