MODEL 1
REMARK VINA RESULT:      -8.0      0.000      0.000
REMARK  Name = 
REMARK  7 active torsions:
REMARK  status: ('A' for Active; 'I' for Inactive)
REMARK    1  A    between atoms: N_1  and  C_2
REMARK    2  A    between atoms: C_2  and  C_3
REMARK    3  A    between atoms: C_3  and  O_5
REMARK    4  A    between atoms: C_7  and  N_8
REMARK    5  A    between atoms: C_9  and  C_11
REMARK    6  A    between atoms: C_19  and  C_20
REMARK    7  A    between atoms: C_20  and  O_22
REMARK                            x       y       z     vdW  Elec       q    Type
REMARK                         _______ _______ _______ _____ _____    ______ ____
ROOT
ATOM      1  C   UNL     1       4.138   3.156  18.750  0.00  0.00    +0.000 C 
ATOM      2  C   UNL     1       3.155   4.226  19.281  0.00  0.00    +0.000 C 
ATOM      3  C   UNL     1       4.009   5.494  19.379  0.00  0.00    +0.000 C 
ATOM      4  C   UNL     1       4.903   5.402  18.169  0.00  0.00    +0.000 C 
ATOM      5  C   UNL     1       6.266   4.757  18.246  0.00  0.00    +0.000 C 
ATOM      6  C   UNL     1       5.049   3.938  17.824  0.00  0.00    +0.000 C 
ENDROOT
BRANCH   3   7
ATOM      7  N   UNL     1       3.230   6.708  19.407  0.00  0.00    +0.000 N 
ATOM      8  C   UNL     1       2.149   6.817  20.256  0.00  0.00    +0.000 C 
ATOM      9  O   UNL     1       1.809   5.914  21.020  0.00  0.00    +0.000 OA
ATOM     10  H   UNL     1       3.610   7.542  18.979  0.00  0.00    +0.000 HD
BRANCH   8  11
ATOM     11  C   UNL     1       1.384   8.096  20.236  0.00  0.00    +0.000 A 
ATOM     12  C   UNL     1       1.341   8.930  19.110  0.00  0.00    +0.000 A 
ATOM     13  C   UNL     1       0.570  10.096  19.137  0.00  0.00    +0.000 A 
ATOM     14  C   UNL     1      -0.155  10.421  20.280  0.00  0.00    +0.000 A 
ATOM     15  F   UNL     1      -0.896  11.538  20.297  0.00  0.00    +0.000 F 
ATOM     16  C   UNL     1      -0.129   9.600  21.399  0.00  0.00    +0.000 A 
ATOM     17  C   UNL     1       0.636   8.432  21.376  0.00  0.00    +0.000 A 
ENDBRANCH   8  11
ENDBRANCH   3   7
BRANCH   1  18
ATOM     18  N   UNL     1       4.909   2.523  19.850  0.00  0.00    +0.000 NA
ATOM     19  H   UNL     1       5.823   2.225  19.509  0.00  0.00    +0.000 HD
ATOM     20  H   UNL     1       4.424   1.663  20.125  0.00  0.00    +0.000 HD
ENDBRANCH   1  18
BRANCH   1  21
ATOM     21  C   UNL     1       3.318   2.046  18.049  0.00  0.00    +0.000 C 
ATOM     22  O   UNL     1       2.291   2.209  17.410  0.00  0.00    +0.000 OA
BRANCH  21  23
ATOM     23  O   UNL     1       3.868   0.821  18.276  0.00  0.00    +0.000 OA
ATOM     24  H   UNL     1       4.504   0.655  17.537  0.00  0.00    +0.000 HD
ENDBRANCH  21  23
ENDBRANCH   1  21
BRANCH   5  25
ATOM     25  C   UNL     1       7.294   5.090  17.220  0.00  0.00    +0.000 C 
ATOM     26  O   UNL     1       7.333   6.170  16.654  0.00  0.00    +0.000 OA
BRANCH  25  27
ATOM     27  O   UNL     1       8.170   4.090  16.977  0.00  0.00    +0.000 OA
ATOM     28  H   UNL     1       7.754   3.231  16.787  0.00  0.00    +0.000 HD
ENDBRANCH  25  27
ENDBRANCH   5  25
TORSDOF 7
ENDMDL
MODEL 2
REMARK VINA RESULT:      -7.9      0.484      1.308
REMARK  Name = 
REMARK  7 active torsions:
REMARK  status: ('A' for Active; 'I' for Inactive)
REMARK    1  A    between atoms: N_1  and  C_2
REMARK    2  A    between atoms: C_2  and  C_3
REMARK    3  A    between atoms: C_3  and  O_5
REMARK    4  A    between atoms: C_7  and  N_8
REMARK    5  A    between atoms: C_9  and  C_11
REMARK    6  A    between atoms: C_19  and  C_20
REMARK    7  A    between atoms: C_20  and  O_22
REMARK                            x       y       z     vdW  Elec       q    Type
REMARK                         _______ _______ _______ _____ _____    ______ ____
ROOT
ATOM      1  C   UNL     1       4.081   3.170  18.601  0.00  0.00    +0.000 C 
ATOM      2  C   UNL     1       3.062   4.261  19.005  0.00  0.00    +0.000 C 
ATOM      3  C   UNL     1       3.895   5.545  19.050  0.00  0.00    +0.000 C 
ATOM      4  C   UNL     1       4.848   5.378  17.894  0.00  0.00    +0.000 C 
ATOM      5  C   UNL     1       6.213   4.761  18.083  0.00  0.00    +0.000 C 
ATOM      6  C   UNL     1       5.027   3.896  17.665  0.00  0.00    +0.000 C 
ENDROOT
BRANCH   3   7
ATOM      7  N   UNL     1       3.102   6.747  18.951  0.00  0.00    +0.000 N 
ATOM      8  C   UNL     1       2.221   7.078  19.957  0.00  0.00    +0.000 C 
ATOM      9  O   UNL     1       2.076   6.392  20.969  0.00  0.00    +0.000 OA
ATOM     10  H   UNL     1       3.358   7.446  18.266  0.00  0.00    +0.000 HD
BRANCH   8  11
ATOM     11  C   UNL     1       1.429   8.330  19.796  0.00  0.00    +0.000 A 
ATOM     12  C   UNL     1       0.615   8.843  20.817  0.00  0.00    +0.000 A 
ATOM     13  C   UNL     1      -0.070  10.046  20.622  0.00  0.00    +0.000 A 
ATOM     14  C   UNL     1       0.061  10.731  19.417  0.00  0.00    +0.000 A 
ATOM     15  F   UNL     1      -0.594  11.887  19.239  0.00  0.00    +0.000 F 
ATOM     16  C   UNL     1       0.871  10.240  18.401  0.00  0.00    +0.000 A 
ATOM     17  C   UNL     1       1.560   9.041  18.593  0.00  0.00    +0.000 A 
ENDBRANCH   8  11
ENDBRANCH   3   7
BRANCH   1  18
ATOM     18  N   UNL     1       4.805   2.631  19.781  0.00  0.00    +0.000 NA
ATOM     19  H   UNL     1       4.250   2.771  20.625  0.00  0.00    +0.000 HD
ATOM     20  H   UNL     1       5.655   3.189  19.915  0.00  0.00    +0.000 HD
ENDBRANCH   1  18
BRANCH   1  21
ATOM     21  C   UNL     1       3.309   2.000  17.946  0.00  0.00    +0.000 C 
ATOM     22  O   UNL     1       2.271   2.092  17.313  0.00  0.00    +0.000 OA
BRANCH  21  23
ATOM     23  O   UNL     1       3.919   0.810  18.208  0.00  0.00    +0.000 OA
ATOM     24  H   UNL     1       3.223   0.209  18.570  0.00  0.00    +0.000 HD
ENDBRANCH  21  23
ENDBRANCH   1  21
BRANCH   5  25
ATOM     25  C   UNL     1       7.286   5.033  17.085  0.00  0.00    +0.000 C 
ATOM     26  O   UNL     1       8.067   4.175  16.709  0.00  0.00    +0.000 OA
BRANCH  25  27
ATOM     27  O   UNL     1       7.314   6.309  16.643  0.00  0.00    +0.000 OA
ATOM     28  H   UNL     1       7.473   6.399  15.687  0.00  0.00    +0.000 HD
ENDBRANCH  25  27
ENDBRANCH   5  25
TORSDOF 7
ENDMDL
MODEL 3
REMARK VINA RESULT:      -7.9      2.529      3.194
REMARK  Name = 
REMARK  7 active torsions:
REMARK  status: ('A' for Active; 'I' for Inactive)
REMARK    1  A    between atoms: N_1  and  C_2
REMARK    2  A    between atoms: C_2  and  C_3
REMARK    3  A    between atoms: C_3  and  O_5
REMARK    4  A    between atoms: C_7  and  N_8
REMARK    5  A    between atoms: C_9  and  C_11
REMARK    6  A    between atoms: C_19  and  C_20
REMARK    7  A    between atoms: C_20  and  O_22
REMARK                            x       y       z     vdW  Elec       q    Type
REMARK                         _______ _______ _______ _____ _____    ______ ____
ROOT
ATOM      1  C   UNL     1       6.188   4.803  15.935  0.00  0.00    +0.000 C 
ATOM      2  C   UNL     1       4.823   5.529  15.961  0.00  0.00    +0.000 C 
ATOM      3  C   UNL     1       4.642   5.923  17.430  0.00  0.00    +0.000 C 
ATOM      4  C   UNL     1       6.037   6.300  17.859  0.00  0.00    +0.000 C 
ATOM      5  C   UNL     1       6.967   5.289  18.486  0.00  0.00    +0.000 C 
ATOM      6  C   UNL     1       7.002   5.540  16.981  0.00  0.00    +0.000 C 
ENDROOT
BRANCH   3   7
ATOM      7  N   UNL     1       3.691   6.991  17.624  0.00  0.00    +0.000 N 
ATOM      8  C   UNL     1       2.931   7.038  18.773  0.00  0.00    +0.000 C 
ATOM      9  O   UNL     1       3.029   6.203  19.672  0.00  0.00    +0.000 OA
ATOM     10  H   UNL     1       3.748   7.810  17.033  0.00  0.00    +0.000 HD
BRANCH   8  11
ATOM     11  C   UNL     1       1.965   8.165  18.914  0.00  0.00    +0.000 A 
ATOM     12  C   UNL     1       1.540   8.933  17.820  0.00  0.00    +0.000 A 
ATOM     13  C   UNL     1       0.598   9.949  18.008  0.00  0.00    +0.000 A 
ATOM     14  C   UNL     1       0.084  10.191  19.279  0.00  0.00    +0.000 A 
ATOM     15  F   UNL     1      -0.823  11.163  19.451  0.00  0.00    +0.000 F 
ATOM     16  C   UNL     1       0.489   9.432  20.369  0.00  0.00    +0.000 A 
ATOM     17  C   UNL     1       1.426   8.414  20.186  0.00  0.00    +0.000 A 
ENDBRANCH   8  11
ENDBRANCH   3   7
BRANCH   1  18
ATOM     18  N   UNL     1       6.052   3.365  16.280  0.00  0.00    +0.000 NA
ATOM     19  H   UNL     1       5.457   3.258  17.102  0.00  0.00    +0.000 HD
ATOM     20  H   UNL     1       6.974   3.016  16.562  0.00  0.00    +0.000 HD
ENDBRANCH   1  18
BRANCH   1  21
ATOM     21  C   UNL     1       6.761   4.892  14.501  0.00  0.00    +0.000 C 
ATOM     22  O   UNL     1       7.700   5.585  14.146  0.00  0.00    +0.000 OA
BRANCH  21  23
ATOM     23  O   UNL     1       6.041   4.118  13.643  0.00  0.00    +0.000 OA
ATOM     24  H   UNL     1       6.626   3.366  13.381  0.00  0.00    +0.000 HD
ENDBRANCH  21  23
ENDBRANCH   1  21
BRANCH   5  25
ATOM     25  C   UNL     1       8.111   5.759  19.316  0.00  0.00    +0.000 C 
ATOM     26  O   UNL     1       8.656   5.052  20.148  0.00  0.00    +0.000 OA
BRANCH  25  27
ATOM     27  O   UNL     1       8.484   7.033  19.065  0.00  0.00    +0.000 OA
ATOM     28  H   UNL     1       7.809   7.699  19.285  0.00  0.00    +0.000 HD
ENDBRANCH  25  27
ENDBRANCH   5  25
TORSDOF 7
ENDMDL
MODEL 4
REMARK VINA RESULT:      -7.9      1.734      3.724
REMARK  Name = 
REMARK  7 active torsions:
REMARK  status: ('A' for Active; 'I' for Inactive)
REMARK    1  A    between atoms: N_1  and  C_2
REMARK    2  A    between atoms: C_2  and  C_3
REMARK    3  A    between atoms: C_3  and  O_5
REMARK    4  A    between atoms: C_7  and  N_8
REMARK    5  A    between atoms: C_9  and  C_11
REMARK    6  A    between atoms: C_19  and  C_20
REMARK    7  A    between atoms: C_20  and  O_22
REMARK                            x       y       z     vdW  Elec       q    Type
REMARK                         _______ _______ _______ _____ _____    ______ ____
ROOT
ATOM      1  C   UNL     1       5.434   5.188  17.040  0.00  0.00    +0.000 C 
ATOM      2  C   UNL     1       4.805   6.452  17.671  0.00  0.00    +0.000 C 
ATOM      3  C   UNL     1       3.348   6.053  17.921  0.00  0.00    +0.000 C 
ATOM      4  C   UNL     1       3.454   4.611  18.348  0.00  0.00    +0.000 C 
ATOM      5  C   UNL     1       3.348   3.485  17.347  0.00  0.00    +0.000 C 
ATOM      6  C   UNL     1       4.714   4.048  17.732  0.00  0.00    +0.000 C 
ENDROOT
BRANCH   3   7
ATOM      7  N   UNL     1       2.688   6.878  18.903  0.00  0.00    +0.000 N 
ATOM      8  C   UNL     1       2.175   8.106  18.542  0.00  0.00    +0.000 C 
ATOM      9  O   UNL     1       2.241   8.544  17.393  0.00  0.00    +0.000 OA
ATOM     10  H   UNL     1       2.407   6.463  19.782  0.00  0.00    +0.000 HD
BRANCH   8  11
ATOM     11  C   UNL     1       1.506   8.912  19.602  0.00  0.00    +0.000 A 
ATOM     12  C   UNL     1       0.941  10.170  19.346  0.00  0.00    +0.000 A 
ATOM     13  C   UNL     1       0.288  10.861  20.372  0.00  0.00    +0.000 A 
ATOM     14  C   UNL     1       0.199  10.296  21.640  0.00  0.00    +0.000 A 
ATOM     15  F   UNL     1      -0.433  10.961  22.617  0.00  0.00    +0.000 F 
ATOM     16  C   UNL     1       0.745   9.047  21.905  0.00  0.00    +0.000 A 
ATOM     17  C   UNL     1       1.394   8.351  20.884  0.00  0.00    +0.000 A 
ENDBRANCH   8  11
ENDBRANCH   3   7
BRANCH   1  18
ATOM     18  N   UNL     1       5.219   5.142  15.571  0.00  0.00    +0.000 NA
ATOM     19  H   UNL     1       6.002   4.670  15.118  0.00  0.00    +0.000 HD
ATOM     20  H   UNL     1       5.237   6.104  15.216  0.00  0.00    +0.000 HD
ENDBRANCH   1  18
BRANCH   1  21
ATOM     21  C   UNL     1       6.960   5.225  17.293  0.00  0.00    +0.000 C 
ATOM     22  O   UNL     1       7.575   4.515  18.071  0.00  0.00    +0.000 OA
BRANCH  21  23
ATOM     23  O   UNL     1       7.550   6.207  16.555  0.00  0.00    +0.000 OA
ATOM     24  H   UNL     1       8.100   5.755  15.870  0.00  0.00    +0.000 HD
ENDBRANCH  21  23
ENDBRANCH   1  21
BRANCH   5  25
ATOM     25  C   UNL     1       2.980   2.119  17.816  0.00  0.00    +0.000 C 
ATOM     26  O   UNL     1       3.814   1.272  18.092  0.00  0.00    +0.000 OA
BRANCH  25  27
ATOM     27  O   UNL     1       1.649   1.909  17.903  0.00  0.00    +0.000 OA
ATOM     28  H   UNL     1       1.149   2.655  18.278  0.00  0.00    +0.000 HD
ENDBRANCH  25  27
ENDBRANCH   5  25
TORSDOF 7
ENDMDL
MODEL 5
REMARK VINA RESULT:      -7.9      0.968      1.412
REMARK  Name = 
REMARK  7 active torsions:
REMARK  status: ('A' for Active; 'I' for Inactive)
REMARK    1  A    between atoms: N_1  and  C_2
REMARK    2  A    between atoms: C_2  and  C_3
REMARK    3  A    between atoms: C_3  and  O_5
REMARK    4  A    between atoms: C_7  and  N_8
REMARK    5  A    between atoms: C_9  and  C_11
REMARK    6  A    between atoms: C_19  and  C_20
REMARK    7  A    between atoms: C_20  and  O_22
REMARK                            x       y       z     vdW  Elec       q    Type
REMARK                         _______ _______ _______ _____ _____    ______ ____
ROOT
ATOM      1  C   UNL     1       4.171   2.984  18.866  0.00  0.00    +0.000 C 
ATOM      2  C   UNL     1       3.173   3.913  19.595  0.00  0.00    +0.000 C 
ATOM      3  C   UNL     1       3.931   5.237  19.729  0.00  0.00    +0.000 C 
ATOM      4  C   UNL     1       4.693   5.331  18.432  0.00  0.00    +0.000 C 
ATOM      5  C   UNL     1       6.102   4.804  18.308  0.00  0.00    +0.000 C 
ATOM      6  C   UNL     1       4.913   3.922  17.933  0.00  0.00    +0.000 C 
ENDROOT
BRANCH   3   7
ATOM      7  N   UNL     1       3.068   6.372  19.953  0.00  0.00    +0.000 N 
ATOM      8  C   UNL     1       2.625   7.124  18.886  0.00  0.00    +0.000 C 
ATOM      9  O   UNL     1       2.925   6.868  17.720  0.00  0.00    +0.000 OA
ATOM     10  H   UNL     1       2.615   6.471  20.852  0.00  0.00    +0.000 HD
BRANCH   8  11
ATOM     11  C   UNL     1       1.738   8.284  19.182  0.00  0.00    +0.000 A 
ATOM     12  C   UNL     1       1.273   8.566  20.475  0.00  0.00    +0.000 A 
ATOM     13  C   UNL     1       0.478   9.694  20.699  0.00  0.00    +0.000 A 
ATOM     14  C   UNL     1       0.155  10.535  19.637  0.00  0.00    +0.000 A 
ATOM     15  F   UNL     1      -0.602  11.618  19.860  0.00  0.00    +0.000 F 
ATOM     16  C   UNL     1       0.616  10.274  18.354  0.00  0.00    +0.000 A 
ATOM     17  C   UNL     1       1.413   9.151  18.126  0.00  0.00    +0.000 A 
ENDBRANCH   8  11
ENDBRANCH   3   7
BRANCH   1  18
ATOM     18  N   UNL     1       5.104   2.327  19.816  0.00  0.00    +0.000 NA
ATOM     19  H   UNL     1       4.652   2.207  20.722  0.00  0.00    +0.000 HD
ATOM     20  H   UNL     1       5.890   2.964  19.982  0.00  0.00    +0.000 HD
ENDBRANCH   1  18
BRANCH   1  21
ATOM     21  C   UNL     1       3.369   1.874  18.147  0.00  0.00    +0.000 C 
ATOM     22  O   UNL     1       2.316   2.023  17.549  0.00  0.00    +0.000 OA
BRANCH  21  23
ATOM     23  O   UNL     1       3.970   0.662  18.306  0.00  0.00    +0.000 OA
ATOM     24  H   UNL     1       4.463   0.701  19.162  0.00  0.00    +0.000 HD
ENDBRANCH  21  23
ENDBRANCH   1  21
BRANCH   5  25
ATOM     25  C   UNL     1       6.984   5.314  17.220  0.00  0.00    +0.000 C 
ATOM     26  O   UNL     1       6.806   6.395  16.682  0.00  0.00    +0.000 OA
BRANCH  25  27
ATOM     27  O   UNL     1       7.988   4.474  16.888  0.00  0.00    +0.000 OA
ATOM     28  H   UNL     1       8.182   4.438  15.935  0.00  0.00    +0.000 HD
ENDBRANCH  25  27
ENDBRANCH   5  25
TORSDOF 7
ENDMDL
MODEL 6
REMARK VINA RESULT:      -7.8      1.689      3.784
REMARK  Name = 
REMARK  7 active torsions:
REMARK  status: ('A' for Active; 'I' for Inactive)
REMARK    1  A    between atoms: N_1  and  C_2
REMARK    2  A    between atoms: C_2  and  C_3
REMARK    3  A    between atoms: C_3  and  O_5
REMARK    4  A    between atoms: C_7  and  N_8
REMARK    5  A    between atoms: C_9  and  C_11
REMARK    6  A    between atoms: C_19  and  C_20
REMARK    7  A    between atoms: C_20  and  O_22
REMARK                            x       y       z     vdW  Elec       q    Type
REMARK                         _______ _______ _______ _____ _____    ______ ____
ROOT
ATOM      1  C   UNL     1       5.404   5.080  17.138  0.00  0.00    +0.000 C 
ATOM      2  C   UNL     1       4.757   6.334  17.772  0.00  0.00    +0.000 C 
ATOM      3  C   UNL     1       3.317   5.900  18.061  0.00  0.00    +0.000 C 
ATOM      4  C   UNL     1       3.471   4.465  18.499  0.00  0.00    +0.000 C 
ATOM      5  C   UNL     1       3.371   3.327  17.513  0.00  0.00    +0.000 C 
ATOM      6  C   UNL     1       4.730   3.929  17.859  0.00  0.00    +0.000 C 
ENDROOT
BRANCH   3   7
ATOM      7  N   UNL     1       2.660   6.718  19.051  0.00  0.00    +0.000 N 
ATOM      8  C   UNL     1       2.129   7.940  18.695  0.00  0.00    +0.000 C 
ATOM      9  O   UNL     1       2.177   8.378  17.546  0.00  0.00    +0.000 OA
ATOM     10  H   UNL     1       2.394   6.300  19.933  0.00  0.00    +0.000 HD
BRANCH   8  11
ATOM     11  C   UNL     1       1.463   8.739  19.762  0.00  0.00    +0.000 A 
ATOM     12  C   UNL     1       1.371   8.293  21.089  0.00  0.00    +0.000 A 
ATOM     13  C   UNL     1       0.773   9.107  22.056  0.00  0.00    +0.000 A 
ATOM     14  C   UNL     1       0.277  10.358  21.699  0.00  0.00    +0.000 A 
ATOM     15  F   UNL     1      -0.290  11.135  22.632  0.00  0.00    +0.000 F 
ATOM     16  C   UNL     1       0.370  10.816  20.392  0.00  0.00    +0.000 A 
ATOM     17  C   UNL     1       0.970  10.009  19.423  0.00  0.00    +0.000 A 
ENDBRANCH   8  11
ENDBRANCH   3   7
BRANCH   1  18
ATOM     18  N   UNL     1       5.155   5.013  15.676  0.00  0.00    +0.000 NA
ATOM     19  H   UNL     1       4.152   5.021  15.491  0.00  0.00    +0.000 HD
ATOM     20  H   UNL     1       5.489   4.105  15.337  0.00  0.00    +0.000 HD
ENDBRANCH   1  18
BRANCH   1  21
ATOM     21  C   UNL     1       6.934   5.159  17.354  0.00  0.00    +0.000 C 
ATOM     22  O   UNL     1       7.575   4.534  18.182  0.00  0.00    +0.000 OA
BRANCH  21  23
ATOM     23  O   UNL     1       7.495   6.074  16.514  0.00  0.00    +0.000 OA
ATOM     24  H   UNL     1       7.600   6.908  17.035  0.00  0.00    +0.000 HD
ENDBRANCH  21  23
ENDBRANCH   1  21
BRANCH   5  25
ATOM     25  C   UNL     1       3.050   1.957  18.004  0.00  0.00    +0.000 C 
ATOM     26  O   UNL     1       3.900   1.092  18.141  0.00  0.00    +0.000 OA
BRANCH  25  27
ATOM     27  O   UNL     1       1.742   1.764  18.277  0.00  0.00    +0.000 OA
ATOM     28  H   UNL     1       1.571   1.111  18.978  0.00  0.00    +0.000 HD
ENDBRANCH  25  27
ENDBRANCH   5  25
TORSDOF 7
ENDMDL
MODEL 7
REMARK VINA RESULT:      -7.8      1.662      3.515
REMARK  Name = 
REMARK  7 active torsions:
REMARK  status: ('A' for Active; 'I' for Inactive)
REMARK    1  A    between atoms: N_1  and  C_2
REMARK    2  A    between atoms: C_2  and  C_3
REMARK    3  A    between atoms: C_3  and  O_5
REMARK    4  A    between atoms: C_7  and  N_8
REMARK    5  A    between atoms: C_9  and  C_11
REMARK    6  A    between atoms: C_19  and  C_20
REMARK    7  A    between atoms: C_20  and  O_22
REMARK                            x       y       z     vdW  Elec       q    Type
REMARK                         _______ _______ _______ _____ _____    ______ ____
ROOT
ATOM      1  C   UNL     1       5.562   5.168  17.127  0.00  0.00    +0.000 C 
ATOM      2  C   UNL     1       4.794   6.412  17.630  0.00  0.00    +0.000 C 
ATOM      3  C   UNL     1       3.544   5.829  18.296  0.00  0.00    +0.000 C 
ATOM      4  C   UNL     1       4.060   4.577  18.960  0.00  0.00    +0.000 C 
ATOM      5  C   UNL     1       4.024   3.243  18.255  0.00  0.00    +0.000 C 
ATOM      6  C   UNL     1       5.272   4.120  18.182  0.00  0.00    +0.000 C 
ENDROOT
BRANCH   3   7
ATOM      7  N   UNL     1       2.915   6.735  19.226  0.00  0.00    +0.000 N 
ATOM      8  C   UNL     1       2.146   7.780  18.760  0.00  0.00    +0.000 C 
ATOM      9  O   UNL     1       1.953   7.982  17.561  0.00  0.00    +0.000 OA
ATOM     10  H   UNL     1       2.853   6.470  20.201  0.00  0.00    +0.000 HD
BRANCH   8  11
ATOM     11  C   UNL     1       1.524   8.682  19.770  0.00  0.00    +0.000 A 
ATOM     12  C   UNL     1       0.979   9.929  19.431  0.00  0.00    +0.000 A 
ATOM     13  C   UNL     1       0.370  10.713  20.416  0.00  0.00    +0.000 A 
ATOM     14  C   UNL     1       0.302  10.250  21.727  0.00  0.00    +0.000 A 
ATOM     15  F   UNL     1      -0.289  11.004  22.664  0.00  0.00    +0.000 F 
ATOM     16  C   UNL     1       0.829   9.013  22.074  0.00  0.00    +0.000 A 
ATOM     17  C   UNL     1       1.435   8.225  21.094  0.00  0.00    +0.000 A 
ENDBRANCH   8  11
ENDBRANCH   3   7
BRANCH   1  18
ATOM     18  N   UNL     1       5.084   4.729  15.791  0.00  0.00    +0.000 NA
ATOM     19  H   UNL     1       5.600   5.215  15.058  0.00  0.00    +0.000 HD
ATOM     20  H   UNL     1       4.109   5.030  15.688  0.00  0.00    +0.000 HD
ENDBRANCH   1  18
BRANCH   1  21
ATOM     21  C   UNL     1       7.058   5.540  16.993  0.00  0.00    +0.000 C 
ATOM     22  O   UNL     1       7.499   6.622  16.643  0.00  0.00    +0.000 OA
BRANCH  21  23
ATOM     23  O   UNL     1       7.851   4.469  17.275  0.00  0.00    +0.000 OA
ATOM     24  H   UNL     1       8.090   4.538  18.232  0.00  0.00    +0.000 HD
ENDBRANCH  21  23
ENDBRANCH   1  21
BRANCH   5  25
ATOM     25  C   UNL     1       4.079   1.988  19.058  0.00  0.00    +0.000 C 
ATOM     26  O   UNL     1       4.235   1.986  20.268  0.00  0.00    +0.000 OA
BRANCH  25  27
ATOM     27  O   UNL     1       3.942   0.861  18.324  0.00  0.00    +0.000 OA
ATOM     28  H   UNL     1       4.751   0.323  18.262  0.00  0.00    +0.000 HD
ENDBRANCH  25  27
ENDBRANCH   5  25
TORSDOF 7
ENDMDL
MODEL 8
REMARK VINA RESULT:      -7.8      1.075      1.292
REMARK  Name = 
REMARK  7 active torsions:
REMARK  status: ('A' for Active; 'I' for Inactive)
REMARK    1  A    between atoms: N_1  and  C_2
REMARK    2  A    between atoms: C_2  and  C_3
REMARK    3  A    between atoms: C_3  and  O_5
REMARK    4  A    between atoms: C_7  and  N_8
REMARK    5  A    between atoms: C_9  and  C_11
REMARK    6  A    between atoms: C_19  and  C_20
REMARK    7  A    between atoms: C_20  and  O_22
REMARK                            x       y       z     vdW  Elec       q    Type
REMARK                         _______ _______ _______ _____ _____    ______ ____
ROOT
ATOM      1  C   UNL     1       4.118   3.047  18.814  0.00  0.00    +0.000 C 
ATOM      2  C   UNL     1       3.091   3.941  19.547  0.00  0.00    +0.000 C 
ATOM      3  C   UNL     1       3.750   5.323  19.563  0.00  0.00    +0.000 C 
ATOM      4  C   UNL     1       4.433   5.396  18.220  0.00  0.00    +0.000 C 
ATOM      5  C   UNL     1       5.869   4.968  18.045  0.00  0.00    +0.000 C 
ATOM      6  C   UNL     1       4.734   3.980  17.790  0.00  0.00    +0.000 C 
ENDROOT
BRANCH   3   7
ATOM      7  N   UNL     1       2.815   6.402  19.773  0.00  0.00    +0.000 N 
ATOM      8  C   UNL     1       2.704   7.411  18.839  0.00  0.00    +0.000 C 
ATOM      9  O   UNL     1       3.368   7.437  17.804  0.00  0.00    +0.000 OA
ATOM     10  H   UNL     1       2.096   6.296  20.477  0.00  0.00    +0.000 HD
BRANCH   8  11
ATOM     11  C   UNL     1       1.721   8.498  19.113  0.00  0.00    +0.000 A 
ATOM     12  C   UNL     1       1.262   9.367  18.113  0.00  0.00    +0.000 A 
ATOM     13  C   UNL     1       0.307  10.341  18.422  0.00  0.00    +0.000 A 
ATOM     14  C   UNL     1      -0.187  10.440  19.719  0.00  0.00    +0.000 A 
ATOM     15  F   UNL     1      -1.106  11.371  20.007  0.00  0.00    +0.000 F 
ATOM     16  C   UNL     1       0.251   9.579  20.717  0.00  0.00    +0.000 A 
ATOM     17  C   UNL     1       1.202   8.603  20.413  0.00  0.00    +0.000 A 
ENDBRANCH   8  11
ENDBRANCH   3   7
BRANCH   1  18
ATOM     18  N   UNL     1       5.149   2.519  19.744  0.00  0.00    +0.000 NA
ATOM     19  H   UNL     1       6.041   2.983  19.576  0.00  0.00    +0.000 HD
ATOM     20  H   UNL     1       5.306   1.531  19.518  0.00  0.00    +0.000 HD
ENDBRANCH   1  18
BRANCH   1  21
ATOM     21  C   UNL     1       3.367   1.839  18.206  0.00  0.00    +0.000 C 
ATOM     22  O   UNL     1       2.262   1.868  17.690  0.00  0.00    +0.000 OA
BRANCH  21  23
ATOM     23  O   UNL     1       4.087   0.693  18.362  0.00  0.00    +0.000 OA
ATOM     24  H   UNL     1       3.449  -0.056  18.271  0.00  0.00    +0.000 HD
ENDBRANCH  21  23
ENDBRANCH   1  21
BRANCH   5  25
ATOM     25  C   UNL     1       6.650   5.476  16.882  0.00  0.00    +0.000 C 
ATOM     26  O   UNL     1       7.613   4.882  16.426  0.00  0.00    +0.000 OA
BRANCH  25  27
ATOM     27  O   UNL     1       6.196   6.647  16.386  0.00  0.00    +0.000 OA
ATOM     28  H   UNL     1       6.390   6.785  15.442  0.00  0.00    +0.000 HD
ENDBRANCH  25  27
ENDBRANCH   5  25
TORSDOF 7
ENDMDL
MODEL 9
REMARK VINA RESULT:      -7.7      1.522      3.294
REMARK  Name = 
REMARK  7 active torsions:
REMARK  status: ('A' for Active; 'I' for Inactive)
REMARK    1  A    between atoms: N_1  and  C_2
REMARK    2  A    between atoms: C_2  and  C_3
REMARK    3  A    between atoms: C_3  and  O_5
REMARK    4  A    between atoms: C_7  and  N_8
REMARK    5  A    between atoms: C_9  and  C_11
REMARK    6  A    between atoms: C_19  and  C_20
REMARK    7  A    between atoms: C_20  and  O_22
REMARK                            x       y       z     vdW  Elec       q    Type
REMARK                         _______ _______ _______ _____ _____    ______ ____
ROOT
ATOM      1  C   UNL     1       5.661   4.872  17.025  0.00  0.00    +0.000 C 
ATOM      2  C   UNL     1       4.898   6.216  17.074  0.00  0.00    +0.000 C 
ATOM      3  C   UNL     1       3.654   5.904  17.912  0.00  0.00    +0.000 C 
ATOM      4  C   UNL     1       4.176   4.958  18.963  0.00  0.00    +0.000 C 
ATOM      5  C   UNL     1       4.134   3.462  18.764  0.00  0.00    +0.000 C 
ATOM      6  C   UNL     1       5.380   4.255  18.381  0.00  0.00    +0.000 C 
ENDROOT
BRANCH   3   7
ATOM      7  N   UNL     1       3.034   7.079  18.477  0.00  0.00    +0.000 N 
ATOM      8  C   UNL     1       2.203   6.962  19.571  0.00  0.00    +0.000 C 
ATOM      9  O   UNL     1       1.963   5.884  20.113  0.00  0.00    +0.000 OA
ATOM     10  H   UNL     1       3.386   7.990  18.216  0.00  0.00    +0.000 HD
BRANCH   8  11
ATOM     11  C   UNL     1       1.592   8.211  20.107  0.00  0.00    +0.000 A 
ATOM     12  C   UNL     1       1.274   9.305  19.288  0.00  0.00    +0.000 A 
ATOM     13  C   UNL     1       0.661  10.433  19.842  0.00  0.00    +0.000 A 
ATOM     14  C   UNL     1       0.366  10.464  21.202  0.00  0.00    +0.000 A 
ATOM     15  F   UNL     1      -0.227  11.547  21.725  0.00  0.00    +0.000 F 
ATOM     16  C   UNL     1       0.666   9.385  22.022  0.00  0.00    +0.000 A 
ATOM     17  C   UNL     1       1.274   8.254  21.474  0.00  0.00    +0.000 A 
ENDBRANCH   8  11
ENDBRANCH   3   7
BRANCH   1  18
ATOM     18  N   UNL     1       5.169   4.000  15.929  0.00  0.00    +0.000 NA
ATOM     19  H   UNL     1       4.160   3.875  16.008  0.00  0.00    +0.000 HD
ATOM     20  H   UNL     1       5.573   3.067  16.059  0.00  0.00    +0.000 HD
ENDBRANCH   1  18
BRANCH   1  21
ATOM     21  C   UNL     1       7.156   5.170  16.758  0.00  0.00    +0.000 C 
ATOM     22  O   UNL     1       7.602   6.167  16.214  0.00  0.00    +0.000 OA
BRANCH  21  23
ATOM     23  O   UNL     1       7.937   4.134  17.171  0.00  0.00    +0.000 OA
ATOM     24  H   UNL     1       8.872   4.390  16.977  0.00  0.00    +0.000 HD
ENDBRANCH  21  23
ENDBRANCH   1  21
BRANCH   5  25
ATOM     25  C   UNL     1       4.196   2.562  19.951  0.00  0.00    +0.000 C 
ATOM     26  O   UNL     1       3.434   2.669  20.898  0.00  0.00    +0.000 OA
BRANCH  25  27
ATOM     27  O   UNL     1       5.167   1.626  19.880  0.00  0.00    +0.000 OA
ATOM     28  H   UNL     1       5.097   0.924  20.551  0.00  0.00    +0.000 HD
ENDBRANCH  25  27
ENDBRANCH   5  25
TORSDOF 7
ENDMDL
