MODEL 1
REMARK VINA RESULT:      -7.3      0.000      0.000
REMARK  Name = 
REMARK  11 active torsions:
REMARK  status: ('A' for Active; 'I' for Inactive)
REMARK    1  A    between atoms: C_1  and  C_2
REMARK    2  A    between atoms: C_2  and  C_3
REMARK    3  A    between atoms: C_2  and  N_4
REMARK    4  A    between atoms: C_2  and  C_5
REMARK    5  A    between atoms: N_7  and  CA_8
REMARK    6  A    between atoms: CA_8  and  C_9
REMARK    7  A    between atoms: CA_8  and  C_18
REMARK    8  A    between atoms: C_9  and  C_10
REMARK    9  A    between atoms: C_10  and  C_11
REMARK   10  A    between atoms: C_11  and  C_12
REMARK   11  A    between atoms: C_18  and  OXT_20
REMARK                            x       y       z     vdW  Elec       q    Type
REMARK                         _______ _______ _______ _____ _____    ______ ____
ROOT
ATOM      1  CA  UNL     1       6.887   6.144  17.919  0.00  0.00    +0.000 C 
ENDROOT
BRANCH   1   4
ATOM      2  C   UNL     1       4.838   5.133  18.913  0.00  0.00    +0.000 C 
ATOM      3  O   UNL     1       5.537   4.375  19.590  0.00  0.00    +0.000 OA
ATOM      4  N   UNL     1       5.429   6.002  18.025  0.00  0.00    +0.000 N 
ATOM      5  H   UNL     1       4.810   6.415  17.329  0.00  0.00    +0.000 HD
BRANCH   2   7
ATOM      6  C   UNL     1       2.709   3.884  18.392  0.00  0.00    +0.000 C 
ATOM      7  C   UNL     1       3.288   5.171  18.982  0.00  0.00    +0.000 C 
ATOM      8  C   UNL     1       2.766   6.383  18.199  0.00  0.00    +0.000 C 
BRANCH   7   9
ATOM      9  N   UNL     1       2.871   5.253  20.402  0.00  0.00    +0.000 NA
ATOM     10  H   UNL     1       3.151   4.391  20.878  0.00  0.00    +0.000 HD
ATOM     11  H   UNL     1       1.850   5.261  20.452  0.00  0.00    +0.000 HD
ENDBRANCH   7   9
ENDBRANCH   2   7
ENDBRANCH   1   4
BRANCH   1  12
ATOM     12  C   UNL     1       7.606   4.987  17.182  0.00  0.00    +0.000 C 
ATOM     13  O   UNL     1       8.263   4.113  17.726  0.00  0.00    +0.000 OA
BRANCH  12  14
ATOM     14  OXT UNL     1       7.336   4.944  15.853  0.00  0.00    +0.000 OA
ATOM     15  HXT UNL     1       6.370   5.020  15.655  0.00  0.00    +0.000 HD
ENDBRANCH  12  14
ENDBRANCH   1  12
BRANCH   1  16
ATOM     16  C   UNL     1       7.309   7.527  17.403  0.00  0.00    +0.000 C 
BRANCH  16  17
ATOM     17  C   UNL     1       8.372   8.259  18.230  0.00  0.00    +0.000 C 
BRANCH  17  18
ATOM     18  C   UNL     1       8.256   9.774  18.000  0.00  0.00    +0.000 C 
BRANCH  18  19
ATOM     19  C   UNL     1       9.356  10.567  18.662  0.00  0.00    +0.000 A 
ATOM     20  C   UNL     1      10.409  11.087  17.899  0.00  0.00    +0.000 A 
ATOM     21  C   UNL     1      11.428  11.825  18.504  0.00  0.00    +0.000 A 
ATOM     22  C   UNL     1      11.401  12.055  19.877  0.00  0.00    +0.000 A 
ATOM     23  C   UNL     1      10.348  11.559  20.644  0.00  0.00    +0.000 A 
ATOM     24  C   UNL     1       9.328  10.824  20.040  0.00  0.00    +0.000 A 
ENDBRANCH  18  19
ENDBRANCH  17  18
ENDBRANCH  16  17
ENDBRANCH   1  16
TORSDOF 9
ENDMDL
MODEL 2
REMARK VINA RESULT:      -7.3      0.789      1.252
REMARK  Name = 
REMARK  11 active torsions:
REMARK  status: ('A' for Active; 'I' for Inactive)
REMARK    1  A    between atoms: C_1  and  C_2
REMARK    2  A    between atoms: C_2  and  C_3
REMARK    3  A    between atoms: C_2  and  N_4
REMARK    4  A    between atoms: C_2  and  C_5
REMARK    5  A    between atoms: N_7  and  CA_8
REMARK    6  A    between atoms: CA_8  and  C_9
REMARK    7  A    between atoms: CA_8  and  C_18
REMARK    8  A    between atoms: C_9  and  C_10
REMARK    9  A    between atoms: C_10  and  C_11
REMARK   10  A    between atoms: C_11  and  C_12
REMARK   11  A    between atoms: C_18  and  OXT_20
REMARK                            x       y       z     vdW  Elec       q    Type
REMARK                         _______ _______ _______ _____ _____    ______ ____
ROOT
ATOM      1  CA  UNL     1       6.673   6.165  17.672  0.00  0.00    +0.000 C 
ENDROOT
BRANCH   1   4
ATOM      2  C   UNL     1       4.807   4.893  18.725  0.00  0.00    +0.000 C 
ATOM      3  O   UNL     1       5.621   4.192  19.330  0.00  0.00    +0.000 OA
ATOM      4  N   UNL     1       5.248   5.856  17.847  0.00  0.00    +0.000 N 
ATOM      5  H   UNL     1       4.550   6.224  17.203  0.00  0.00    +0.000 HD
BRANCH   2   7
ATOM      6  C   UNL     1       2.570   5.930  18.190  0.00  0.00    +0.000 C 
ATOM      7  C   UNL     1       3.269   4.754  18.875  0.00  0.00    +0.000 C 
ATOM      8  C   UNL     1       2.896   4.722  20.363  0.00  0.00    +0.000 C 
BRANCH   7   9
ATOM      9  N   UNL     1       2.829   3.507  18.204  0.00  0.00    +0.000 NA
ATOM     10  H   UNL     1       2.699   2.781  18.913  0.00  0.00    +0.000 HD
ATOM     11  H   UNL     1       3.586   3.162  17.609  0.00  0.00    +0.000 HD
ENDBRANCH   7   9
ENDBRANCH   2   7
ENDBRANCH   1   4
BRANCH   1  12
ATOM     12  C   UNL     1       7.432   5.228  16.700  0.00  0.00    +0.000 C 
ATOM     13  O   UNL     1       7.589   5.437  15.508  0.00  0.00    +0.000 OA
BRANCH  12  14
ATOM     14  OXT UNL     1       8.037   4.184  17.320  0.00  0.00    +0.000 OA
ATOM     15  HXT UNL     1       7.548   3.879  18.125  0.00  0.00    +0.000 HD
ENDBRANCH  12  14
ENDBRANCH   1  12
BRANCH   1  16
ATOM     16  C   UNL     1       6.923   7.651  17.380  0.00  0.00    +0.000 C 
BRANCH  16  17
ATOM     17  C   UNL     1       8.148   8.275  18.058  0.00  0.00    +0.000 C 
BRANCH  17  18
ATOM     18  C   UNL     1       8.188   9.784  17.771  0.00  0.00    +0.000 C 
BRANCH  18  19
ATOM     19  C   UNL     1       9.274  10.509  18.526  0.00  0.00    +0.000 A 
ATOM     20  C   UNL     1      10.342  11.098  17.835  0.00  0.00    +0.000 A 
ATOM     21  C   UNL     1      11.348  11.774  18.527  0.00  0.00    +0.000 A 
ATOM     22  C   UNL     1      11.295  11.874  19.915  0.00  0.00    +0.000 A 
ATOM     23  C   UNL     1      10.228  11.309  20.612  0.00  0.00    +0.000 A 
ATOM     24  C   UNL     1       9.220  10.635  19.921  0.00  0.00    +0.000 A 
ENDBRANCH  18  19
ENDBRANCH  17  18
ENDBRANCH  16  17
ENDBRANCH   1  16
TORSDOF 9
ENDMDL
MODEL 3
REMARK VINA RESULT:      -7.2      0.593      1.233
REMARK  Name = 
REMARK  11 active torsions:
REMARK  status: ('A' for Active; 'I' for Inactive)
REMARK    1  A    between atoms: C_1  and  C_2
REMARK    2  A    between atoms: C_2  and  C_3
REMARK    3  A    between atoms: C_2  and  N_4
REMARK    4  A    between atoms: C_2  and  C_5
REMARK    5  A    between atoms: N_7  and  CA_8
REMARK    6  A    between atoms: CA_8  and  C_9
REMARK    7  A    between atoms: CA_8  and  C_18
REMARK    8  A    between atoms: C_9  and  C_10
REMARK    9  A    between atoms: C_10  and  C_11
REMARK   10  A    between atoms: C_11  and  C_12
REMARK   11  A    between atoms: C_18  and  OXT_20
REMARK                            x       y       z     vdW  Elec       q    Type
REMARK                         _______ _______ _______ _____ _____    ______ ____
ROOT
ATOM      1  CA  UNL     1       6.917   6.201  17.712  0.00  0.00    +0.000 C 
ENDROOT
BRANCH   1   4
ATOM      2  C   UNL     1       5.037   5.134  18.952  0.00  0.00    +0.000 C 
ATOM      3  O   UNL     1       5.839   4.425  19.564  0.00  0.00    +0.000 OA
ATOM      4  N   UNL     1       5.487   6.001  17.984  0.00  0.00    +0.000 N 
ATOM      5  H   UNL     1       4.778   6.369  17.352  0.00  0.00    +0.000 HD
BRANCH   2   7
ATOM      6  C   UNL     1       3.118   3.848  19.965  0.00  0.00    +0.000 C 
ATOM      7  C   UNL     1       3.504   5.110  19.193  0.00  0.00    +0.000 C 
ATOM      8  C   UNL     1       2.770   5.142  17.846  0.00  0.00    +0.000 C 
BRANCH   7   9
ATOM      9  N   UNL     1       3.127   6.284  20.016  0.00  0.00    +0.000 NA
ATOM     10  H   UNL     1       2.701   5.954  20.886  0.00  0.00    +0.000 HD
ATOM     11  H   UNL     1       2.385   6.803  19.540  0.00  0.00    +0.000 HD
ENDBRANCH   7   9
ENDBRANCH   2   7
ENDBRANCH   1   4
BRANCH   1  12
ATOM     12  C   UNL     1       7.546   5.178  16.734  0.00  0.00    +0.000 C 
ATOM     13  O   UNL     1       8.091   4.136  17.066  0.00  0.00    +0.000 OA
BRANCH  12  14
ATOM     14  OXT UNL     1       7.327   5.476  15.429  0.00  0.00    +0.000 OA
ATOM     15  HXT UNL     1       7.848   6.258  15.121  0.00  0.00    +0.000 HD
ENDBRANCH  12  14
ENDBRANCH   1  12
BRANCH   1  16
ATOM     16  C   UNL     1       7.251   7.653  17.346  0.00  0.00    +0.000 C 
BRANCH  16  17
ATOM     17  C   UNL     1       8.291   8.350  18.230  0.00  0.00    +0.000 C 
BRANCH  17  18
ATOM     18  C   UNL     1       8.218   9.870  18.020  0.00  0.00    +0.000 C 
BRANCH  18  19
ATOM     19  C   UNL     1       9.365  10.619  18.651  0.00  0.00    +0.000 A 
ATOM     20  C   UNL     1       9.390  10.836  20.035  0.00  0.00    +0.000 A 
ATOM     21  C   UNL     1      10.451  11.524  20.627  0.00  0.00    +0.000 A 
ATOM     22  C   UNL     1      11.500  11.997  19.842  0.00  0.00    +0.000 A 
ATOM     23  C   UNL     1      11.496  11.771  18.467  0.00  0.00    +0.000 A 
ATOM     24  C   UNL     1      10.437  11.080  17.875  0.00  0.00    +0.000 A 
ENDBRANCH  18  19
ENDBRANCH  17  18
ENDBRANCH  16  17
ENDBRANCH   1  16
TORSDOF 9
ENDMDL
MODEL 4
REMARK VINA RESULT:      -7.2      0.835      1.745
REMARK  Name = 
REMARK  11 active torsions:
REMARK  status: ('A' for Active; 'I' for Inactive)
REMARK    1  A    between atoms: C_1  and  C_2
REMARK    2  A    between atoms: C_2  and  C_3
REMARK    3  A    between atoms: C_2  and  N_4
REMARK    4  A    between atoms: C_2  and  C_5
REMARK    5  A    between atoms: N_7  and  CA_8
REMARK    6  A    between atoms: CA_8  and  C_9
REMARK    7  A    between atoms: CA_8  and  C_18
REMARK    8  A    between atoms: C_9  and  C_10
REMARK    9  A    between atoms: C_10  and  C_11
REMARK   10  A    between atoms: C_11  and  C_12
REMARK   11  A    between atoms: C_18  and  OXT_20
REMARK                            x       y       z     vdW  Elec       q    Type
REMARK                         _______ _______ _______ _____ _____    ______ ____
ROOT
ATOM      1  CA  UNL     1       6.746   5.971  17.899  0.00  0.00    +0.000 C 
ENDROOT
BRANCH   1   4
ATOM      2  C   UNL     1       4.882   4.663  18.911  0.00  0.00    +0.000 C 
ATOM      3  O   UNL     1       5.697   3.886  19.415  0.00  0.00    +0.000 OA
ATOM      4  N   UNL     1       5.319   5.689  18.106  0.00  0.00    +0.000 N 
ATOM      5  H   UNL     1       4.608   6.135  17.528  0.00  0.00    +0.000 HD
BRANCH   2   7
ATOM      6  C   UNL     1       2.835   5.780  19.873  0.00  0.00    +0.000 C 
ATOM      7  C   UNL     1       3.347   4.556  19.113  0.00  0.00    +0.000 C 
ATOM      8  C   UNL     1       3.017   3.280  19.899  0.00  0.00    +0.000 C 
BRANCH   7   9
ATOM      9  N   UNL     1       2.687   4.531  17.786  0.00  0.00    +0.000 NA
ATOM     10  H   UNL     1       3.272   4.000  17.137  0.00  0.00    +0.000 HD
ATOM     11  H   UNL     1       2.665   5.480  17.405  0.00  0.00    +0.000 HD
ENDBRANCH   7   9
ENDBRANCH   2   7
ENDBRANCH   1   4
BRANCH   1  12
ATOM     12  C   UNL     1       7.493   4.948  17.009  0.00  0.00    +0.000 C 
ATOM     13  O   UNL     1       7.547   4.989  15.790  0.00  0.00    +0.000 OA
BRANCH  12  14
ATOM     14  OXT UNL     1       8.213   4.042  17.717  0.00  0.00    +0.000 OA
ATOM     15  HXT UNL     1       7.904   3.952  18.653  0.00  0.00    +0.000 HD
ENDBRANCH  12  14
ENDBRANCH   1  12
BRANCH   1  16
ATOM     16  C   UNL     1       7.005   7.424  17.478  0.00  0.00    +0.000 C 
BRANCH  16  17
ATOM     17  C   UNL     1       8.167   8.133  18.182  0.00  0.00    +0.000 C 
BRANCH  17  18
ATOM     18  C   UNL     1       8.237   9.598  17.723  0.00  0.00    +0.000 C 
BRANCH  18  19
ATOM     19  C   UNL     1       9.241  10.421  18.490  0.00  0.00    +0.000 A 
ATOM     20  C   UNL     1       9.168  10.502  19.887  0.00  0.00    +0.000 A 
ATOM     21  C   UNL     1      10.097  11.258  20.604  0.00  0.00    +0.000 A 
ATOM     22  C   UNL     1      11.113  11.934  19.933  0.00  0.00    +0.000 A 
ATOM     23  C   UNL     1      11.208  11.846  18.545  0.00  0.00    +0.000 A 
ATOM     24  C   UNL     1      10.281  11.088  17.828  0.00  0.00    +0.000 A 
ENDBRANCH  18  19
ENDBRANCH  17  18
ENDBRANCH  16  17
ENDBRANCH   1  16
TORSDOF 9
ENDMDL
MODEL 5
REMARK VINA RESULT:      -7.2      4.053      6.436
REMARK  Name = 
REMARK  11 active torsions:
REMARK  status: ('A' for Active; 'I' for Inactive)
REMARK    1  A    between atoms: C_1  and  C_2
REMARK    2  A    between atoms: C_2  and  C_3
REMARK    3  A    between atoms: C_2  and  N_4
REMARK    4  A    between atoms: C_2  and  C_5
REMARK    5  A    between atoms: N_7  and  CA_8
REMARK    6  A    between atoms: CA_8  and  C_9
REMARK    7  A    between atoms: CA_8  and  C_18
REMARK    8  A    between atoms: C_9  and  C_10
REMARK    9  A    between atoms: C_10  and  C_11
REMARK   10  A    between atoms: C_11  and  C_12
REMARK   11  A    between atoms: C_18  and  OXT_20
REMARK                            x       y       z     vdW  Elec       q    Type
REMARK                         _______ _______ _______ _____ _____    ______ ____
ROOT
ATOM      1  CA  UNL     1       6.403   5.426  18.632  0.00  0.00    +0.000 C 
ENDROOT
BRANCH   1   4
ATOM      2  C   UNL     1       4.495   4.000  19.363  0.00  0.00    +0.000 C 
ATOM      3  O   UNL     1       3.752   4.986  19.358  0.00  0.00    +0.000 OA
ATOM      4  N   UNL     1       5.829   4.145  19.065  0.00  0.00    +0.000 N 
ATOM      5  H   UNL     1       6.430   3.363  19.324  0.00  0.00    +0.000 HD
BRANCH   2   7
ATOM      6  C   UNL     1       3.478   1.880  18.449  0.00  0.00    +0.000 C 
ATOM      7  C   UNL     1       4.020   2.563  19.706  0.00  0.00    +0.000 C 
ATOM      8  C   UNL     1       2.924   2.623  20.779  0.00  0.00    +0.000 C 
BRANCH   7   9
ATOM      9  N   UNL     1       5.178   1.776  20.192  0.00  0.00    +0.000 NA
ATOM     10  H   UNL     1       5.849   2.413  20.630  0.00  0.00    +0.000 HD
ATOM     11  H   UNL     1       5.675   1.380  19.391  0.00  0.00    +0.000 HD
ENDBRANCH   7   9
ENDBRANCH   2   7
ENDBRANCH   1   4
BRANCH   1  12
ATOM     12  C   UNL     1       7.669   5.871  19.404  0.00  0.00    +0.000 C 
ATOM     13  O   UNL     1       8.433   6.754  19.045  0.00  0.00    +0.000 OA
BRANCH  12  14
ATOM     14  OXT UNL     1       7.801   5.272  20.614  0.00  0.00    +0.000 OA
ATOM     15  HXT UNL     1       7.533   4.320  20.602  0.00  0.00    +0.000 HD
ENDBRANCH  12  14
ENDBRANCH   1  12
BRANCH   1  16
ATOM     16  C   UNL     1       6.577   5.509  17.109  0.00  0.00    +0.000 C 
BRANCH  16  17
ATOM     17  C   UNL     1       5.289   5.458  16.279  0.00  0.00    +0.000 C 
BRANCH  17  18
ATOM     18  C   UNL     1       5.216   4.126  15.515  0.00  0.00    +0.000 C 
BRANCH  18  19
ATOM     19  C   UNL     1       5.931   4.155  14.188  0.00  0.00    +0.000 A 
ATOM     20  C   UNL     1       5.428   3.433  13.098  0.00  0.00    +0.000 A 
ATOM     21  C   UNL     1       6.083   3.459  11.866  0.00  0.00    +0.000 A 
ATOM     22  C   UNL     1       7.244   4.212  11.709  0.00  0.00    +0.000 A 
ATOM     23  C   UNL     1       7.744   4.949  12.780  0.00  0.00    +0.000 A 
ATOM     24  C   UNL     1       7.089   4.926  14.012  0.00  0.00    +0.000 A 
ENDBRANCH  18  19
ENDBRANCH  17  18
ENDBRANCH  16  17
ENDBRANCH   1  16
TORSDOF 9
ENDMDL
MODEL 6
REMARK VINA RESULT:      -6.9      4.360      5.747
REMARK  Name = 
REMARK  11 active torsions:
REMARK  status: ('A' for Active; 'I' for Inactive)
REMARK    1  A    between atoms: C_1  and  C_2
REMARK    2  A    between atoms: C_2  and  C_3
REMARK    3  A    between atoms: C_2  and  N_4
REMARK    4  A    between atoms: C_2  and  C_5
REMARK    5  A    between atoms: N_7  and  CA_8
REMARK    6  A    between atoms: CA_8  and  C_9
REMARK    7  A    between atoms: CA_8  and  C_18
REMARK    8  A    between atoms: C_9  and  C_10
REMARK    9  A    between atoms: C_10  and  C_11
REMARK   10  A    between atoms: C_11  and  C_12
REMARK   11  A    between atoms: C_18  and  OXT_20
REMARK                            x       y       z     vdW  Elec       q    Type
REMARK                         _______ _______ _______ _____ _____    ______ ____
ROOT
ATOM      1  CA  UNL     1       5.883   5.148  17.945  0.00  0.00    +0.000 C 
ENDROOT
BRANCH   1   4
ATOM      2  C   UNL     1       4.547   3.229  18.803  0.00  0.00    +0.000 C 
ATOM      3  O   UNL     1       5.234   3.205  19.828  0.00  0.00    +0.000 OA
ATOM      4  N   UNL     1       4.837   4.127  17.803  0.00  0.00    +0.000 N 
ATOM      5  H   UNL     1       4.409   3.939  16.898  0.00  0.00    +0.000 HD
BRANCH   2   7
ATOM      6  C   UNL     1       2.591   2.722  17.292  0.00  0.00    +0.000 C 
ATOM      7  C   UNL     1       3.348   2.278  18.545  0.00  0.00    +0.000 C 
ATOM      8  C   UNL     1       2.405   2.296  19.756  0.00  0.00    +0.000 C 
BRANCH   7   9
ATOM      9  N   UNL     1       3.860   0.908  18.309  0.00  0.00    +0.000 NA
ATOM     10  H   UNL     1       3.140   0.366  17.824  0.00  0.00    +0.000 HD
ATOM     11  H   UNL     1       3.984   0.436  19.208  0.00  0.00    +0.000 HD
ENDBRANCH   7   9
ENDBRANCH   2   7
ENDBRANCH   1   4
BRANCH   1  12
ATOM     12  C   UNL     1       7.294   4.710  17.481  0.00  0.00    +0.000 C 
ATOM     13  O   UNL     1       8.170   4.281  18.215  0.00  0.00    +0.000 OA
BRANCH  12  14
ATOM     14  OXT UNL     1       7.445   4.721  16.132  0.00  0.00    +0.000 OA
ATOM     15  HXT UNL     1       7.503   5.635  15.760  0.00  0.00    +0.000 HD
ENDBRANCH  12  14
ENDBRANCH   1  12
BRANCH   1  16
ATOM     16  C   UNL     1       5.463   6.506  17.365  0.00  0.00    +0.000 C 
BRANCH  16  17
ATOM     17  C   UNL     1       3.956   6.729  17.192  0.00  0.00    +0.000 C 
BRANCH  17  18
ATOM     18  C   UNL     1       3.251   6.591  18.551  0.00  0.00    +0.000 C 
BRANCH  18  19
ATOM     19  C   UNL     1       2.315   7.733  18.860  0.00  0.00    +0.000 A 
ATOM     20  C   UNL     1       1.898   8.599  17.841  0.00  0.00    +0.000 A 
ATOM     21  C   UNL     1       1.029   9.655  18.119  0.00  0.00    +0.000 A 
ATOM     22  C   UNL     1       0.563   9.853  19.417  0.00  0.00    +0.000 A 
ATOM     23  C   UNL     1       0.956   8.986  20.435  0.00  0.00    +0.000 A 
ATOM     24  C   UNL     1       1.823   7.928  20.158  0.00  0.00    +0.000 A 
ENDBRANCH  18  19
ENDBRANCH  17  18
ENDBRANCH  16  17
ENDBRANCH   1  16
TORSDOF 9
ENDMDL
MODEL 7
REMARK VINA RESULT:      -6.9      4.327      6.209
REMARK  Name = 
REMARK  11 active torsions:
REMARK  status: ('A' for Active; 'I' for Inactive)
REMARK    1  A    between atoms: C_1  and  C_2
REMARK    2  A    between atoms: C_2  and  C_3
REMARK    3  A    between atoms: C_2  and  N_4
REMARK    4  A    between atoms: C_2  and  C_5
REMARK    5  A    between atoms: N_7  and  CA_8
REMARK    6  A    between atoms: CA_8  and  C_9
REMARK    7  A    between atoms: CA_8  and  C_18
REMARK    8  A    between atoms: C_9  and  C_10
REMARK    9  A    between atoms: C_10  and  C_11
REMARK   10  A    between atoms: C_11  and  C_12
REMARK   11  A    between atoms: C_18  and  OXT_20
REMARK                            x       y       z     vdW  Elec       q    Type
REMARK                         _______ _______ _______ _____ _____    ______ ____
ROOT
ATOM      1  CA  UNL     1       5.699   5.613  18.610  0.00  0.00    +0.000 C 
ENDROOT
BRANCH   1   4
ATOM      2  C   UNL     1       3.370   5.112  19.339  0.00  0.00    +0.000 C 
ATOM      3  O   UNL     1       3.183   6.309  19.575  0.00  0.00    +0.000 OA
ATOM      4  N   UNL     1       4.602   4.682  18.908  0.00  0.00    +0.000 N 
ATOM      5  H   UNL     1       4.770   3.679  18.970  0.00  0.00    +0.000 HD
BRANCH   2   7
ATOM      6  C   UNL     1       1.524   3.825  18.199  0.00  0.00    +0.000 C 
ATOM      7  C   UNL     1       2.283   4.019  19.513  0.00  0.00    +0.000 C 
ATOM      8  C   UNL     1       1.306   4.432  20.622  0.00  0.00    +0.000 C 
BRANCH   7   9
ATOM      9  N   UNL     1       2.941   2.735  19.855  0.00  0.00    +0.000 NA
ATOM     10  H   UNL     1       2.228   2.076  20.180  0.00  0.00    +0.000 HD
ATOM     11  H   UNL     1       3.554   2.877  20.661  0.00  0.00    +0.000 HD
ENDBRANCH   7   9
ENDBRANCH   2   7
ENDBRANCH   1   4
BRANCH   1  12
ATOM     12  C   UNL     1       7.086   5.184  19.147  0.00  0.00    +0.000 C 
ATOM     13  O   UNL     1       7.540   5.492  20.238  0.00  0.00    +0.000 OA
BRANCH  12  14
ATOM     14  OXT UNL     1       7.729   4.305  18.337  0.00  0.00    +0.000 OA
ATOM     15  HXT UNL     1       8.145   4.739  17.552  0.00  0.00    +0.000 HD
ENDBRANCH  12  14
ENDBRANCH   1  12
BRANCH   1  16
ATOM     16  C   UNL     1       5.737   6.025  17.132  0.00  0.00    +0.000 C 
BRANCH  16  17
ATOM     17  C   UNL     1       4.854   5.208  16.181  0.00  0.00    +0.000 C 
BRANCH  17  18
ATOM     18  C   UNL     1       5.625   3.973  15.688  0.00  0.00    +0.000 C 
BRANCH  18  19
ATOM     19  C   UNL     1       6.204   4.139  14.306  0.00  0.00    +0.000 A 
ATOM     20  C   UNL     1       5.641   3.460  13.218  0.00  0.00    +0.000 A 
ATOM     21  C   UNL     1       6.171   3.613  11.935  0.00  0.00    +0.000 A 
ATOM     22  C   UNL     1       7.264   4.450  11.726  0.00  0.00    +0.000 A 
ATOM     23  C   UNL     1       7.821   5.145  12.798  0.00  0.00    +0.000 A 
ATOM     24  C   UNL     1       7.291   4.996  14.080  0.00  0.00    +0.000 A 
ENDBRANCH  18  19
ENDBRANCH  17  18
ENDBRANCH  16  17
ENDBRANCH   1  16
TORSDOF 9
ENDMDL
MODEL 8
REMARK VINA RESULT:      -6.9      4.486      5.882
REMARK  Name = 
REMARK  11 active torsions:
REMARK  status: ('A' for Active; 'I' for Inactive)
REMARK    1  A    between atoms: C_1  and  C_2
REMARK    2  A    between atoms: C_2  and  C_3
REMARK    3  A    between atoms: C_2  and  N_4
REMARK    4  A    between atoms: C_2  and  C_5
REMARK    5  A    between atoms: N_7  and  CA_8
REMARK    6  A    between atoms: CA_8  and  C_9
REMARK    7  A    between atoms: CA_8  and  C_18
REMARK    8  A    between atoms: C_9  and  C_10
REMARK    9  A    between atoms: C_10  and  C_11
REMARK   10  A    between atoms: C_11  and  C_12
REMARK   11  A    between atoms: C_18  and  OXT_20
REMARK                            x       y       z     vdW  Elec       q    Type
REMARK                         _______ _______ _______ _____ _____    ______ ____
ROOT
ATOM      1  CA  UNL     1       5.869   4.951  16.989  0.00  0.00    +0.000 C 
ENDROOT
BRANCH   1   4
ATOM      2  C   UNL     1       4.663   3.344  18.461  0.00  0.00    +0.000 C 
ATOM      3  O   UNL     1       5.452   3.587  19.378  0.00  0.00    +0.000 OA
ATOM      4  N   UNL     1       4.833   3.940  17.234  0.00  0.00    +0.000 N 
ATOM      5  H   UNL     1       4.317   3.521  16.461  0.00  0.00    +0.000 HD
BRANCH   2   7
ATOM      6  C   UNL     1       2.433   2.664  17.497  0.00  0.00    +0.000 C 
ATOM      7  C   UNL     1       3.460   2.372  18.592  0.00  0.00    +0.000 C 
ATOM      8  C   UNL     1       2.811   2.536  19.973  0.00  0.00    +0.000 C 
BRANCH   7   9
ATOM      9  N   UNL     1       3.942   0.982  18.409  0.00  0.00    +0.000 NA
ATOM     10  H   UNL     1       4.203   0.601  19.323  0.00  0.00    +0.000 HD
ATOM     11  H   UNL     1       4.812   0.996  17.872  0.00  0.00    +0.000 HD
ENDBRANCH   7   9
ENDBRANCH   2   7
ENDBRANCH   1   4
BRANCH   1  12
ATOM     12  C   UNL     1       6.378   5.027  15.528  0.00  0.00    +0.000 C 
ATOM     13  O   UNL     1       5.738   4.684  14.546  0.00  0.00    +0.000 OA
BRANCH  12  14
ATOM     14  OXT UNL     1       7.580   5.644  15.408  0.00  0.00    +0.000 OA
ATOM     15  HXT UNL     1       7.511   6.547  15.013  0.00  0.00    +0.000 HD
ENDBRANCH  12  14
ENDBRANCH   1  12
BRANCH   1  16
ATOM     16  C   UNL     1       5.498   6.327  17.560  0.00  0.00    +0.000 C 
BRANCH  16  17
ATOM     17  C   UNL     1       4.088   6.834  17.233  0.00  0.00    +0.000 C 
BRANCH  17  18
ATOM     18  C   UNL     1       3.148   6.553  18.416  0.00  0.00    +0.000 C 
BRANCH  18  19
ATOM     19  C   UNL     1       2.287   7.733  18.792  0.00  0.00    +0.000 A 
ATOM     20  C   UNL     1       1.830   7.883  20.107  0.00  0.00    +0.000 A 
ATOM     21  C   UNL     1       1.036   8.975  20.463  0.00  0.00    +0.000 A 
ATOM     22  C   UNL     1       0.697   9.931  19.509  0.00  0.00    +0.000 A 
ATOM     23  C   UNL     1       1.162   9.803  18.201  0.00  0.00    +0.000 A 
ATOM     24  C   UNL     1       1.958   8.713  17.845  0.00  0.00    +0.000 A 
ENDBRANCH  18  19
ENDBRANCH  17  18
ENDBRANCH  16  17
ENDBRANCH   1  16
TORSDOF 9
ENDMDL
MODEL 9
REMARK VINA RESULT:      -6.9      3.970      7.495
REMARK  Name = 
REMARK  11 active torsions:
REMARK  status: ('A' for Active; 'I' for Inactive)
REMARK    1  A    between atoms: C_1  and  C_2
REMARK    2  A    between atoms: C_2  and  C_3
REMARK    3  A    between atoms: C_2  and  N_4
REMARK    4  A    between atoms: C_2  and  C_5
REMARK    5  A    between atoms: N_7  and  CA_8
REMARK    6  A    between atoms: CA_8  and  C_9
REMARK    7  A    between atoms: CA_8  and  C_18
REMARK    8  A    between atoms: C_9  and  C_10
REMARK    9  A    between atoms: C_10  and  C_11
REMARK   10  A    between atoms: C_11  and  C_12
REMARK   11  A    between atoms: C_18  and  OXT_20
REMARK                            x       y       z     vdW  Elec       q    Type
REMARK                         _______ _______ _______ _____ _____    ______ ____
ROOT
ATOM      1  CA  UNL     1       6.686   5.171  18.440  0.00  0.00    +0.000 C 
ENDROOT
BRANCH   1   4
ATOM      2  C   UNL     1       6.338   4.475  16.074  0.00  0.00    +0.000 C 
ATOM      3  O   UNL     1       5.982   3.356  16.452  0.00  0.00    +0.000 OA
ATOM      4  N   UNL     1       6.749   5.412  16.993  0.00  0.00    +0.000 N 
ATOM      5  H   UNL     1       7.258   6.211  16.617  0.00  0.00    +0.000 HD
BRANCH   2   7
ATOM      6  C   UNL     1       5.317   5.999  14.341  0.00  0.00    +0.000 C 
ATOM      7  C   UNL     1       6.368   4.915  14.586  0.00  0.00    +0.000 C 
ATOM      8  C   UNL     1       6.089   3.705  13.684  0.00  0.00    +0.000 C 
BRANCH   7   9
ATOM      9  N   UNL     1       7.700   5.490  14.281  0.00  0.00    +0.000 NA
ATOM     10  H   UNL     1       8.009   5.140  13.370  0.00  0.00    +0.000 HD
ATOM     11  H   UNL     1       8.384   5.127  14.949  0.00  0.00    +0.000 HD
ENDBRANCH   7   9
ENDBRANCH   2   7
ENDBRANCH   1   4
BRANCH   1  12
ATOM     12  C   UNL     1       7.767   5.902  19.274  0.00  0.00    +0.000 C 
ATOM     13  O   UNL     1       8.349   6.918  18.927  0.00  0.00    +0.000 OA
BRANCH  12  14
ATOM     14  OXT UNL     1       7.935   5.381  20.515  0.00  0.00    +0.000 OA
ATOM     15  HXT UNL     1       7.783   6.044  21.233  0.00  0.00    +0.000 HD
ENDBRANCH  12  14
ENDBRANCH   1  12
BRANCH   1  16
ATOM     16  C   UNL     1       5.273   5.359  19.009  0.00  0.00    +0.000 C 
BRANCH  16  17
ATOM     17  C   UNL     1       4.333   6.258  18.196  0.00  0.00    +0.000 C 
BRANCH  17  18
ATOM     18  C   UNL     1       3.016   6.460  18.962  0.00  0.00    +0.000 C 
BRANCH  18  19
ATOM     19  C   UNL     1       2.259   5.177  19.201  0.00  0.00    +0.000 A 
ATOM     20  C   UNL     1       1.886   4.810  20.500  0.00  0.00    +0.000 A 
ATOM     21  C   UNL     1       1.181   3.626  20.728  0.00  0.00    +0.000 A 
ATOM     22  C   UNL     1       0.838   2.801  19.660  0.00  0.00    +0.000 A 
ATOM     23  C   UNL     1       1.188   3.166  18.361  0.00  0.00    +0.000 A 
ATOM     24  C   UNL     1       1.889   4.350  18.131  0.00  0.00    +0.000 A 
ENDBRANCH  18  19
ENDBRANCH  17  18
ENDBRANCH  16  17
ENDBRANCH   1  16
TORSDOF 9
ENDMDL
