MODEL 1
REMARK VINA RESULT:      -6.8      0.000      0.000
REMARK  Name = 
REMARK  5 active torsions:
REMARK  status: ('A' for Active; 'I' for Inactive)
REMARK    1  A    between atoms: C_1  and  O_2
REMARK    2  A    between atoms: O_2  and  C_3
REMARK    3  A    between atoms: C_8  and  N_9
REMARK    4  A    between atoms: N_12  and  C_13
REMARK    5  A    between atoms: C_13  and  C_14
REMARK                            x       y       z     vdW  Elec       q    Type
REMARK                         _______ _______ _______ _____ _____    ______ ____
ROOT
ATOM      1  N   UNL     1       4.408   5.857  17.197  0.00  0.00    +0.000 N 
ATOM      2  C   UNL     1       4.216   7.299  17.395  0.00  0.00    +0.000 C 
ATOM      3  C   UNL     1       2.704   7.619  17.580  0.00  0.00    +0.000 C 
ATOM      4  N   UNL     1       1.973   6.808  18.588  0.00  0.00    +0.000 NA
ATOM      5  C   UNL     1       2.256   5.376  18.305  0.00  0.00    +0.000 C 
ATOM      6  C   UNL     1       3.755   5.007  18.208  0.00  0.00    +0.000 C 
ENDROOT
BRANCH   1  12
ATOM      7  C   UNL     1       6.703   5.476  16.303  0.00  0.00    +0.000 A 
ATOM      8  C   UNL     1       7.503   4.985  15.253  0.00  0.00    +0.000 A 
ATOM      9  C   UNL     1       6.938   4.315  14.171  0.00  0.00    +0.000 A 
ATOM     10  C   UNL     1       5.566   4.138  14.119  0.00  0.00    +0.000 A 
ATOM     11  C   UNL     1       4.763   4.651  15.141  0.00  0.00    +0.000 A 
ATOM     12  C   UNL     1       5.289   5.337  16.257  0.00  0.00    +0.000 A 
BRANCH   7  14
ATOM     13  C   UNL     1       7.618   5.270  18.501  0.00  0.00    +0.000 C 
ATOM     14  O   UNL     1       7.254   6.098  17.402  0.00  0.00    +0.000 OA
ENDBRANCH   7  14
ENDBRANCH   1  12
BRANCH   4  15
ATOM     15  C   UNL     1       2.381   7.210  19.946  0.00  0.00    +0.000 C 
BRANCH  15  16
ATOM     16  C   UNL     1       1.482   8.275  20.497  0.00  0.00    +0.000 A 
ATOM     17  C   UNL     1       0.940   9.381  19.870  0.00  0.00    +0.000 A 
ATOM     18  N   UNL     1       0.193  10.022  20.825  0.00  0.00    +0.000 N 
ATOM     19  C   UNL     1      -0.542  11.200  20.732  0.00  0.00    +0.000 A 
ATOM     20  C   UNL     1      -1.203  11.654  21.815  0.00  0.00    +0.000 A 
ATOM     21  I   UNL     1      -2.280  13.404  21.750  0.00  0.00    +0.000 I 
ATOM     22  C   UNL     1      -1.130  10.869  23.050  0.00  0.00    +0.000 A 
ATOM     23  C   UNL     1      -0.412   9.731  23.126  0.00  0.00    +0.000 A 
ATOM     24  C   UNL     1       0.296   9.266  21.987  0.00  0.00    +0.000 A 
ATOM     25  N   UNL     1       1.063   8.216  21.812  0.00  0.00    +0.000 NA
ENDBRANCH  15  16
ENDBRANCH   4  15
TORSDOF 4
ENDMDL
MODEL 2
REMARK VINA RESULT:      -6.5      5.206      7.146
REMARK  Name = 
REMARK  5 active torsions:
REMARK  status: ('A' for Active; 'I' for Inactive)
REMARK    1  A    between atoms: C_1  and  O_2
REMARK    2  A    between atoms: O_2  and  C_3
REMARK    3  A    between atoms: C_8  and  N_9
REMARK    4  A    between atoms: N_12  and  C_13
REMARK    5  A    between atoms: C_13  and  C_14
REMARK                            x       y       z     vdW  Elec       q    Type
REMARK                         _______ _______ _______ _____ _____    ______ ____
ROOT
ATOM      1  N   UNL     1       4.542   4.863  17.923  0.00  0.00    +0.000 N 
ATOM      2  C   UNL     1       5.659   4.459  17.060  0.00  0.00    +0.000 C 
ATOM      3  C   UNL     1       6.068   5.634  16.126  0.00  0.00    +0.000 C 
ATOM      4  N   UNL     1       6.305   6.949  16.777  0.00  0.00    +0.000 NA
ATOM      5  C   UNL     1       5.127   7.244  17.637  0.00  0.00    +0.000 C 
ATOM      6  C   UNL     1       4.752   6.131  18.643  0.00  0.00    +0.000 C 
ENDROOT
BRANCH   1  12
ATOM      7  C   UNL     1       3.544   2.788  18.878  0.00  0.00    +0.000 A 
ATOM      8  C   UNL     1       2.401   1.979  19.027  0.00  0.00    +0.000 A 
ATOM      9  C   UNL     1       1.160   2.393  18.552  0.00  0.00    +0.000 A 
ATOM     10  C   UNL     1       1.048   3.614  17.911  0.00  0.00    +0.000 A 
ATOM     11  C   UNL     1       2.183   4.409  17.730  0.00  0.00    +0.000 A 
ATOM     12  C   UNL     1       3.462   4.032  18.194  0.00  0.00    +0.000 A 
BRANCH   7  14
ATOM     13  C   UNL     1       4.798   1.955  20.734  0.00  0.00    +0.000 C 
ATOM     14  O   UNL     1       4.768   2.412  19.387  0.00  0.00    +0.000 OA
ENDBRANCH   7  14
ENDBRANCH   1  12
BRANCH   4  15
ATOM     15  C   UNL     1       7.567   6.912  17.536  0.00  0.00    +0.000 C 
BRANCH  15  16
ATOM     16  C   UNL     1       8.033   8.290  17.894  0.00  0.00    +0.000 A 
ATOM     17  C   UNL     1       7.791   9.493  17.261  0.00  0.00    +0.000 A 
ATOM     18  N   UNL     1       8.448  10.443  18.001  0.00  0.00    +0.000 N 
ATOM     19  C   UNL     1       8.552  11.815  17.791  0.00  0.00    +0.000 A 
ATOM     20  C   UNL     1       9.265  12.565  18.655  0.00  0.00    +0.000 A 
ATOM     21  I   UNL     1       9.482  14.590  18.382  0.00  0.00    +0.000 I 
ATOM     22  C   UNL     1       9.890  11.895  19.799  0.00  0.00    +0.000 A 
ATOM     23  C   UNL     1       9.783  10.565  19.988  0.00  0.00    +0.000 A 
ATOM     24  C   UNL     1       9.045   9.778  19.065  0.00  0.00    +0.000 A 
ATOM     25  N   UNL     1       8.809   8.488  19.020  0.00  0.00    +0.000 NA
ENDBRANCH  15  16
ENDBRANCH   4  15
TORSDOF 4
ENDMDL
MODEL 3
REMARK VINA RESULT:      -6.5      1.010      1.512
REMARK  Name = 
REMARK  5 active torsions:
REMARK  status: ('A' for Active; 'I' for Inactive)
REMARK    1  A    between atoms: C_1  and  O_2
REMARK    2  A    between atoms: O_2  and  C_3
REMARK    3  A    between atoms: C_8  and  N_9
REMARK    4  A    between atoms: N_12  and  C_13
REMARK    5  A    between atoms: C_13  and  C_14
REMARK                            x       y       z     vdW  Elec       q    Type
REMARK                         _______ _______ _______ _____ _____    ______ ____
ROOT
ATOM      1  N   UNL     1       4.305   5.937  17.861  0.00  0.00    +0.000 N 
ATOM      2  C   UNL     1       3.786   7.307  17.766  0.00  0.00    +0.000 C 
ATOM      3  C   UNL     1       2.268   7.330  18.106  0.00  0.00    +0.000 C 
ATOM      4  N   UNL     1       1.859   6.657  19.366  0.00  0.00    +0.000 NA
ATOM      5  C   UNL     1       2.455   5.295  19.363  0.00  0.00    +0.000 C 
ATOM      6  C   UNL     1       3.982   5.245  19.120  0.00  0.00    +0.000 C 
ENDROOT
BRANCH   1  12
ATOM      7  C   UNL     1       6.589   5.657  16.903  0.00  0.00    +0.000 A 
ATOM      8  C   UNL     1       7.388   5.134  15.867  0.00  0.00    +0.000 A 
ATOM      9  C   UNL     1       6.840   4.322  14.877  0.00  0.00    +0.000 A 
ATOM     10  C   UNL     1       5.487   4.033  14.903  0.00  0.00    +0.000 A 
ATOM     11  C   UNL     1       4.682   4.575  15.909  0.00  0.00    +0.000 A 
ATOM     12  C   UNL     1       5.192   5.402  16.933  0.00  0.00    +0.000 A 
BRANCH   7  14
ATOM     13  C   UNL     1       7.655   7.693  17.557  0.00  0.00    +0.000 C 
ATOM     14  O   UNL     1       7.128   6.421  17.915  0.00  0.00    +0.000 OA
ENDBRANCH   7  14
ENDBRANCH   1  12
BRANCH   4  15
ATOM     15  C   UNL     1       2.286   7.461  20.525  0.00  0.00    +0.000 C 
BRANCH  15  16
ATOM     16  C   UNL     1       1.307   8.555  20.825  0.00  0.00    +0.000 A 
ATOM     17  C   UNL     1       0.788   8.963  22.039  0.00  0.00    +0.000 A 
ATOM     18  N   UNL     1      -0.059  10.002  21.752  0.00  0.00    +0.000 N 
ATOM     19  C   UNL     1      -0.857  10.757  22.606  0.00  0.00    +0.000 A 
ATOM     20  C   UNL     1      -1.627  11.739  22.097  0.00  0.00    +0.000 A 
ATOM     21  I   UNL     1      -2.851  12.868  23.303  0.00  0.00    +0.000 I 
ATOM     22  C   UNL     1      -1.576  11.980  20.652  0.00  0.00    +0.000 A 
ATOM     23  C   UNL     1      -0.801  11.238  19.836  0.00  0.00    +0.000 A 
ATOM     24  C   UNL     1      -0.004  10.194  20.377  0.00  0.00    +0.000 A 
ATOM     25  N   UNL     1       0.808   9.338  19.802  0.00  0.00    +0.000 NA
ENDBRANCH  15  16
ENDBRANCH   4  15
TORSDOF 4
ENDMDL
MODEL 4
REMARK VINA RESULT:      -6.5      2.788      4.799
REMARK  Name = 
REMARK  5 active torsions:
REMARK  status: ('A' for Active; 'I' for Inactive)
REMARK    1  A    between atoms: C_1  and  O_2
REMARK    2  A    between atoms: O_2  and  C_3
REMARK    3  A    between atoms: C_8  and  N_9
REMARK    4  A    between atoms: N_12  and  C_13
REMARK    5  A    between atoms: C_13  and  C_14
REMARK                            x       y       z     vdW  Elec       q    Type
REMARK                         _______ _______ _______ _____ _____    ______ ____
ROOT
ATOM      1  N   UNL     1       1.759   8.256  19.623  0.00  0.00    +0.000 N 
ATOM      2  C   UNL     1       1.359   9.506  18.963  0.00  0.00    +0.000 C 
ATOM      3  C   UNL     1      -0.085   9.899  19.389  0.00  0.00    +0.000 C 
ATOM      4  N   UNL     1      -0.365   9.917  20.849  0.00  0.00    +0.000 NA
ATOM      5  C   UNL     1       0.097   8.620  21.411  0.00  0.00    +0.000 C 
ATOM      6  C   UNL     1       1.561   8.243  21.083  0.00  0.00    +0.000 C 
ENDROOT
BRANCH   1  12
ATOM      7  C   UNL     1       2.404   5.868  19.316  0.00  0.00    +0.000 A 
ATOM      8  C   UNL     1       3.208   4.932  18.636  0.00  0.00    +0.000 A 
ATOM      9  C   UNL     1       4.027   5.320  17.579  0.00  0.00    +0.000 A 
ATOM     10  C   UNL     1       4.061   6.650  17.196  0.00  0.00    +0.000 A 
ATOM     11  C   UNL     1       3.292   7.590  17.886  0.00  0.00    +0.000 A 
ATOM     12  C   UNL     1       2.447   7.244  18.964  0.00  0.00    +0.000 A 
BRANCH   7  14
ATOM     13  C   UNL     1       1.218   4.108  20.414  0.00  0.00    +0.000 C 
ATOM     14  O   UNL     1       1.553   5.489  20.332  0.00  0.00    +0.000 OA
ENDBRANCH   7  14
ENDBRANCH   1  12
BRANCH   4  15
ATOM     15  C   UNL     1       0.299  11.075  21.473  0.00  0.00    +0.000 C 
BRANCH  15  16
ATOM     16  C   UNL     1      -0.689  11.977  22.146  0.00  0.00    +0.000 A 
ATOM     17  C   UNL     1      -0.701  13.355  22.240  0.00  0.00    +0.000 A 
ATOM     18  N   UNL     1      -1.825  13.670  22.960  0.00  0.00    +0.000 N 
ATOM     19  C   UNL     1      -2.300  14.915  23.362  0.00  0.00    +0.000 A 
ATOM     20  C   UNL     1      -3.440  14.988  24.078  0.00  0.00    +0.000 A 
ATOM     21  I   UNL     1      -4.176  16.794  24.729  0.00  0.00    +0.000 I 
ATOM     22  C   UNL     1      -4.143  13.740  24.389  0.00  0.00    +0.000 A 
ATOM     23  C   UNL     1      -3.670  12.542  23.995  0.00  0.00    +0.000 A 
ATOM     24  C   UNL     1      -2.460  12.470  23.255  0.00  0.00    +0.000 A 
ATOM     25  N   UNL     1      -1.796  11.443  22.777  0.00  0.00    +0.000 NA
ENDBRANCH  15  16
ENDBRANCH   4  15
TORSDOF 4
ENDMDL
MODEL 5
REMARK VINA RESULT:      -6.5      1.107      1.167
REMARK  Name = 
REMARK  5 active torsions:
REMARK  status: ('A' for Active; 'I' for Inactive)
REMARK    1  A    between atoms: C_1  and  O_2
REMARK    2  A    between atoms: O_2  and  C_3
REMARK    3  A    between atoms: C_8  and  N_9
REMARK    4  A    between atoms: N_12  and  C_13
REMARK    5  A    between atoms: C_13  and  C_14
REMARK                            x       y       z     vdW  Elec       q    Type
REMARK                         _______ _______ _______ _____ _____    ______ ____
ROOT
ATOM      1  N   UNL     1       4.047   6.214  17.949  0.00  0.00    +0.000 N 
ATOM      2  C   UNL     1       3.579   7.594  17.765  0.00  0.00    +0.000 C 
ATOM      3  C   UNL     1       2.062   7.694  18.095  0.00  0.00    +0.000 C 
ATOM      4  N   UNL     1       1.625   7.119  19.394  0.00  0.00    +0.000 NA
ATOM      5  C   UNL     1       2.170   5.738  19.480  0.00  0.00    +0.000 C 
ATOM      6  C   UNL     1       3.695   5.616  19.249  0.00  0.00    +0.000 C 
ENDROOT
BRANCH   1  12
ATOM      7  C   UNL     1       6.113   6.162  16.556  0.00  0.00    +0.000 A 
ATOM      8  C   UNL     1       6.880   5.478  15.593  0.00  0.00    +0.000 A 
ATOM      9  C   UNL     1       6.511   4.212  15.146  0.00  0.00    +0.000 A 
ATOM     10  C   UNL     1       5.365   3.619  15.648  0.00  0.00    +0.000 A 
ATOM     11  C   UNL     1       4.581   4.305  16.579  0.00  0.00    +0.000 A 
ATOM     12  C   UNL     1       4.915   5.589  17.062  0.00  0.00    +0.000 A 
BRANCH   7  14
ATOM     13  C   UNL     1       7.790   7.489  17.624  0.00  0.00    +0.000 C 
ATOM     14  O   UNL     1       6.494   7.394  17.042  0.00  0.00    +0.000 OA
ENDBRANCH   7  14
ENDBRANCH   1  12
BRANCH   4  15
ATOM     15  C   UNL     1       2.079   7.979  20.501  0.00  0.00    +0.000 C 
BRANCH  15  16
ATOM     16  C   UNL     1       1.053   9.013  20.849  0.00  0.00    +0.000 A 
ATOM     17  C   UNL     1       0.416   9.931  20.037  0.00  0.00    +0.000 A 
ATOM     18  N   UNL     1      -0.428  10.634  20.857  0.00  0.00    +0.000 N 
ATOM     19  C   UNL     1      -1.282  11.690  20.555  0.00  0.00    +0.000 A 
ATOM     20  C   UNL     1      -2.025  12.242  21.536  0.00  0.00    +0.000 A 
ATOM     21  I   UNL     1      -3.282  13.825  21.159  0.00  0.00    +0.000 I 
ATOM     22  C   UNL     1      -1.910  11.686  22.887  0.00  0.00    +0.000 A 
ATOM     23  C   UNL     1      -1.076  10.665  23.165  0.00  0.00    +0.000 A 
ATOM     24  C   UNL     1      -0.284  10.099  22.132  0.00  0.00    +0.000 A 
ATOM     25  N   UNL     1       0.598   9.127  22.149  0.00  0.00    +0.000 NA
ENDBRANCH  15  16
ENDBRANCH   4  15
TORSDOF 4
ENDMDL
MODEL 6
REMARK VINA RESULT:      -6.5      1.531      2.261
REMARK  Name = 
REMARK  5 active torsions:
REMARK  status: ('A' for Active; 'I' for Inactive)
REMARK    1  A    between atoms: C_1  and  O_2
REMARK    2  A    between atoms: O_2  and  C_3
REMARK    3  A    between atoms: C_8  and  N_9
REMARK    4  A    between atoms: N_12  and  C_13
REMARK    5  A    between atoms: C_13  and  C_14
REMARK                            x       y       z     vdW  Elec       q    Type
REMARK                         _______ _______ _______ _____ _____    ______ ____
ROOT
ATOM      1  N   UNL     1       4.883   4.785  16.057  0.00  0.00    +0.000 N 
ATOM      2  C   UNL     1       4.290   3.704  16.854  0.00  0.00    +0.000 C 
ATOM      3  C   UNL     1       4.469   3.997  18.371  0.00  0.00    +0.000 C 
ATOM      4  N   UNL     1       4.046   5.342  18.842  0.00  0.00    +0.000 NA
ATOM      5  C   UNL     1       4.684   6.350  17.955  0.00  0.00    +0.000 C 
ATOM      6  C   UNL     1       4.447   6.139  16.441  0.00  0.00    +0.000 C 
ENDROOT
BRANCH   1  12
ATOM      7  C   UNL     1       6.988   4.946  14.732  0.00  0.00    +0.000 A 
ATOM      8  C   UNL     1       7.635   4.736  13.498  0.00  0.00    +0.000 A 
ATOM      9  C   UNL     1       6.985   4.100  12.444  0.00  0.00    +0.000 A 
ATOM     10  C   UNL     1       5.677   3.677  12.605  0.00  0.00    +0.000 A 
ATOM     11  C   UNL     1       5.018   3.910  13.815  0.00  0.00    +0.000 A 
ATOM     12  C   UNL     1       5.635   4.551  14.911  0.00  0.00    +0.000 A 
BRANCH   7  14
ATOM     13  C   UNL     1       7.778   4.748  16.979  0.00  0.00    +0.000 C 
ATOM     14  O   UNL     1       7.636   5.530  15.798  0.00  0.00    +0.000 OA
ENDBRANCH   7  14
ENDBRANCH   1  12
BRANCH   4  15
ATOM     15  C   UNL     1       2.576   5.434  18.841  0.00  0.00    +0.000 C 
BRANCH  15  16
ATOM     16  C   UNL     1       2.108   6.765  19.344  0.00  0.00    +0.000 A 
ATOM     17  C   UNL     1       1.956   7.959  18.666  0.00  0.00    +0.000 A 
ATOM     18  N   UNL     1       1.499   8.860  19.593  0.00  0.00    +0.000 N 
ATOM     19  C   UNL     1       1.206  10.212  19.446  0.00  0.00    +0.000 A 
ATOM     20  C   UNL     1       0.769  10.914  20.511  0.00  0.00    +0.000 A 
ATOM     21  I   UNL     1       0.349  12.921  20.365  0.00  0.00    +0.000 I 
ATOM     22  C   UNL     1       0.606  10.208  21.785  0.00  0.00    +0.000 A 
ATOM     23  C   UNL     1       0.897   8.899  21.914  0.00  0.00    +0.000 A 
ATOM     24  C   UNL     1       1.373   8.169  20.793  0.00  0.00    +0.000 A 
ATOM     25  N   UNL     1       1.732   6.913  20.665  0.00  0.00    +0.000 NA
ENDBRANCH  15  16
ENDBRANCH   4  15
TORSDOF 4
ENDMDL
MODEL 7
REMARK VINA RESULT:      -6.3      1.619      2.396
REMARK  Name = 
REMARK  5 active torsions:
REMARK  status: ('A' for Active; 'I' for Inactive)
REMARK    1  A    between atoms: C_1  and  O_2
REMARK    2  A    between atoms: O_2  and  C_3
REMARK    3  A    between atoms: C_8  and  N_9
REMARK    4  A    between atoms: N_12  and  C_13
REMARK    5  A    between atoms: C_13  and  C_14
REMARK                            x       y       z     vdW  Elec       q    Type
REMARK                         _______ _______ _______ _____ _____    ______ ____
ROOT
ATOM      1  N   UNL     1       3.945   6.212  18.204  0.00  0.00    +0.000 N 
ATOM      2  C   UNL     1       3.419   7.562  17.963  0.00  0.00    +0.000 C 
ATOM      3  C   UNL     1       1.917   7.631  18.364  0.00  0.00    +0.000 C 
ATOM      4  N   UNL     1       1.567   7.122  19.715  0.00  0.00    +0.000 NA
ATOM      5  C   UNL     1       2.166   5.768  19.855  0.00  0.00    +0.000 C 
ATOM      6  C   UNL     1       3.680   5.683  19.553  0.00  0.00    +0.000 C 
ENDROOT
BRANCH   1  12
ATOM      7  C   UNL     1       4.526   4.303  16.709  0.00  0.00    +0.000 A 
ATOM      8  C   UNL     1       5.488   3.691  15.883  0.00  0.00    +0.000 A 
ATOM      9  C   UNL     1       6.699   4.319  15.601  0.00  0.00    +0.000 A 
ATOM     10  C   UNL     1       6.966   5.561  16.149  0.00  0.00    +0.000 A 
ATOM     11  C   UNL     1       6.030   6.161  16.996  0.00  0.00    +0.000 A 
ATOM     12  C   UNL     1       4.791   5.563  17.311  0.00  0.00    +0.000 A 
BRANCH   7  14
ATOM     13  C   UNL     1       3.310   2.502  17.703  0.00  0.00    +0.000 C 
ATOM     14  O   UNL     1       3.305   3.714  16.957  0.00  0.00    +0.000 OA
ENDBRANCH   7  14
ENDBRANCH   1  12
BRANCH   4  15
ATOM     15  C   UNL     1       2.044   8.062  20.744  0.00  0.00    +0.000 C 
BRANCH  15  16
ATOM     16  C   UNL     1       0.995   9.075  21.091  0.00  0.00    +0.000 A 
ATOM     17  C   UNL     1       0.396   9.342  22.306  0.00  0.00    +0.000 A 
ATOM     18  N   UNL     1      -0.489  10.362  22.071  0.00  0.00    +0.000 N 
ATOM     19  C   UNL     1      -1.367  10.994  22.946  0.00  0.00    +0.000 A 
ATOM     20  C   UNL     1      -2.161  11.983  22.488  0.00  0.00    +0.000 A 
ATOM     21  I   UNL     1      -3.500  12.934  23.724  0.00  0.00    +0.000 I 
ATOM     22  C   UNL     1      -2.050  12.362  21.076  0.00  0.00    +0.000 A 
ATOM     23  C   UNL     1      -1.198  11.738  20.240  0.00  0.00    +0.000 A 
ATOM     24  C   UNL     1      -0.376  10.686  20.724  0.00  0.00    +0.000 A 
ATOM     25  N   UNL     1       0.508   9.928  20.119  0.00  0.00    +0.000 NA
ENDBRANCH  15  16
ENDBRANCH   4  15
TORSDOF 4
ENDMDL
MODEL 8
REMARK VINA RESULT:      -6.3      3.039      5.393
REMARK  Name = 
REMARK  5 active torsions:
REMARK  status: ('A' for Active; 'I' for Inactive)
REMARK    1  A    between atoms: C_1  and  O_2
REMARK    2  A    between atoms: O_2  and  C_3
REMARK    3  A    between atoms: C_8  and  N_9
REMARK    4  A    between atoms: N_12  and  C_13
REMARK    5  A    between atoms: C_13  and  C_14
REMARK                            x       y       z     vdW  Elec       q    Type
REMARK                         _______ _______ _______ _____ _____    ______ ____
ROOT
ATOM      1  N   UNL     1       1.456   8.460  20.170  0.00  0.00    +0.000 N 
ATOM      2  C   UNL     1       1.170   8.181  21.583  0.00  0.00    +0.000 C 
ATOM      3  C   UNL     1       1.376   9.466  22.435  0.00  0.00    +0.000 C 
ATOM      4  N   UNL     1       0.697  10.697  21.955  0.00  0.00    +0.000 NA
ATOM      5  C   UNL     1       1.038  10.867  20.517  0.00  0.00    +0.000 C 
ATOM      6  C   UNL     1       0.757   9.636  19.624  0.00  0.00    +0.000 C 
ENDROOT
BRANCH   1  12
ATOM      7  C   UNL     1       2.342   6.196  19.617  0.00  0.00    +0.000 A 
ATOM      8  C   UNL     1       3.154   5.411  18.775  0.00  0.00    +0.000 A 
ATOM      9  C   UNL     1       3.765   5.958  17.650  0.00  0.00    +0.000 A 
ATOM     10  C   UNL     1       3.582   7.299  17.359  0.00  0.00    +0.000 A 
ATOM     11  C   UNL     1       2.805   8.092  18.207  0.00  0.00    +0.000 A 
ATOM     12  C   UNL     1       2.166   7.583  19.358  0.00  0.00    +0.000 A 
BRANCH   7  14
ATOM     13  C   UNL     1       1.351   4.276  20.637  0.00  0.00    +0.000 C 
ATOM     14  O   UNL     1       1.693   5.656  20.706  0.00  0.00    +0.000 OA
ENDBRANCH   7  14
ENDBRANCH   1  12
BRANCH   4  15
ATOM     15  C   UNL     1      -0.754  10.592  22.185  0.00  0.00    +0.000 C 
BRANCH  15  16
ATOM     16  C   UNL     1      -1.327  11.885  22.680  0.00  0.00    +0.000 A 
ATOM     17  C   UNL     1      -2.647  12.255  22.853  0.00  0.00    +0.000 A 
ATOM     18  N   UNL     1      -2.615  13.540  23.330  0.00  0.00    +0.000 N 
ATOM     19  C   UNL     1      -3.667  14.393  23.649  0.00  0.00    +0.000 A 
ATOM     20  C   UNL     1      -3.399  15.635  24.101  0.00  0.00    +0.000 A 
ATOM     21  I   UNL     1      -4.909  16.952  24.559  0.00  0.00    +0.000 I 
ATOM     22  C   UNL     1      -1.995  16.026  24.254  0.00  0.00    +0.000 A 
ATOM     23  C   UNL     1      -0.986  15.191  23.938  0.00  0.00    +0.000 A 
ATOM     24  C   UNL     1      -1.276  13.890  23.446  0.00  0.00    +0.000 A 
ATOM     25  N   UNL     1      -0.487  12.913  23.062  0.00  0.00    +0.000 NA
ENDBRANCH  15  16
ENDBRANCH   4  15
TORSDOF 4
ENDMDL
MODEL 9
REMARK VINA RESULT:      -6.3      5.274      7.217
REMARK  Name = 
REMARK  5 active torsions:
REMARK  status: ('A' for Active; 'I' for Inactive)
REMARK    1  A    between atoms: C_1  and  O_2
REMARK    2  A    between atoms: O_2  and  C_3
REMARK    3  A    between atoms: C_8  and  N_9
REMARK    4  A    between atoms: N_12  and  C_13
REMARK    5  A    between atoms: C_13  and  C_14
REMARK                            x       y       z     vdW  Elec       q    Type
REMARK                         _______ _______ _______ _____ _____    ______ ____
ROOT
ATOM      1  N   UNL     1       4.688   4.902  18.015  0.00  0.00    +0.000 N 
ATOM      2  C   UNL     1       5.829   4.467  17.200  0.00  0.00    +0.000 C 
ATOM      3  C   UNL     1       6.252   5.601  16.221  0.00  0.00    +0.000 C 
ATOM      4  N   UNL     1       6.463   6.946  16.815  0.00  0.00    +0.000 NA
ATOM      5  C   UNL     1       5.262   7.271  17.630  0.00  0.00    +0.000 C 
ATOM      6  C   UNL     1       4.870   6.204  18.679  0.00  0.00    +0.000 C 
ENDROOT
BRANCH   1  12
ATOM      7  C   UNL     1       3.660   2.926  19.134  0.00  0.00    +0.000 A 
ATOM      8  C   UNL     1       2.527   2.105  19.290  0.00  0.00    +0.000 A 
ATOM      9  C   UNL     1       1.320   2.418  18.669  0.00  0.00    +0.000 A 
ATOM     10  C   UNL     1       1.235   3.549  17.877  0.00  0.00    +0.000 A 
ATOM     11  C   UNL     1       2.364   4.352  17.692  0.00  0.00    +0.000 A 
ATOM     12  C   UNL     1       3.607   4.075  18.299  0.00  0.00    +0.000 A 
BRANCH   7  14
ATOM     13  C   UNL     1       4.830   1.612  20.752  0.00  0.00    +0.000 C 
ATOM     14  O   UNL     1       4.846   2.653  19.782  0.00  0.00    +0.000 OA
ENDBRANCH   7  14
ENDBRANCH   1  12
BRANCH   4  15
ATOM     15  C   UNL     1       7.706   6.956  17.606  0.00  0.00    +0.000 C 
BRANCH  15  16
ATOM     16  C   UNL     1       8.111   8.350  17.976  0.00  0.00    +0.000 A 
ATOM     17  C   UNL     1       8.906   8.789  19.016  0.00  0.00    +0.000 A 
ATOM     18  N   UNL     1       8.957  10.154  18.897  0.00  0.00    +0.000 N 
ATOM     19  C   UNL     1       9.601  11.091  19.700  0.00  0.00    +0.000 A 
ATOM     20  C   UNL     1       9.509  12.401  19.393  0.00  0.00    +0.000 A 
ATOM     21  I   UNL     1      10.410  13.835  20.558  0.00  0.00    +0.000 I 
ATOM     22  C   UNL     1       8.740  12.780  18.205  0.00  0.00    +0.000 A 
ATOM     23  C   UNL     1       8.119  11.862  17.438  0.00  0.00    +0.000 A 
ATOM     24  C   UNL     1       8.206  10.486  17.776  0.00  0.00    +0.000 A 
ATOM     25  N   UNL     1       7.690   9.420  17.209  0.00  0.00    +0.000 NA
ENDBRANCH  15  16
ENDBRANCH   4  15
TORSDOF 4
ENDMDL
