MODEL 1
REMARK VINA RESULT:      -7.2      0.000      0.000
REMARK  Name = 
REMARK  6 active torsions:
REMARK  status: ('A' for Active; 'I' for Inactive)
REMARK    1  A    between atoms: C_2  and  C_3
REMARK    2  A    between atoms: C_12  and  O_13
REMARK    3  A    between atoms: O_13  and  C_14
REMARK    4  A    between atoms: C_14  and  C_15
REMARK    5  A    between atoms: C_18  and  C_19
REMARK    6  A    between atoms: C_19  and  C_20
REMARK                            x       y       z     vdW  Elec       q    Type
REMARK                         _______ _______ _______ _____ _____    ______ ____
ROOT
ATOM      1  O   UNL     1       4.113   1.359  17.838  0.00  0.00    +0.000 OA
ATOM      2  C   UNL     1       3.771   2.534  17.966  0.00  0.00    +0.000 C 
ATOM      3  N   UNL     1       4.286   3.533  17.144  0.00  0.00    +0.000 N 
ATOM      4  C   UNL     1       5.071   3.097  16.004  0.00  0.00    +0.000 C 
ATOM      5  C   UNL     1       5.890   4.299  15.620  0.00  0.00    +0.000 C 
ATOM      6  C   UNL     1       4.969   5.484  15.891  0.00  0.00    +0.000 C 
ATOM      7  C   UNL     1       4.042   5.000  17.065  0.00  0.00    +0.000 C 
ENDROOT
BRANCH   2   8
ATOM      8  C   UNL     1       2.821   2.820  19.053  0.00  0.00    +0.000 A 
ATOM      9  C   UNL     1       3.264   2.744  20.381  0.00  0.00    +0.000 A 
ATOM     10  C   UNL     1       2.373   2.999  21.423  0.00  0.00    +0.000 A 
ATOM     11  C   UNL     1       1.064   3.316  21.096  0.00  0.00    +0.000 A 
ATOM     12  N   UNL     1       0.591   3.348  19.832  0.00  0.00    +0.000 NA
ATOM     13  C   UNL     1       1.477   3.068  18.844  0.00  0.00    +0.000 A 
ENDBRANCH   2   8
BRANCH   6  14
ATOM     14  O   UNL     1       5.740   6.627  16.235  0.00  0.00    +0.000 OA
BRANCH  14  15
ATOM     15  C   UNL     1       7.059   6.354  16.685  0.00  0.00    +0.000 C 
BRANCH  15  16
ATOM     16  C   UNL     1       7.160   6.801  18.108  0.00  0.00    +0.000 C 
ATOM     17  C   UNL     1       8.094   6.101  19.069  0.00  0.00    +0.000 C 
ATOM     18  C   UNL     1       8.402   7.496  18.606  0.00  0.00    +0.000 C 
ENDBRANCH  15  16
ENDBRANCH  14  15
ENDBRANCH   6  14
BRANCH   7  19
ATOM     19  C   UNL     1       4.243   5.793  18.380  0.00  0.00    +0.000 C 
BRANCH  19  20
ATOM     20  C   UNL     1       3.201   6.866  18.620  0.00  0.00    +0.000 A 
ATOM     21  C   UNL     1       2.945   7.892  17.706  0.00  0.00    +0.000 A 
ATOM     22  C   UNL     1       2.034   8.898  18.034  0.00  0.00    +0.000 A 
ATOM     23  C   UNL     1       1.389   8.830  19.257  0.00  0.00    +0.000 A 
ATOM     24  N   UNL     1       1.572   7.834  20.145  0.00  0.00    +0.000 NA
ATOM     25  C   UNL     1       2.470   6.880  19.806  0.00  0.00    +0.000 A 
ENDBRANCH  19  20
ENDBRANCH   7  19
TORSDOF 6
ENDMDL
MODEL 2
REMARK VINA RESULT:      -7.0      2.483      6.009
REMARK  Name = 
REMARK  6 active torsions:
REMARK  status: ('A' for Active; 'I' for Inactive)
REMARK    1  A    between atoms: C_2  and  C_3
REMARK    2  A    between atoms: C_12  and  O_13
REMARK    3  A    between atoms: O_13  and  C_14
REMARK    4  A    between atoms: C_14  and  C_15
REMARK    5  A    between atoms: C_18  and  C_19
REMARK    6  A    between atoms: C_19  and  C_20
REMARK                            x       y       z     vdW  Elec       q    Type
REMARK                         _______ _______ _______ _____ _____    ______ ____
ROOT
ATOM      1  O   UNL     1       4.768   7.129  16.821  0.00  0.00    +0.000 OA
ATOM      2  C   UNL     1       3.963   6.670  17.630  0.00  0.00    +0.000 C 
ATOM      3  N   UNL     1       2.934   7.449  18.151  0.00  0.00    +0.000 N 
ATOM      4  C   UNL     1       2.727   8.749  17.539  0.00  0.00    +0.000 C 
ATOM      5  C   UNL     1       1.963   9.540  18.564  0.00  0.00    +0.000 C 
ATOM      6  C   UNL     1       1.048   8.514  19.225  0.00  0.00    +0.000 C 
ATOM      7  C   UNL     1       1.832   7.156  19.109  0.00  0.00    +0.000 C 
ENDROOT
BRANCH   2   8
ATOM      8  C   UNL     1       4.176   5.272  18.036  0.00  0.00    +0.000 A 
ATOM      9  C   UNL     1       3.396   4.266  17.449  0.00  0.00    +0.000 A 
ATOM     10  C   UNL     1       3.576   2.938  17.833  0.00  0.00    +0.000 A 
ATOM     11  C   UNL     1       4.531   2.664  18.799  0.00  0.00    +0.000 A 
ATOM     12  N   UNL     1       5.264   3.612  19.421  0.00  0.00    +0.000 NA
ATOM     13  C   UNL     1       5.044   4.896  19.045  0.00  0.00    +0.000 A 
ENDBRANCH   2   8
BRANCH   6  14
ATOM     14  O   UNL     1       0.792   8.889  20.571  0.00  0.00    +0.000 OA
BRANCH  14  15
ATOM     15  C   UNL     1      -0.145   9.943  20.737  0.00  0.00    +0.000 C 
BRANCH  15  16
ATOM     16  C   UNL     1       0.030  10.500  22.115  0.00  0.00    +0.000 C 
ATOM     17  C   UNL     1      -1.129  11.154  22.831  0.00  0.00    +0.000 C 
ATOM     18  C   UNL     1      -0.612   9.825  23.300  0.00  0.00    +0.000 C 
ENDBRANCH  15  16
ENDBRANCH  14  15
ENDBRANCH   6  14
BRANCH   7  19
ATOM     19  C   UNL     1       2.261   6.570  20.477  0.00  0.00    +0.000 C 
BRANCH  19  20
ATOM     20  C   UNL     1       1.925   5.104  20.654  0.00  0.00    +0.000 A 
ATOM     21  C   UNL     1       1.001   4.434  19.848  0.00  0.00    +0.000 A 
ATOM     22  C   UNL     1       0.675   3.106  20.127  0.00  0.00    +0.000 A 
ATOM     23  C   UNL     1       1.306   2.481  21.189  0.00  0.00    +0.000 A 
ATOM     24  N   UNL     1       2.237   3.076  21.961  0.00  0.00    +0.000 NA
ATOM     25  C   UNL     1       2.523   4.367  21.675  0.00  0.00    +0.000 A 
ENDBRANCH  19  20
ENDBRANCH   7  19
TORSDOF 6
ENDMDL
MODEL 3
REMARK VINA RESULT:      -6.8      0.787      1.242
REMARK  Name = 
REMARK  6 active torsions:
REMARK  status: ('A' for Active; 'I' for Inactive)
REMARK    1  A    between atoms: C_2  and  C_3
REMARK    2  A    between atoms: C_12  and  O_13
REMARK    3  A    between atoms: O_13  and  C_14
REMARK    4  A    between atoms: C_14  and  C_15
REMARK    5  A    between atoms: C_18  and  C_19
REMARK    6  A    between atoms: C_19  and  C_20
REMARK                            x       y       z     vdW  Elec       q    Type
REMARK                         _______ _______ _______ _____ _____    ______ ____
ROOT
ATOM      1  O   UNL     1       4.280   1.590  17.727  0.00  0.00    +0.000 OA
ATOM      2  C   UNL     1       3.889   2.744  17.895  0.00  0.00    +0.000 C 
ATOM      3  N   UNL     1       4.384   3.796  17.128  0.00  0.00    +0.000 N 
ATOM      4  C   UNL     1       5.212   3.439  15.991  0.00  0.00    +0.000 C 
ATOM      5  C   UNL     1       5.992   4.686  15.678  0.00  0.00    +0.000 C 
ATOM      6  C   UNL     1       5.019   5.823  15.974  0.00  0.00    +0.000 C 
ATOM      7  C   UNL     1       4.084   5.255  17.103  0.00  0.00    +0.000 C 
ENDROOT
BRANCH   2   8
ATOM      8  C   UNL     1       2.904   2.948  18.969  0.00  0.00    +0.000 A 
ATOM      9  C   UNL     1       1.580   3.258  18.629  0.00  0.00    +0.000 A 
ATOM     10  C   UNL     1       0.638   3.466  19.635  0.00  0.00    +0.000 A 
ATOM     11  C   UNL     1       1.059   3.362  20.951  0.00  0.00    +0.000 A 
ATOM     12  N   UNL     1       2.335   3.115  21.315  0.00  0.00    +0.000 NA
ATOM     13  C   UNL     1       3.232   2.946  20.312  0.00  0.00    +0.000 A 
ENDBRANCH   2   8
BRANCH   6  14
ATOM     14  O   UNL     1       5.736   6.979  16.383  0.00  0.00    +0.000 OA
BRANCH  14  15
ATOM     15  C   UNL     1       6.601   6.792  17.494  0.00  0.00    +0.000 C 
BRANCH  15  16
ATOM     16  C   UNL     1       7.776   7.701  17.318  0.00  0.00    +0.000 C 
ATOM     17  C   UNL     1       7.725   9.128  17.813  0.00  0.00    +0.000 C 
ATOM     18  C   UNL     1       8.601   8.126  18.507  0.00  0.00    +0.000 C 
ENDBRANCH  15  16
ENDBRANCH  14  15
ENDBRANCH   6  14
BRANCH   7  19
ATOM     19  C   UNL     1       4.223   5.999  18.455  0.00  0.00    +0.000 C 
BRANCH  19  20
ATOM     20  C   UNL     1       3.133   7.018  18.713  0.00  0.00    +0.000 A 
ATOM     21  C   UNL     1       2.847   8.064  17.832  0.00  0.00    +0.000 A 
ATOM     22  C   UNL     1       1.889   9.018  18.179  0.00  0.00    +0.000 A 
ATOM     23  C   UNL     1       1.227   8.879  19.388  0.00  0.00    +0.000 A 
ATOM     24  N   UNL     1       1.439   7.860  20.243  0.00  0.00    +0.000 NA
ATOM     25  C   UNL     1       2.382   6.957  19.886  0.00  0.00    +0.000 A 
ENDBRANCH  19  20
ENDBRANCH   7  19
TORSDOF 6
ENDMDL
MODEL 4
REMARK VINA RESULT:      -6.8      0.890      1.450
REMARK  Name = 
REMARK  6 active torsions:
REMARK  status: ('A' for Active; 'I' for Inactive)
REMARK    1  A    between atoms: C_2  and  C_3
REMARK    2  A    between atoms: C_12  and  O_13
REMARK    3  A    between atoms: O_13  and  C_14
REMARK    4  A    between atoms: C_14  and  C_15
REMARK    5  A    between atoms: C_18  and  C_19
REMARK    6  A    between atoms: C_19  and  C_20
REMARK                            x       y       z     vdW  Elec       q    Type
REMARK                         _______ _______ _______ _____ _____    ______ ____
ROOT
ATOM      1  O   UNL     1       4.045   1.391  17.953  0.00  0.00    +0.000 OA
ATOM      2  C   UNL     1       3.678   2.538  18.206  0.00  0.00    +0.000 C 
ATOM      3  N   UNL     1       4.067   3.615  17.414  0.00  0.00    +0.000 N 
ATOM      4  C   UNL     1       4.740   3.297  16.168  0.00  0.00    +0.000 C 
ATOM      5  C   UNL     1       5.471   4.557  15.794  0.00  0.00    +0.000 C 
ATOM      6  C   UNL     1       4.544   5.679  16.249  0.00  0.00    +0.000 C 
ATOM      7  C   UNL     1       3.765   5.072  17.473  0.00  0.00    +0.000 C 
ENDROOT
BRANCH   2   8
ATOM      8  C   UNL     1       2.840   2.704  19.405  0.00  0.00    +0.000 A 
ATOM      9  C   UNL     1       1.493   3.059  19.250  0.00  0.00    +0.000 A 
ATOM     10  C   UNL     1       0.690   3.233  20.377  0.00  0.00    +0.000 A 
ATOM     11  C   UNL     1       1.269   3.049  21.622  0.00  0.00    +0.000 A 
ATOM     12  N   UNL     1       2.574   2.757  21.809  0.00  0.00    +0.000 NA
ATOM     13  C   UNL     1       3.334   2.623  20.694  0.00  0.00    +0.000 A 
ENDBRANCH   2   8
BRANCH   6  14
ATOM     14  O   UNL     1       5.307   6.826  16.597  0.00  0.00    +0.000 OA
BRANCH  14  15
ATOM     15  C   UNL     1       6.696   6.595  16.781  0.00  0.00    +0.000 C 
BRANCH  15  16
ATOM     16  C   UNL     1       6.991   6.710  18.243  0.00  0.00    +0.000 C 
ATOM     17  C   UNL     1       7.905   5.716  18.922  0.00  0.00    +0.000 C 
ATOM     18  C   UNL     1       8.358   7.133  18.718  0.00  0.00    +0.000 C 
ENDBRANCH  15  16
ENDBRANCH  14  15
ENDBRANCH   6  14
BRANCH   7  19
ATOM     19  C   UNL     1       4.078   5.776  18.817  0.00  0.00    +0.000 C 
BRANCH  19  20
ATOM     20  C   UNL     1       3.029   6.781  19.246  0.00  0.00    +0.000 A 
ATOM     21  C   UNL     1       2.312   6.667  20.440  0.00  0.00    +0.000 A 
ATOM     22  C   UNL     1       1.298   7.582  20.727  0.00  0.00    +0.000 A 
ATOM     23  C   UNL     1       1.051   8.599  19.821  0.00  0.00    +0.000 A 
ATOM     24  N   UNL     1       1.751   8.772  18.682  0.00  0.00    +0.000 NA
ATOM     25  C   UNL     1       2.719   7.863  18.424  0.00  0.00    +0.000 A 
ENDBRANCH  19  20
ENDBRANCH   7  19
TORSDOF 6
ENDMDL
MODEL 5
REMARK VINA RESULT:      -6.8      2.328      5.872
REMARK  Name = 
REMARK  6 active torsions:
REMARK  status: ('A' for Active; 'I' for Inactive)
REMARK    1  A    between atoms: C_2  and  C_3
REMARK    2  A    between atoms: C_12  and  O_13
REMARK    3  A    between atoms: O_13  and  C_14
REMARK    4  A    between atoms: C_14  and  C_15
REMARK    5  A    between atoms: C_18  and  C_19
REMARK    6  A    between atoms: C_19  and  C_20
REMARK                            x       y       z     vdW  Elec       q    Type
REMARK                         _______ _______ _______ _____ _____    ______ ____
ROOT
ATOM      1  O   UNL     1       4.850   6.908  16.641  0.00  0.00    +0.000 OA
ATOM      2  C   UNL     1       4.050   6.508  17.485  0.00  0.00    +0.000 C 
ATOM      3  N   UNL     1       3.078   7.349  18.020  0.00  0.00    +0.000 N 
ATOM      4  C   UNL     1       2.916   8.643  17.383  0.00  0.00    +0.000 C 
ATOM      5  C   UNL     1       2.225   9.494  18.413  0.00  0.00    +0.000 C 
ATOM      6  C   UNL     1       1.282   8.530  19.125  0.00  0.00    +0.000 C 
ATOM      7  C   UNL     1       1.994   7.132  19.018  0.00  0.00    +0.000 C 
ENDROOT
BRANCH   2   8
ATOM      8  C   UNL     1       4.207   5.110  17.918  0.00  0.00    +0.000 A 
ATOM      9  C   UNL     1       3.396   4.124  17.340  0.00  0.00    +0.000 A 
ATOM     10  C   UNL     1       3.523   2.796  17.748  0.00  0.00    +0.000 A 
ATOM     11  C   UNL     1       4.457   2.505  18.729  0.00  0.00    +0.000 A 
ATOM     12  N   UNL     1       5.218   3.436  19.343  0.00  0.00    +0.000 NA
ATOM     13  C   UNL     1       5.050   4.721  18.942  0.00  0.00    +0.000 A 
ENDBRANCH   2   8
BRANCH   6  14
ATOM     14  O   UNL     1       1.088   8.947  20.470  0.00  0.00    +0.000 OA
BRANCH  14  15
ATOM     15  C   UNL     1      -0.159   9.573  20.735  0.00  0.00    +0.000 C 
BRANCH  15  16
ATOM     16  C   UNL     1      -0.575   9.199  22.122  0.00  0.00    +0.000 C 
ATOM     17  C   UNL     1       0.334   9.476  23.297  0.00  0.00    +0.000 C 
ATOM     18  C   UNL     1      -0.932  10.264  23.128  0.00  0.00    +0.000 C 
ENDBRANCH  15  16
ENDBRANCH  14  15
ENDBRANCH   6  14
BRANCH   7  19
ATOM     19  C   UNL     1       2.438   6.556  20.386  0.00  0.00    +0.000 C 
BRANCH  19  20
ATOM     20  C   UNL     1       2.010   5.122  20.620  0.00  0.00    +0.000 A 
ATOM     21  C   UNL     1       2.570   4.316  21.614  0.00  0.00    +0.000 A 
ATOM     22  C   UNL     1       2.191   2.977  21.713  0.00  0.00    +0.000 A 
ATOM     23  C   UNL     1       1.241   2.493  20.829  0.00  0.00    +0.000 A 
ATOM     24  N   UNL     1       0.643   3.249  19.887  0.00  0.00    +0.000 NA
ATOM     25  C   UNL     1       1.040   4.540  19.806  0.00  0.00    +0.000 A 
ENDBRANCH  19  20
ENDBRANCH   7  19
TORSDOF 6
ENDMDL
MODEL 6
REMARK VINA RESULT:      -6.7      2.288      5.248
REMARK  Name = 
REMARK  6 active torsions:
REMARK  status: ('A' for Active; 'I' for Inactive)
REMARK    1  A    between atoms: C_2  and  C_3
REMARK    2  A    between atoms: C_12  and  O_13
REMARK    3  A    between atoms: O_13  and  C_14
REMARK    4  A    between atoms: C_14  and  C_15
REMARK    5  A    between atoms: C_18  and  C_19
REMARK    6  A    between atoms: C_19  and  C_20
REMARK                            x       y       z     vdW  Elec       q    Type
REMARK                         _______ _______ _______ _____ _____    ______ ____
ROOT
ATOM      1  O   UNL     1       5.595   5.352  16.654  0.00  0.00    +0.000 OA
ATOM      2  C   UNL     1       4.646   5.234  17.428  0.00  0.00    +0.000 C 
ATOM      3  N   UNL     1       3.758   6.283  17.652  0.00  0.00    +0.000 N 
ATOM      4  C   UNL     1       3.877   7.434  16.777  0.00  0.00    +0.000 C 
ATOM      5  C   UNL     1       3.206   8.554  17.523  0.00  0.00    +0.000 C 
ATOM      6  C   UNL     1       2.045   7.881  18.249  0.00  0.00    +0.000 C 
ATOM      7  C   UNL     1       2.541   6.410  18.501  0.00  0.00    +0.000 C 
ENDROOT
BRANCH   2   8
ATOM      8  C   UNL     1       4.531   3.942  18.123  0.00  0.00    +0.000 A 
ATOM      9  C   UNL     1       3.671   2.964  17.605  0.00  0.00    +0.000 A 
ATOM     10  C   UNL     1       3.540   1.740  18.258  0.00  0.00    +0.000 A 
ATOM     11  C   UNL     1       4.275   1.540  19.416  0.00  0.00    +0.000 A 
ATOM     12  N   UNL     1       5.074   2.477  19.971  0.00  0.00    +0.000 NA
ATOM     13  C   UNL     1       5.156   3.666  19.325  0.00  0.00    +0.000 A 
ENDBRANCH   2   8
BRANCH   6  14
ATOM     14  O   UNL     1       1.757   8.578  19.452  0.00  0.00    +0.000 OA
BRANCH  14  15
ATOM     15  C   UNL     1       0.903   9.704  19.309  0.00  0.00    +0.000 C 
BRANCH  15  16
ATOM     16  C   UNL     1       0.685  10.291  20.667  0.00  0.00    +0.000 C 
ATOM     17  C   UNL     1      -0.660  10.864  21.050  0.00  0.00    +0.000 C 
ATOM     18  C   UNL     1      -0.184   9.586  21.676  0.00  0.00    +0.000 C 
ENDBRANCH  15  16
ENDBRANCH  14  15
ENDBRANCH   6  14
BRANCH   7  19
ATOM     19  C   UNL     1       2.720   6.066  20.000  0.00  0.00    +0.000 C 
BRANCH  19  20
ATOM     20  C   UNL     1       2.121   4.734  20.404  0.00  0.00    +0.000 A 
ATOM     21  C   UNL     1       1.167   4.066  19.633  0.00  0.00    +0.000 A 
ATOM     22  C   UNL     1       0.593   2.888  20.112  0.00  0.00    +0.000 A 
ATOM     23  C   UNL     1       1.013   2.400  21.338  0.00  0.00    +0.000 A 
ATOM     24  N   UNL     1       1.964   2.988  22.091  0.00  0.00    +0.000 NA
ATOM     25  C   UNL     1       2.493   4.136  21.607  0.00  0.00    +0.000 A 
ENDBRANCH  19  20
ENDBRANCH   7  19
TORSDOF 6
ENDMDL
MODEL 7
REMARK VINA RESULT:      -6.7      2.541      4.670
REMARK  Name = 
REMARK  6 active torsions:
REMARK  status: ('A' for Active; 'I' for Inactive)
REMARK    1  A    between atoms: C_2  and  C_3
REMARK    2  A    between atoms: C_12  and  O_13
REMARK    3  A    between atoms: O_13  and  C_14
REMARK    4  A    between atoms: C_14  and  C_15
REMARK    5  A    between atoms: C_18  and  C_19
REMARK    6  A    between atoms: C_19  and  C_20
REMARK                            x       y       z     vdW  Elec       q    Type
REMARK                         _______ _______ _______ _____ _____    ______ ____
ROOT
ATOM      1  O   UNL     1       6.685   5.506  19.883  0.00  0.00    +0.000 OA
ATOM      2  C   UNL     1       5.834   4.917  19.217  0.00  0.00    +0.000 C 
ATOM      3  N   UNL     1       6.050   4.604  17.877  0.00  0.00    +0.000 N 
ATOM      4  C   UNL     1       7.393   4.812  17.369  0.00  0.00    +0.000 C 
ATOM      5  C   UNL     1       7.230   4.897  15.876  0.00  0.00    +0.000 C 
ATOM      6  C   UNL     1       6.111   3.908  15.563  0.00  0.00    +0.000 C 
ATOM      7  C   UNL     1       5.223   3.898  16.861  0.00  0.00    +0.000 C 
ENDROOT
BRANCH   2   8
ATOM      8  C   UNL     1       4.574   4.599  19.907  0.00  0.00    +0.000 A 
ATOM      9  C   UNL     1       3.624   5.612  20.091  0.00  0.00    +0.000 A 
ATOM     10  C   UNL     1       2.431   5.330  20.755  0.00  0.00    +0.000 A 
ATOM     11  C   UNL     1       2.234   4.039  21.218  0.00  0.00    +0.000 A 
ATOM     12  N   UNL     1       3.149   3.052  21.104  0.00  0.00    +0.000 NA
ATOM     13  C   UNL     1       4.310   3.367  20.478  0.00  0.00    +0.000 A 
ENDBRANCH   2   8
BRANCH   6  14
ATOM     14  O   UNL     1       5.398   4.334  14.411  0.00  0.00    +0.000 OA
BRANCH  14  15
ATOM     15  C   UNL     1       5.908   3.858  13.174  0.00  0.00    +0.000 C 
BRANCH  15  16
ATOM     16  C   UNL     1       4.819   3.095  12.490  0.00  0.00    +0.000 C 
ATOM     17  C   UNL     1       4.368   3.479  11.099  0.00  0.00    +0.000 C 
ATOM     18  C   UNL     1       5.129   2.203  11.315  0.00  0.00    +0.000 C 
ENDBRANCH  15  16
ENDBRANCH  14  15
ENDBRANCH   6  14
BRANCH   7  19
ATOM     19  C   UNL     1       3.796   4.458  16.638  0.00  0.00    +0.000 C 
BRANCH  19  20
ATOM     20  C   UNL     1       2.701   3.629  17.276  0.00  0.00    +0.000 A 
ATOM     21  C   UNL     1       1.450   4.155  17.614  0.00  0.00    +0.000 A 
ATOM     22  C   UNL     1       0.522   3.354  18.282  0.00  0.00    +0.000 A 
ATOM     23  C   UNL     1       0.865   2.043  18.567  0.00  0.00    +0.000 A 
ATOM     24  N   UNL     1       2.041   1.485  18.216  0.00  0.00    +0.000 NA
ATOM     25  C   UNL     1       2.926   2.288  17.582  0.00  0.00    +0.000 A 
ENDBRANCH  19  20
ENDBRANCH   7  19
TORSDOF 6
ENDMDL
MODEL 8
REMARK VINA RESULT:      -6.7      2.325      5.787
REMARK  Name = 
REMARK  6 active torsions:
REMARK  status: ('A' for Active; 'I' for Inactive)
REMARK    1  A    between atoms: C_2  and  C_3
REMARK    2  A    between atoms: C_12  and  O_13
REMARK    3  A    between atoms: O_13  and  C_14
REMARK    4  A    between atoms: C_14  and  C_15
REMARK    5  A    between atoms: C_18  and  C_19
REMARK    6  A    between atoms: C_19  and  C_20
REMARK                            x       y       z     vdW  Elec       q    Type
REMARK                         _______ _______ _______ _____ _____    ______ ____
ROOT
ATOM      1  O   UNL     1       5.037   6.595  16.652  0.00  0.00    +0.000 OA
ATOM      2  C   UNL     1       4.192   6.266  17.484  0.00  0.00    +0.000 C 
ATOM      3  N   UNL     1       3.233   7.166  17.940  0.00  0.00    +0.000 N 
ATOM      4  C   UNL     1       3.144   8.433  17.236  0.00  0.00    +0.000 C 
ATOM      5  C   UNL     1       2.449   9.357  18.197  0.00  0.00    +0.000 C 
ATOM      6  C   UNL     1       1.444   8.464  18.918  0.00  0.00    +0.000 C 
ATOM      7  C   UNL     1       2.107   7.039  18.905  0.00  0.00    +0.000 C 
ENDROOT
BRANCH   2   8
ATOM      8  C   UNL     1       4.280   4.886  17.989  0.00  0.00    +0.000 A 
ATOM      9  C   UNL     1       3.457   3.901  17.426  0.00  0.00    +0.000 A 
ATOM     10  C   UNL     1       3.518   2.592  17.902  0.00  0.00    +0.000 A 
ATOM     11  C   UNL     1       4.402   2.317  18.934  0.00  0.00    +0.000 A 
ATOM     12  N   UNL     1       5.172   3.250  19.533  0.00  0.00    +0.000 NA
ATOM     13  C   UNL     1       5.067   4.519  19.065  0.00  0.00    +0.000 A 
ENDBRANCH   2   8
BRANCH   6  14
ATOM     14  O   UNL     1       1.218   8.954  20.232  0.00  0.00    +0.000 OA
BRANCH  14  15
ATOM     15  C   UNL     1      -0.099   9.424  20.484  0.00  0.00    +0.000 C 
BRANCH  15  16
ATOM     16  C   UNL     1      -0.345  10.599  19.592  0.00  0.00    +0.000 C 
ATOM     17  C   UNL     1      -1.615  10.692  18.778  0.00  0.00    +0.000 C 
ATOM     18  C   UNL     1      -1.401  11.617  19.940  0.00  0.00    +0.000 C 
ENDBRANCH  15  16
ENDBRANCH  14  15
ENDBRANCH   6  14
BRANCH   7  19
ATOM     19  C   UNL     1       2.478   6.516  20.315  0.00  0.00    +0.000 C 
BRANCH  19  20
ATOM     20  C   UNL     1       2.029   5.094  20.585  0.00  0.00    +0.000 A 
ATOM     21  C   UNL     1       1.052   4.449  19.821  0.00  0.00    +0.000 A 
ATOM     22  C   UNL     1       0.624   3.172  20.184  0.00  0.00    +0.000 A 
ATOM     23  C   UNL     1       1.207   2.568  21.285  0.00  0.00    +0.000 A 
ATOM     24  N   UNL     1       2.184   3.136  22.019  0.00  0.00    +0.000 NA
ATOM     25  C   UNL     1       2.570   4.380  21.652  0.00  0.00    +0.000 A 
ENDBRANCH  19  20
ENDBRANCH   7  19
TORSDOF 6
ENDMDL
MODEL 9
REMARK VINA RESULT:      -6.6      2.374      5.881
REMARK  Name = 
REMARK  6 active torsions:
REMARK  status: ('A' for Active; 'I' for Inactive)
REMARK    1  A    between atoms: C_2  and  C_3
REMARK    2  A    between atoms: C_12  and  O_13
REMARK    3  A    between atoms: O_13  and  C_14
REMARK    4  A    between atoms: C_14  and  C_15
REMARK    5  A    between atoms: C_18  and  C_19
REMARK    6  A    between atoms: C_19  and  C_20
REMARK                            x       y       z     vdW  Elec       q    Type
REMARK                         _______ _______ _______ _____ _____    ______ ____
ROOT
ATOM      1  O   UNL     1       4.769   6.967  16.685  0.00  0.00    +0.000 OA
ATOM      2  C   UNL     1       3.958   6.567  17.519  0.00  0.00    +0.000 C 
ATOM      3  N   UNL     1       2.997   7.415  18.062  0.00  0.00    +0.000 N 
ATOM      4  C   UNL     1       2.861   8.722  17.447  0.00  0.00    +0.000 C 
ATOM      5  C   UNL     1       2.179   9.567  18.488  0.00  0.00    +0.000 C 
ATOM      6  C   UNL     1       1.216   8.607  19.179  0.00  0.00    +0.000 C 
ATOM      7  C   UNL     1       1.905   7.200  19.052  0.00  0.00    +0.000 C 
ENDROOT
BRANCH   2   8
ATOM      8  C   UNL     1       4.088   5.159  17.928  0.00  0.00    +0.000 A 
ATOM      9  C   UNL     1       5.039   4.818  18.900  0.00  0.00    +0.000 A 
ATOM     10  C   UNL     1       5.185   3.487  19.289  0.00  0.00    +0.000 A 
ATOM     11  C   UNL     1       4.373   2.541  18.684  0.00  0.00    +0.000 A 
ATOM     12  N   UNL     1       3.483   2.826  17.709  0.00  0.00    +0.000 NA
ATOM     13  C   UNL     1       3.387   4.126  17.334  0.00  0.00    +0.000 A 
ENDBRANCH   2   8
BRANCH   6  14
ATOM     14  O   UNL     1       1.022   9.005  20.530  0.00  0.00    +0.000 OA
BRANCH  14  15
ATOM     15  C   UNL     1      -0.029   9.936  20.741  0.00  0.00    +0.000 C 
BRANCH  15  16
ATOM     16  C   UNL     1       0.108  10.476  22.129  0.00  0.00    +0.000 C 
ATOM     17  C   UNL     1      -1.118  10.771  22.963  0.00  0.00    +0.000 C 
ATOM     18  C   UNL     1      -0.228   9.616  23.322  0.00  0.00    +0.000 C 
ENDBRANCH  15  16
ENDBRANCH  14  15
ENDBRANCH   6  14
BRANCH   7  19
ATOM     19  C   UNL     1       2.331   6.593  20.412  0.00  0.00    +0.000 C 
BRANCH  19  20
ATOM     20  C   UNL     1       1.930   5.145  20.595  0.00  0.00    +0.000 A 
ATOM     21  C   UNL     1       2.496   4.317  21.569  0.00  0.00    +0.000 A 
ATOM     22  C   UNL     1       2.142   2.968  21.620  0.00  0.00    +0.000 A 
ATOM     23  C   UNL     1       1.210   2.495  20.711  0.00  0.00    +0.000 A 
ATOM     24  N   UNL     1       0.606   3.270  19.788  0.00  0.00    +0.000 NA
ATOM     25  C   UNL     1       0.979   4.570  19.753  0.00  0.00    +0.000 A 
ENDBRANCH  19  20
ENDBRANCH   7  19
TORSDOF 6
ENDMDL
