MODEL 1
REMARK VINA RESULT:      -8.4      0.000      0.000
REMARK  Name = 
REMARK  5 active torsions:
REMARK  status: ('A' for Active; 'I' for Inactive)
REMARK    1  A    between atoms: C_1  and  O_2
REMARK    2  A    between atoms: O_2  and  C_3
REMARK    3  A    between atoms: C_6  and  C_7
REMARK    4  A    between atoms: C_12  and  C_13
REMARK    5  A    between atoms: C_13  and  O_15
REMARK                            x       y       z     vdW  Elec       q    Type
REMARK                         _______ _______ _______ _____ _____    ______ ____
ROOT
ATOM      1  C   UNK     1       2.805   6.797  18.182  0.00  0.00    +0.000 A 
ATOM      2  N   UNK     1       2.187   5.695  18.656  0.00  0.00    +0.000 NA
ATOM      3  N   UNK     1       3.046   4.694  18.431  0.00  0.00    +0.000 N 
ATOM      4  C   UNK     1       3.170   3.680  19.385  0.00  0.00    +0.000 A 
ATOM      5  N   UNK     1       4.134   2.783  19.363  0.00  0.00    +0.000 NA
ATOM      6  C   UNK     1       4.123   2.087  20.576  0.00  0.00    +0.000 A 
ATOM      7  C   UNK     1       3.125   2.458  21.458  0.00  0.00    +0.000 A 
ATOM      8  S   UNK     1       2.164   3.696  20.771  0.00  0.00    +0.000 S 
ATOM      9  C   UNK     1       3.847   4.976  17.351  0.00  0.00    +0.000 A 
ATOM     10  C   UNK     1       4.605   4.119  16.543  0.00  0.00    +0.000 A 
ATOM     11  C   UNK     1       5.539   4.704  15.701  0.00  0.00    +0.000 A 
ATOM     12  C   UNK     1       5.718   6.087  15.710  0.00  0.00    +0.000 A 
ATOM     13  C   UNK     1       4.901   6.941  16.493  0.00  0.00    +0.000 A 
ATOM     14  C   UNK     1       3.882   6.382  17.302  0.00  0.00    +0.000 A 
ENDROOT
BRANCH   1  18
ATOM     15  C   UNK     1       0.373   9.954  19.701  0.00  0.00    +0.000 A 
ATOM     16  C   UNK     1       0.906   8.977  20.527  0.00  0.00    +0.000 A 
ATOM     17  C   UNK     1       1.829   8.072  20.019  0.00  0.00    +0.000 A 
ATOM     18  C   UNK     1       2.198   8.052  18.653  0.00  0.00    +0.000 A 
ATOM     19  C   UNK     1       1.728   9.088  17.846  0.00  0.00    +0.000 A 
ATOM     20  C   UNK     1       0.818  10.040  18.376  0.00  0.00    +0.000 A 
BRANCH  15  22
ATOM     21  C   UNK     1      -0.374  11.127  21.631  0.00  0.00    +0.000 C 
ATOM     22  O   UNK     1      -0.606  10.688  20.305  0.00  0.00    +0.000 OA
ENDBRANCH  15  22
ENDBRANCH   1  18
BRANCH   6  23
ATOM     23  C   UNK     1       5.142   1.077  20.838  0.00  0.00    +0.000 C 
ATOM     24  O   UNK     1       5.792   0.990  21.867  0.00  0.00    +0.000 OA
BRANCH  23  25
ATOM     25  O   UNK     1       5.291   0.228  19.787  0.00  0.00    +0.000 OA
ATOM     26  H   UNK     1       5.748   0.722  19.068  0.00  0.00    +0.000 HD
ENDBRANCH  23  25
ENDBRANCH   6  23
TORSDOF 4
ENDMDL
MODEL 2
REMARK VINA RESULT:      -8.3      3.015      7.178
REMARK  Name = 
REMARK  5 active torsions:
REMARK  status: ('A' for Active; 'I' for Inactive)
REMARK    1  A    between atoms: C_1  and  O_2
REMARK    2  A    between atoms: O_2  and  C_3
REMARK    3  A    between atoms: C_6  and  C_7
REMARK    4  A    between atoms: C_12  and  C_13
REMARK    5  A    between atoms: C_13  and  O_15
REMARK                            x       y       z     vdW  Elec       q    Type
REMARK                         _______ _______ _______ _____ _____    ______ ____
ROOT
ATOM      1  C   UNK     1       3.875   4.383  18.182  0.00  0.00    +0.000 A 
ATOM      2  N   UNK     1       2.969   5.343  17.902  0.00  0.00    +0.000 NA
ATOM      3  N   UNK     1       2.288   5.517  19.041  0.00  0.00    +0.000 N 
ATOM      4  C   UNK     1       1.896   6.809  19.405  0.00  0.00    +0.000 A 
ATOM      5  N   UNK     1       1.424   7.110  20.597  0.00  0.00    +0.000 NA
ATOM      6  C   UNK     1       1.375   8.502  20.718  0.00  0.00    +0.000 A 
ATOM      7  C   UNK     1       1.773   9.205  19.596  0.00  0.00    +0.000 A 
ATOM      8  S   UNK     1       2.218   8.119  18.351  0.00  0.00    +0.000 S 
ATOM      9  C   UNK     1       2.289   4.364  19.789  0.00  0.00    +0.000 A 
ATOM     10  C   UNK     1       1.440   3.963  20.826  0.00  0.00    +0.000 A 
ATOM     11  C   UNK     1       1.844   2.878  21.591  0.00  0.00    +0.000 A 
ATOM     12  C   UNK     1       3.066   2.259  21.335  0.00  0.00    +0.000 A 
ATOM     13  C   UNK     1       3.884   2.645  20.243  0.00  0.00    +0.000 A 
ATOM     14  C   UNK     1       3.462   3.695  19.392  0.00  0.00    +0.000 A 
ENDROOT
BRANCH   1  18
ATOM     15  C   UNK     1       6.940   4.968  15.275  0.00  0.00    +0.000 A 
ATOM     16  C   UNK     1       7.119   5.306  16.607  0.00  0.00    +0.000 A 
ATOM     17  C   UNK     1       6.164   4.940  17.547  0.00  0.00    +0.000 A 
ATOM     18  C   UNK     1       4.956   4.296  17.187  0.00  0.00    +0.000 A 
ATOM     19  C   UNK     1       4.818   3.881  15.863  0.00  0.00    +0.000 A 
ATOM     20  C   UNK     1       5.816   4.216  14.910  0.00  0.00    +0.000 A 
BRANCH  15  22
ATOM     21  C   UNK     1       7.822   5.189  13.077  0.00  0.00    +0.000 C 
ATOM     22  O   UNK     1       7.895   5.497  14.457  0.00  0.00    +0.000 OA
ENDBRANCH  15  22
ENDBRANCH   1  18
BRANCH   6  23
ATOM     23  C   UNK     1       0.951   9.103  21.977  0.00  0.00    +0.000 C 
ATOM     24  O   UNK     1      -0.203   9.372  22.270  0.00  0.00    +0.000 OA
BRANCH  23  25
ATOM     25  O   UNK     1       2.004   9.336  22.805  0.00  0.00    +0.000 OA
ATOM     26  H   UNK     1       1.875   8.786  23.611  0.00  0.00    +0.000 HD
ENDBRANCH  23  25
ENDBRANCH   6  23
TORSDOF 4
ENDMDL
MODEL 3
REMARK VINA RESULT:      -8.2      3.062      7.192
REMARK  Name = 
REMARK  5 active torsions:
REMARK  status: ('A' for Active; 'I' for Inactive)
REMARK    1  A    between atoms: C_1  and  O_2
REMARK    2  A    between atoms: O_2  and  C_3
REMARK    3  A    between atoms: C_6  and  C_7
REMARK    4  A    between atoms: C_12  and  C_13
REMARK    5  A    between atoms: C_13  and  O_15
REMARK                            x       y       z     vdW  Elec       q    Type
REMARK                         _______ _______ _______ _____ _____    ______ ____
ROOT
ATOM      1  C   UNK     1       3.869   5.241  18.545  0.00  0.00    +0.000 A 
ATOM      2  N   UNK     1       2.933   6.184  18.315  0.00  0.00    +0.000 NA
ATOM      3  N   UNK     1       2.118   6.126  19.374  0.00  0.00    +0.000 N 
ATOM      4  C   UNK     1       1.593   7.315  19.892  0.00  0.00    +0.000 A 
ATOM      5  N   UNK     1       0.971   7.384  21.050  0.00  0.00    +0.000 NA
ATOM      6  C   UNK     1       0.805   8.731  21.388  0.00  0.00    +0.000 A 
ATOM      7  C   UNK     1       1.274   9.634  20.451  0.00  0.00    +0.000 A 
ATOM      8  S   UNK     1       1.934   8.800  19.111  0.00  0.00    +0.000 S 
ATOM      9  C   UNK     1       2.120   4.866  19.921  0.00  0.00    +0.000 A 
ATOM     10  C   UNK     1       1.192   4.249  20.768  0.00  0.00    +0.000 A 
ATOM     11  C   UNK     1       1.587   3.074  21.391  0.00  0.00    +0.000 A 
ATOM     12  C   UNK     1       2.872   2.575  21.190  0.00  0.00    +0.000 A 
ATOM     13  C   UNK     1       3.777   3.183  20.283  0.00  0.00    +0.000 A 
ATOM     14  C   UNK     1       3.376   4.338  19.568  0.00  0.00    +0.000 A 
ENDROOT
BRANCH   1  18
ATOM     15  C   UNK     1       6.884   5.168  15.528  0.00  0.00    +0.000 A 
ATOM     16  C   UNK     1       5.712   5.891  15.376  0.00  0.00    +0.000 A 
ATOM     17  C   UNK     1       4.839   6.027  16.448  0.00  0.00    +0.000 A 
ATOM     18  C   UNK     1       5.059   5.382  17.689  0.00  0.00    +0.000 A 
ATOM     19  C   UNK     1       6.278   4.729  17.868  0.00  0.00    +0.000 A 
ATOM     20  C   UNK     1       7.190   4.628  16.784  0.00  0.00    +0.000 A 
BRANCH  15  22
ATOM     21  C   UNK     1       6.908   4.408  13.275  0.00  0.00    +0.000 C 
ATOM     22  O   UNK     1       7.576   5.020  14.362  0.00  0.00    +0.000 OA
ENDBRANCH  15  22
ENDBRANCH   1  18
BRANCH   6  23
ATOM     23  C   UNK     1       0.200   9.086  22.666  0.00  0.00    +0.000 C 
ATOM     24  O   UNK     1       0.719   9.799  23.511  0.00  0.00    +0.000 OA
BRANCH  23  25
ATOM     25  O   UNK     1      -1.027   8.522  22.817  0.00  0.00    +0.000 OA
ATOM     26  H   UNK     1      -1.595   8.845  22.079  0.00  0.00    +0.000 HD
ENDBRANCH  23  25
ENDBRANCH   6  23
TORSDOF 4
ENDMDL
MODEL 4
REMARK VINA RESULT:      -7.7      0.649      1.149
REMARK  Name = 
REMARK  5 active torsions:
REMARK  status: ('A' for Active; 'I' for Inactive)
REMARK    1  A    between atoms: C_1  and  O_2
REMARK    2  A    between atoms: O_2  and  C_3
REMARK    3  A    between atoms: C_6  and  C_7
REMARK    4  A    between atoms: C_12  and  C_13
REMARK    5  A    between atoms: C_13  and  O_15
REMARK                            x       y       z     vdW  Elec       q    Type
REMARK                         _______ _______ _______ _____ _____    ______ ____
ROOT
ATOM      1  C   UNK     1       2.636   6.689  18.273  0.00  0.00    +0.000 A 
ATOM      2  N   UNK     1       2.075   5.535  18.690  0.00  0.00    +0.000 NA
ATOM      3  N   UNK     1       3.018   4.606  18.503  0.00  0.00    +0.000 N 
ATOM      4  C   UNK     1       3.159   3.584  19.447  0.00  0.00    +0.000 A 
ATOM      5  N   UNK     1       4.187   2.761  19.470  0.00  0.00    +0.000 NA
ATOM      6  C   UNK     1       4.155   2.041  20.669  0.00  0.00    +0.000 A 
ATOM      7  C   UNK     1       3.079   2.318  21.492  0.00  0.00    +0.000 A 
ATOM      8  S   UNK     1       2.072   3.496  20.766  0.00  0.00    +0.000 S 
ATOM      9  C   UNK     1       3.861   4.968  17.480  0.00  0.00    +0.000 A 
ATOM     10  C   UNK     1       4.729   4.187  16.708  0.00  0.00    +0.000 A 
ATOM     11  C   UNK     1       5.667   4.857  15.936  0.00  0.00    +0.000 A 
ATOM     12  C   UNK     1       5.741   6.248  15.978  0.00  0.00    +0.000 A 
ATOM     13  C   UNK     1       4.815   7.023  16.722  0.00  0.00    +0.000 A 
ATOM     14  C   UNK     1       3.793   6.373  17.456  0.00  0.00    +0.000 A 
ENDROOT
BRANCH   1  18
ATOM     15  C   UNK     1       1.270  10.540  19.497  0.00  0.00    +0.000 A 
ATOM     16  C   UNK     1       1.581  10.258  18.176  0.00  0.00    +0.000 A 
ATOM     17  C   UNK     1       1.854   8.951  17.795  0.00  0.00    +0.000 A 
ATOM     18  C   UNK     1       1.908   7.886  18.726  0.00  0.00    +0.000 A 
ATOM     19  C   UNK     1       1.510   8.156  20.035  0.00  0.00    +0.000 A 
ATOM     20  C   UNK     1       1.187   9.485  20.415  0.00  0.00    +0.000 A 
BRANCH  15  22
ATOM     21  C   UNK     1       0.522  12.266  20.953  0.00  0.00    +0.000 C 
ATOM     22  O   UNK     1       1.146  11.876  19.743  0.00  0.00    +0.000 OA
ENDBRANCH  15  22
ENDBRANCH   1  18
BRANCH   6  23
ATOM     23  C   UNK     1       5.228   1.104  20.978  0.00  0.00    +0.000 C 
ATOM     24  O   UNK     1       5.834   1.058  22.037  0.00  0.00    +0.000 OA
BRANCH  23  25
ATOM     25  O   UNK     1       5.486   0.272  19.934  0.00  0.00    +0.000 OA
ATOM     26  H   UNK     1       4.643  -0.180  19.700  0.00  0.00    +0.000 HD
ENDBRANCH  23  25
ENDBRANCH   6  23
TORSDOF 4
ENDMDL
MODEL 5
REMARK VINA RESULT:      -7.6      3.106      4.570
REMARK  Name = 
REMARK  5 active torsions:
REMARK  status: ('A' for Active; 'I' for Inactive)
REMARK    1  A    between atoms: C_1  and  O_2
REMARK    2  A    between atoms: O_2  and  C_3
REMARK    3  A    between atoms: C_6  and  C_7
REMARK    4  A    between atoms: C_12  and  C_13
REMARK    5  A    between atoms: C_13  and  O_15
REMARK                            x       y       z     vdW  Elec       q    Type
REMARK                         _______ _______ _______ _____ _____    ______ ____
ROOT
ATOM      1  C   UNK     1       2.679   6.004  19.004  0.00  0.00    +0.000 A 
ATOM      2  N   UNK     1       3.952   6.052  18.561  0.00  0.00    +0.000 NA
ATOM      3  N   UNK     1       4.100   4.952  17.814  0.00  0.00    +0.000 N 
ATOM      4  C   UNK     1       4.863   5.023  16.645  0.00  0.00    +0.000 A 
ATOM      5  N   UNK     1       4.884   4.069  15.739  0.00  0.00    +0.000 NA
ATOM      6  C   UNK     1       5.527   4.554  14.595  0.00  0.00    +0.000 A 
ATOM      7  C   UNK     1       6.005   5.848  14.693  0.00  0.00    +0.000 A 
ATOM      8  S   UNK     1       5.659   6.485  16.243  0.00  0.00    +0.000 S 
ATOM      9  C   UNK     1       3.251   3.959  18.240  0.00  0.00    +0.000 A 
ATOM     10  C   UNK     1       3.301   2.577  18.024  0.00  0.00    +0.000 A 
ATOM     11  C   UNK     1       2.162   1.846  18.331  0.00  0.00    +0.000 A 
ATOM     12  C   UNK     1       1.021   2.496  18.799  0.00  0.00    +0.000 A 
ATOM     13  C   UNK     1       1.010   3.888  19.066  0.00  0.00    +0.000 A 
ATOM     14  C   UNK     1       2.182   4.650  18.841  0.00  0.00    +0.000 A 
ENDROOT
BRANCH   1  18
ATOM     15  C   UNK     1       0.546   9.345  20.577  0.00  0.00    +0.000 A 
ATOM     16  C   UNK     1       0.825   8.226  21.345  0.00  0.00    +0.000 A 
ATOM     17  C   UNK     1       1.667   7.240  20.848  0.00  0.00    +0.000 A 
ATOM     18  C   UNK     1       2.201   7.290  19.539  0.00  0.00    +0.000 A 
ATOM     19  C   UNK     1       1.991   8.456  18.802  0.00  0.00    +0.000 A 
ATOM     20  C   UNK     1       1.164   9.484  19.328  0.00  0.00    +0.000 A 
BRANCH  15  22
ATOM     21  C   UNK     1      -0.519  10.132  22.553  0.00  0.00    +0.000 C 
ATOM     22  O   UNK     1      -0.388  10.163  21.144  0.00  0.00    +0.000 OA
ENDBRANCH  15  22
ENDBRANCH   1  18
BRANCH   6  23
ATOM     23  C   UNK     1       5.624   3.712  13.409  0.00  0.00    +0.000 C 
ATOM     24  O   UNK     1       4.707   3.485  12.635  0.00  0.00    +0.000 OA
BRANCH  23  25
ATOM     25  O   UNK     1       6.872   3.195  13.258  0.00  0.00    +0.000 OA
ATOM     26  H   UNK     1       6.778   2.312  12.832  0.00  0.00    +0.000 HD
ENDBRANCH  23  25
ENDBRANCH   6  23
TORSDOF 4
ENDMDL
MODEL 6
REMARK VINA RESULT:      -7.4      2.501      4.373
REMARK  Name = 
REMARK  5 active torsions:
REMARK  status: ('A' for Active; 'I' for Inactive)
REMARK    1  A    between atoms: C_1  and  O_2
REMARK    2  A    between atoms: O_2  and  C_3
REMARK    3  A    between atoms: C_6  and  C_7
REMARK    4  A    between atoms: C_12  and  C_13
REMARK    5  A    between atoms: C_13  and  O_15
REMARK                            x       y       z     vdW  Elec       q    Type
REMARK                         _______ _______ _______ _____ _____    ______ ____
ROOT
ATOM      1  C   UNK     1       2.211   6.667  19.923  0.00  0.00    +0.000 A 
ATOM      2  N   UNK     1       3.475   6.861  19.493  0.00  0.00    +0.000 NA
ATOM      3  N   UNK     1       3.876   5.664  19.051  0.00  0.00    +0.000 N 
ATOM      4  C   UNK     1       4.679   5.597  17.908  0.00  0.00    +0.000 A 
ATOM      5  N   UNK     1       4.938   4.473  17.273  0.00  0.00    +0.000 NA
ATOM      6  C   UNK     1       5.541   4.781  16.049  0.00  0.00    +0.000 A 
ATOM      7  C   UNK     1       5.753   6.128  15.820  0.00  0.00    +0.000 A 
ATOM      8  S   UNK     1       5.200   7.044  17.155  0.00  0.00    +0.000 S 
ATOM      9  C   UNK     1       3.212   4.656  19.707  0.00  0.00    +0.000 A 
ATOM     10  C   UNK     1       3.540   3.303  19.848  0.00  0.00    +0.000 A 
ATOM     11  C   UNK     1       2.549   2.456  20.322  0.00  0.00    +0.000 A 
ATOM     12  C   UNK     1       1.278   2.956  20.600  0.00  0.00    +0.000 A 
ATOM     13  C   UNK     1       0.983   4.340  20.505  0.00  0.00    +0.000 A 
ATOM     14  C   UNK     1       1.996   5.243  20.104  0.00  0.00    +0.000 A 
ENDROOT
BRANCH   1  18
ATOM     15  C   UNK     1       0.793  10.665  20.365  0.00  0.00    +0.000 A 
ATOM     16  C   UNK     1       1.190  10.160  19.137  0.00  0.00    +0.000 A 
ATOM     17  C   UNK     1       1.479   8.808  19.008  0.00  0.00    +0.000 A 
ATOM     18  C   UNK     1       1.463   7.921  20.111  0.00  0.00    +0.000 A 
ATOM     19  C   UNK     1       0.980   8.412  21.324  0.00  0.00    +0.000 A 
ATOM     20  C   UNK     1       0.642   9.786  21.445  0.00  0.00    +0.000 A 
BRANCH  15  22
ATOM     21  C   UNK     1       1.558  12.771  19.566  0.00  0.00    +0.000 C 
ATOM     22  O   UNK     1       0.662  12.023  20.367  0.00  0.00    +0.000 OA
ENDBRANCH  15  22
ENDBRANCH   1  18
BRANCH   6  23
ATOM     23  C   UNK     1       5.868   3.710  15.115  0.00  0.00    +0.000 C 
ATOM     24  O   UNK     1       6.164   3.871  13.942  0.00  0.00    +0.000 OA
BRANCH  23  25
ATOM     25  O   UNK     1       5.804   2.488  15.708  0.00  0.00    +0.000 OA
ATOM     26  H   UNK     1       6.321   1.861  15.151  0.00  0.00    +0.000 HD
ENDBRANCH  23  25
ENDBRANCH   6  23
TORSDOF 4
ENDMDL
MODEL 7
REMARK VINA RESULT:      -7.4      2.988      7.100
REMARK  Name = 
REMARK  5 active torsions:
REMARK  status: ('A' for Active; 'I' for Inactive)
REMARK    1  A    between atoms: C_1  and  O_2
REMARK    2  A    between atoms: O_2  and  C_3
REMARK    3  A    between atoms: C_6  and  C_7
REMARK    4  A    between atoms: C_12  and  C_13
REMARK    5  A    between atoms: C_13  and  O_15
REMARK                            x       y       z     vdW  Elec       q    Type
REMARK                         _______ _______ _______ _____ _____    ______ ____
ROOT
ATOM      1  C   UNK     1       3.486   5.082  17.965  0.00  0.00    +0.000 A 
ATOM      2  N   UNK     1       2.490   5.992  17.946  0.00  0.00    +0.000 NA
ATOM      3  N   UNK     1       2.011   6.006  19.195  0.00  0.00    +0.000 N 
ATOM      4  C   UNK     1       1.615   7.224  19.755  0.00  0.00    +0.000 A 
ATOM      5  N   UNK     1       1.344   7.375  21.035  0.00  0.00    +0.000 NA
ATOM      6  C   UNK     1       1.234   8.742  21.309  0.00  0.00    +0.000 A 
ATOM      7  C   UNK     1       1.387   9.575  20.216  0.00  0.00    +0.000 A 
ATOM      8  S   UNK     1       1.668   8.648  18.806  0.00  0.00    +0.000 S 
ATOM      9  C   UNK     1       2.212   4.792  19.806  0.00  0.00    +0.000 A 
ATOM     10  C   UNK     1       1.585   4.231  20.925  0.00  0.00    +0.000 A 
ATOM     11  C   UNK     1       2.180   3.113  21.491  0.00  0.00    +0.000 A 
ATOM     12  C   UNK     1       3.373   2.617  20.967  0.00  0.00    +0.000 A 
ATOM     13  C   UNK     1       3.961   3.164  19.799  0.00  0.00    +0.000 A 
ATOM     14  C   UNK     1       3.335   4.254  19.148  0.00  0.00    +0.000 A 
ENDROOT
BRANCH   1  18
ATOM     15  C   UNK     1       6.653   5.045  15.110  0.00  0.00    +0.000 A 
ATOM     16  C   UNK     1       6.060   3.877  15.561  0.00  0.00    +0.000 A 
ATOM     17  C   UNK     1       4.923   3.943  16.356  0.00  0.00    +0.000 A 
ATOM     18  C   UNK     1       4.378   5.171  16.798  0.00  0.00    +0.000 A 
ATOM     19  C   UNK     1       4.922   6.343  16.272  0.00  0.00    +0.000 A 
ATOM     20  C   UNK     1       6.059   6.274  15.424  0.00  0.00    +0.000 A 
BRANCH  15  22
ATOM     21  C   UNK     1       7.861   5.123  13.062  0.00  0.00    +0.000 C 
ATOM     22  O   UNK     1       7.825   4.827  14.446  0.00  0.00    +0.000 OA
ENDBRANCH  15  22
ENDBRANCH   1  18
BRANCH   6  23
ATOM     23  C   UNK     1       1.005   9.188  22.678  0.00  0.00    +0.000 C 
ATOM     24  O   UNK     1      -0.092   9.396  23.171  0.00  0.00    +0.000 OA
BRANCH  23  25
ATOM     25  O   UNK     1       2.171   9.352  23.358  0.00  0.00    +0.000 OA
ATOM     26  H   UNK     1       2.100   8.840  24.196  0.00  0.00    +0.000 HD
ENDBRANCH  23  25
ENDBRANCH   6  23
TORSDOF 4
ENDMDL
MODEL 8
REMARK VINA RESULT:      -7.3      2.461      4.209
REMARK  Name = 
REMARK  5 active torsions:
REMARK  status: ('A' for Active; 'I' for Inactive)
REMARK    1  A    between atoms: C_1  and  O_2
REMARK    2  A    between atoms: O_2  and  C_3
REMARK    3  A    between atoms: C_6  and  C_7
REMARK    4  A    between atoms: C_12  and  C_13
REMARK    5  A    between atoms: C_13  and  O_15
REMARK                            x       y       z     vdW  Elec       q    Type
REMARK                         _______ _______ _______ _____ _____    ______ ____
ROOT
ATOM      1  C   UNK     1       2.356   6.694  19.862  0.00  0.00    +0.000 A 
ATOM      2  N   UNK     1       3.648   6.784  19.486  0.00  0.00    +0.000 NA
ATOM      3  N   UNK     1       3.948   5.579  18.988  0.00  0.00    +0.000 N 
ATOM      4  C   UNK     1       4.784   5.496  17.870  0.00  0.00    +0.000 A 
ATOM      5  N   UNK     1       4.956   4.388  17.180  0.00  0.00    +0.000 NA
ATOM      6  C   UNK     1       5.632   4.700  15.996  0.00  0.00    +0.000 A 
ATOM      7  C   UNK     1       5.983   6.030  15.853  0.00  0.00    +0.000 A 
ATOM      8  S   UNK     1       5.470   6.923  17.219  0.00  0.00    +0.000 S 
ATOM      9  C   UNK     1       3.165   4.608  19.564  0.00  0.00    +0.000 A 
ATOM     10  C   UNK     1       3.355   3.223  19.637  0.00  0.00    +0.000 A 
ATOM     11  C   UNK     1       2.269   2.454  20.029  0.00  0.00    +0.000 A 
ATOM     12  C   UNK     1       1.043   3.062  20.294  0.00  0.00    +0.000 A 
ATOM     13  C   UNK     1       0.886   4.471  20.269  0.00  0.00    +0.000 A 
ATOM     14  C   UNK     1       1.997   5.290  19.954  0.00  0.00    +0.000 A 
ENDROOT
BRANCH   1  18
ATOM     15  C   UNK     1      -0.177  10.040  20.620  0.00  0.00    +0.000 A 
ATOM     16  C   UNK     1       0.164   9.138  21.616  0.00  0.00    +0.000 A 
ATOM     17  C   UNK     1       1.125   8.167  21.368  0.00  0.00    +0.000 A 
ATOM     18  C   UNK     1       1.726   8.003  20.098  0.00  0.00    +0.000 A 
ATOM     19  C   UNK     1       1.448   8.964  19.126  0.00  0.00    +0.000 A 
ATOM     20  C   UNK     1       0.497   9.985  19.394  0.00  0.00    +0.000 A 
BRANCH  15  22
ATOM     21  C   UNK     1      -1.127  11.540  22.203  0.00  0.00    +0.000 C 
ATOM     22  O   UNK     1      -1.216  10.853  20.968  0.00  0.00    +0.000 OA
ENDBRANCH  15  22
ENDBRANCH   1  18
BRANCH   6  23
ATOM     23  C   UNK     1       5.890   3.654  15.014  0.00  0.00    +0.000 C 
ATOM     24  O   UNK     1       6.149   3.848  13.837  0.00  0.00    +0.000 OA
BRANCH  23  25
ATOM     25  O   UNK     1       5.806   2.414  15.565  0.00  0.00    +0.000 OA
ATOM     26  H   UNK     1       6.342   2.418  16.390  0.00  0.00    +0.000 HD
ENDBRANCH  23  25
ENDBRANCH   6  23
TORSDOF 4
ENDMDL
MODEL 9
REMARK VINA RESULT:      -7.2      4.854      9.872
REMARK  Name = 
REMARK  5 active torsions:
REMARK  status: ('A' for Active; 'I' for Inactive)
REMARK    1  A    between atoms: C_1  and  O_2
REMARK    2  A    between atoms: O_2  and  C_3
REMARK    3  A    between atoms: C_6  and  C_7
REMARK    4  A    between atoms: C_12  and  C_13
REMARK    5  A    between atoms: C_13  and  O_15
REMARK                            x       y       z     vdW  Elec       q    Type
REMARK                         _______ _______ _______ _____ _____    ______ ____
ROOT
ATOM      1  C   UNK     1      -0.628  10.496  19.191  0.00  0.00    +0.000 A 
ATOM      2  N   UNK     1      -0.592  11.555  20.027  0.00  0.00    +0.000 NA
ATOM      3  N   UNK     1      -1.861  11.974  20.106  0.00  0.00    +0.000 N 
ATOM      4  C   UNK     1      -2.348  12.431  21.334  0.00  0.00    +0.000 A 
ATOM      5  N   UNK     1      -3.625  12.651  21.566  0.00  0.00    +0.000 NA
ATOM      6  C   UNK     1      -3.802  12.846  22.940  0.00  0.00    +0.000 A 
ATOM      7  C   UNK     1      -2.644  12.805  23.694  0.00  0.00    +0.000 A 
ATOM      8  S   UNK     1      -1.294  12.525  22.681  0.00  0.00    +0.000 S 
ATOM      9  C   UNK     1      -2.549  11.658  18.960  0.00  0.00    +0.000 A 
ATOM     10  C   UNK     1      -3.737  12.190  18.447  0.00  0.00    +0.000 A 
ATOM     11  C   UNK     1      -4.354  11.490  17.420  0.00  0.00    +0.000 A 
ATOM     12  C   UNK     1      -3.807  10.291  16.966  0.00  0.00    +0.000 A 
ATOM     13  C   UNK     1      -2.572   9.799  17.460  0.00  0.00    +0.000 A 
ATOM     14  C   UNK     1      -1.875  10.532  18.450  0.00  0.00    +0.000 A 
ENDROOT
BRANCH   1  18
ATOM     15  C   UNK     1       2.475   7.592  18.839  0.00  0.00    +0.000 A 
ATOM     16  C   UNK     1       2.157   8.454  17.802  0.00  0.00    +0.000 A 
ATOM     17  C   UNK     1       1.262   9.494  18.018  0.00  0.00    +0.000 A 
ATOM     18  C   UNK     1       0.588   9.669  19.250  0.00  0.00    +0.000 A 
ATOM     19  C   UNK     1       0.975   8.856  20.316  0.00  0.00    +0.000 A 
ATOM     20  C   UNK     1       1.923   7.820  20.106  0.00  0.00    +0.000 A 
BRANCH  15  22
ATOM     21  C   UNK     1       2.652   5.295  18.247  0.00  0.00    +0.000 C 
ATOM     22  O   UNK     1       3.269   6.553  18.447  0.00  0.00    +0.000 OA
ENDBRANCH  15  22
ENDBRANCH   1  18
BRANCH   6  23
ATOM     23  C   UNK     1      -5.144  13.042  23.475  0.00  0.00    +0.000 C 
ATOM     24  O   UNK     1      -6.102  12.321  23.243  0.00  0.00    +0.000 OA
BRANCH  23  25
ATOM     25  O   UNK     1      -5.213  14.140  24.273  0.00  0.00    +0.000 OA
ATOM     26  H   UNK     1      -5.920  14.724  23.914  0.00  0.00    +0.000 HD
ENDBRANCH  23  25
ENDBRANCH   6  23
TORSDOF 4
ENDMDL
