MODEL 1
REMARK VINA RESULT:      -6.0      0.000      0.000
REMARK  Name = 
REMARK  8 active torsions:
REMARK  status: ('A' for Active; 'I' for Inactive)
REMARK    1  A    between atoms: C_1  and  O_2
REMARK    2  A    between atoms: O_2  and  C_3
REMARK    3  A    between atoms: C_6  and  N_7
REMARK    4  A    between atoms: N_13  and  C_14
REMARK    5  A    between atoms: C_14  and  C_15
REMARK    6  A    between atoms: C_15  and  N_16
REMARK    7  A    between atoms: N_16  and  C_17
REMARK    8  A    between atoms: N_16  and  C_18
REMARK                            x       y       z     vdW  Elec       q    Type
REMARK                         _______ _______ _______ _____ _____    ______ ____
ROOT
ATOM      1  N   UNL     1       1.283   8.445  19.846  0.00  0.00    +0.000 N 
ATOM      2  C   UNL     1       0.829   8.144  21.216  0.00  0.00    +0.000 C 
ATOM      3  C   UNL     1       1.013   9.383  22.112  0.00  0.00    +0.000 C 
ATOM      4  N   UNL     1       0.401  10.584  21.528  0.00  0.00    +0.000 N 
ATOM      5  C   UNL     1      -0.513  11.282  22.275  0.00  0.00    +0.000 C 
ATOM      6  O   UNL     1      -0.839  10.932  23.412  0.00  0.00    +0.000 OA
ATOM      7  N   UNL     1      -1.100  12.369  21.680  0.00  0.00    +0.000 N 
ATOM      8  C   UNL     1       0.850  10.869  20.158  0.00  0.00    +0.000 C 
ATOM      9  C   UNL     1       0.678   9.641  19.239  0.00  0.00    +0.000 C 
ATOM     10  H   UNL     1      -0.535  12.890  21.027  0.00  0.00    +0.000 HD
ENDROOT
BRANCH   1  14
ATOM     11  C   UNL     1       4.199   6.096  17.898  0.00  0.00    +0.000 A 
ATOM     12  C   UNL     1       3.782   7.304  17.351  0.00  0.00    +0.000 A 
ATOM     13  C   UNL     1       2.823   8.084  18.005  0.00  0.00    +0.000 A 
ATOM     14  C   UNL     1       2.236   7.678  19.212  0.00  0.00    +0.000 A 
ATOM     15  C   UNL     1       2.666   6.449  19.732  0.00  0.00    +0.000 A 
ATOM     16  C   UNL     1       3.625   5.659  19.086  0.00  0.00    +0.000 A 
BRANCH  11  18
ATOM     17  C   UNL     1       5.332   5.875  15.841  0.00  0.00    +0.000 C 
ATOM     18  O   UNL     1       5.140   5.420  17.176  0.00  0.00    +0.000 OA
ENDBRANCH  11  18
ENDBRANCH   1  14
BRANCH   7  19
ATOM     19  C   UNL     1      -2.082  13.160  22.403  0.00  0.00    +0.000 C 
BRANCH  19  20
ATOM     20  C   UNL     1      -3.528  12.934  21.910  0.00  0.00    +0.000 C 
BRANCH  20  21
ATOM     21  N   UNL     1      -4.456  12.388  22.931  0.00  0.00    +0.000 NA
ATOM     22  C   UNL     1      -3.971  12.606  24.295  0.00  0.00    +0.000 C 
ATOM     23  C   UNL     1      -5.777  13.012  22.784  0.00  0.00    +0.000 C 
ENDBRANCH  20  21
ENDBRANCH  19  20
ENDBRANCH   7  19
TORSDOF 5
ENDMDL
MODEL 2
REMARK VINA RESULT:      -5.9      1.534      2.334
REMARK  Name = 
REMARK  8 active torsions:
REMARK  status: ('A' for Active; 'I' for Inactive)
REMARK    1  A    between atoms: C_1  and  O_2
REMARK    2  A    between atoms: O_2  and  C_3
REMARK    3  A    between atoms: C_6  and  N_7
REMARK    4  A    between atoms: N_13  and  C_14
REMARK    5  A    between atoms: C_14  and  C_15
REMARK    6  A    between atoms: C_15  and  N_16
REMARK    7  A    between atoms: N_16  and  C_17
REMARK    8  A    between atoms: N_16  and  C_18
REMARK                            x       y       z     vdW  Elec       q    Type
REMARK                         _______ _______ _______ _____ _____    ______ ____
ROOT
ATOM      1  N   UNL     1       1.770   8.156  19.922  0.00  0.00    +0.000 N 
ATOM      2  C   UNL     1       1.533   9.321  19.050  0.00  0.00    +0.000 C 
ATOM      3  C   UNL     1       0.059   9.757  19.147  0.00  0.00    +0.000 C 
ATOM      4  N   UNL     1      -0.370   9.952  20.538  0.00  0.00    +0.000 N 
ATOM      5  C   UNL     1      -0.917  11.159  20.890  0.00  0.00    +0.000 C 
ATOM      6  O   UNL     1      -1.054  12.081  20.083  0.00  0.00    +0.000 OA
ATOM      7  N   UNL     1      -1.261  11.324  22.208  0.00  0.00    +0.000 N 
ATOM      8  C   UNL     1      -0.118   8.791  21.403  0.00  0.00    +0.000 C 
ATOM      9  C   UNL     1       1.353   8.332  21.322  0.00  0.00    +0.000 C 
ATOM     10  H   UNL     1      -1.582  10.503  22.699  0.00  0.00    +0.000 HD
ENDROOT
BRANCH   1  14
ATOM     11  C   UNL     1       3.405   4.558  18.440  0.00  0.00    +0.000 A 
ATOM     12  C   UNL     1       2.720   4.579  19.650  0.00  0.00    +0.000 A 
ATOM     13  C   UNL     1       2.173   5.772  20.133  0.00  0.00    +0.000 A 
ATOM     14  C   UNL     1       2.302   6.982  19.436  0.00  0.00    +0.000 A 
ATOM     15  C   UNL     1       3.009   6.932  18.227  0.00  0.00    +0.000 A 
ATOM     16  C   UNL     1       3.562   5.744  17.733  0.00  0.00    +0.000 A 
BRANCH  11  18
ATOM     17  C   UNL     1       2.917   2.347  17.781  0.00  0.00    +0.000 C 
ATOM     18  O   UNL     1       3.895   3.340  18.066  0.00  0.00    +0.000 OA
ENDBRANCH  11  18
ENDBRANCH   1  14
BRANCH   7  19
ATOM     19  C   UNL     1      -1.844  12.575  22.663  0.00  0.00    +0.000 C 
BRANCH  19  20
ATOM     20  C   UNL     1      -3.088  12.377  23.557  0.00  0.00    +0.000 C 
BRANCH  20  21
ATOM     21  N   UNL     1      -4.387  12.499  22.850  0.00  0.00    +0.000 NA
ATOM     22  C   UNL     1      -5.350  13.314  23.594  0.00  0.00    +0.000 C 
ATOM     23  C   UNL     1      -4.175  13.095  21.524  0.00  0.00    +0.000 C 
ENDBRANCH  20  21
ENDBRANCH  19  20
ENDBRANCH   7  19
TORSDOF 5
ENDMDL
MODEL 3
REMARK VINA RESULT:      -5.9      0.184      1.035
REMARK  Name = 
REMARK  8 active torsions:
REMARK  status: ('A' for Active; 'I' for Inactive)
REMARK    1  A    between atoms: C_1  and  O_2
REMARK    2  A    between atoms: O_2  and  C_3
REMARK    3  A    between atoms: C_6  and  N_7
REMARK    4  A    between atoms: N_13  and  C_14
REMARK    5  A    between atoms: C_14  and  C_15
REMARK    6  A    between atoms: C_15  and  N_16
REMARK    7  A    between atoms: N_16  and  C_17
REMARK    8  A    between atoms: N_16  and  C_18
REMARK                            x       y       z     vdW  Elec       q    Type
REMARK                         _______ _______ _______ _____ _____    ______ ____
ROOT
ATOM      1  N   UNL     1       1.345   8.375  19.786  0.00  0.00    +0.000 N 
ATOM      2  C   UNL     1       0.926   8.066  21.165  0.00  0.00    +0.000 C 
ATOM      3  C   UNL     1       1.096   9.310  22.057  0.00  0.00    +0.000 C 
ATOM      4  N   UNL     1       0.443  10.495  21.483  0.00  0.00    +0.000 N 
ATOM      5  C   UNL     1      -0.474  11.170  22.247  0.00  0.00    +0.000 C 
ATOM      6  O   UNL     1      -0.770  10.815  23.390  0.00  0.00    +0.000 OA
ATOM      7  N   UNL     1      -1.100  12.242  21.661  0.00  0.00    +0.000 N 
ATOM      8  C   UNL     1       0.858  10.788  20.104  0.00  0.00    +0.000 C 
ATOM      9  C   UNL     1       0.699   9.555  19.189  0.00  0.00    +0.000 C 
ATOM     10  H   UNL     1      -0.560  12.776  20.997  0.00  0.00    +0.000 HD
ENDROOT
BRANCH   1  14
ATOM     11  C   UNL     1       4.290   6.097  17.798  0.00  0.00    +0.000 A 
ATOM     12  C   UNL     1       3.735   5.650  18.992  0.00  0.00    +0.000 A 
ATOM     13  C   UNL     1       2.753   6.403  19.642  0.00  0.00    +0.000 A 
ATOM     14  C   UNL     1       2.305   7.632  19.135  0.00  0.00    +0.000 A 
ATOM     15  C   UNL     1       2.893   8.063  17.938  0.00  0.00    +0.000 A 
ATOM     16  C   UNL     1       3.877   7.318  17.278  0.00  0.00    +0.000 A 
BRANCH  11  18
ATOM     17  C   UNL     1       5.651   5.621  15.933  0.00  0.00    +0.000 C 
ATOM     18  O   UNL     1       5.238   5.281  17.251  0.00  0.00    +0.000 OA
ENDBRANCH  11  18
ENDBRANCH   1  14
BRANCH   7  19
ATOM     19  C   UNL     1      -2.087  13.009  22.403  0.00  0.00    +0.000 C 
BRANCH  19  20
ATOM     20  C   UNL     1      -3.532  12.777  21.910  0.00  0.00    +0.000 C 
BRANCH  20  21
ATOM     21  N   UNL     1      -4.515  12.482  22.982  0.00  0.00    +0.000 NA
ATOM     22  C   UNL     1      -3.911  12.523  24.316  0.00  0.00    +0.000 C 
ATOM     23  C   UNL     1      -5.618  13.451  22.923  0.00  0.00    +0.000 C 
ENDBRANCH  20  21
ENDBRANCH  19  20
ENDBRANCH   7  19
TORSDOF 5
ENDMDL
MODEL 4
REMARK VINA RESULT:      -5.9      1.475      2.064
REMARK  Name = 
REMARK  8 active torsions:
REMARK  status: ('A' for Active; 'I' for Inactive)
REMARK    1  A    between atoms: C_1  and  O_2
REMARK    2  A    between atoms: O_2  and  C_3
REMARK    3  A    between atoms: C_6  and  N_7
REMARK    4  A    between atoms: N_13  and  C_14
REMARK    5  A    between atoms: C_14  and  C_15
REMARK    6  A    between atoms: C_15  and  N_16
REMARK    7  A    between atoms: N_16  and  C_17
REMARK    8  A    between atoms: N_16  and  C_18
REMARK                            x       y       z     vdW  Elec       q    Type
REMARK                         _______ _______ _______ _____ _____    ______ ____
ROOT
ATOM      1  N   UNL     1       1.459   8.441  20.261  0.00  0.00    +0.000 N 
ATOM      2  C   UNL     1       1.164   9.603  19.403  0.00  0.00    +0.000 C 
ATOM      3  C   UNL     1      -0.303  10.034  19.591  0.00  0.00    +0.000 C 
ATOM      4  N   UNL     1      -0.643  10.233  21.007  0.00  0.00    +0.000 N 
ATOM      5  C   UNL     1      -1.171  11.439  21.389  0.00  0.00    +0.000 C 
ATOM      6  O   UNL     1      -1.362  12.358  20.590  0.00  0.00    +0.000 OA
ATOM      7  N   UNL     1      -1.431  11.606  22.726  0.00  0.00    +0.000 N 
ATOM      8  C   UNL     1      -0.334   9.075  21.857  0.00  0.00    +0.000 C 
ATOM      9  C   UNL     1       1.131   8.620  21.685  0.00  0.00    +0.000 C 
ATOM     10  H   UNL     1      -1.718  10.787  23.239  0.00  0.00    +0.000 HD
ENDROOT
BRANCH   1  14
ATOM     11  C   UNL     1       2.999   4.845  18.676  0.00  0.00    +0.000 A 
ATOM     12  C   UNL     1       3.110   6.036  17.968  0.00  0.00    +0.000 A 
ATOM     13  C   UNL     1       2.607   7.227  18.501  0.00  0.00    +0.000 A 
ATOM     14  C   UNL     1       1.963   7.267  19.746  0.00  0.00    +0.000 A 
ATOM     15  C   UNL     1       1.854   6.049  20.431  0.00  0.00    +0.000 A 
ATOM     16  C   UNL     1       2.354   4.850  19.907  0.00  0.00    +0.000 A 
BRANCH  11  18
ATOM     17  C   UNL     1       2.580   2.790  17.600  0.00  0.00    +0.000 C 
ATOM     18  O   UNL     1       3.526   3.747  18.061  0.00  0.00    +0.000 OA
ENDBRANCH  11  18
ENDBRANCH   1  14
BRANCH   7  19
ATOM     19  C   UNL     1      -1.988  12.857  23.213  0.00  0.00    +0.000 C 
BRANCH  19  20
ATOM     20  C   UNL     1      -3.357  12.684  23.907  0.00  0.00    +0.000 C 
BRANCH  20  21
ATOM     21  N   UNL     1      -4.518  12.616  22.986  0.00  0.00    +0.000 NA
ATOM     22  C   UNL     1      -5.791  12.824  23.679  0.00  0.00    +0.000 C 
ATOM     23  C   UNL     1      -4.372  13.629  21.932  0.00  0.00    +0.000 C 
ENDBRANCH  20  21
ENDBRANCH  19  20
ENDBRANCH   7  19
TORSDOF 5
ENDMDL
MODEL 5
REMARK VINA RESULT:      -5.8      2.356      3.265
REMARK  Name = 
REMARK  8 active torsions:
REMARK  status: ('A' for Active; 'I' for Inactive)
REMARK    1  A    between atoms: C_1  and  O_2
REMARK    2  A    between atoms: O_2  and  C_3
REMARK    3  A    between atoms: C_6  and  N_7
REMARK    4  A    between atoms: N_13  and  C_14
REMARK    5  A    between atoms: C_14  and  C_15
REMARK    6  A    between atoms: C_15  and  N_16
REMARK    7  A    between atoms: N_16  and  C_17
REMARK    8  A    between atoms: N_16  and  C_18
REMARK                            x       y       z     vdW  Elec       q    Type
REMARK                         _______ _______ _______ _____ _____    ______ ____
ROOT
ATOM      1  N   UNL     1       2.053   7.529  19.601  0.00  0.00    +0.000 N 
ATOM      2  C   UNL     1       2.285   8.510  18.526  0.00  0.00    +0.000 C 
ATOM      3  C   UNL     1       1.087   9.472  18.427  0.00  0.00    +0.000 C 
ATOM      4  N   UNL     1       0.751  10.074  19.724  0.00  0.00    +0.000 N 
ATOM      5  C   UNL     1       0.701  11.441  19.818  0.00  0.00    +0.000 C 
ATOM      6  O   UNL     1       0.932  12.176  18.856  0.00  0.00    +0.000 OA
ATOM      7  N   UNL     1       0.433  11.968  21.056  0.00  0.00    +0.000 N 
ATOM      8  C   UNL     1       0.534   9.089  20.793  0.00  0.00    +0.000 C 
ATOM      9  C   UNL     1       1.721   8.110  20.912  0.00  0.00    +0.000 C 
ATOM     10  H   UNL     1      -0.181  11.435  21.653  0.00  0.00    +0.000 HD
ENDROOT
BRANCH   1  14
ATOM     11  C   UNL     1       2.213   3.371  18.896  0.00  0.00    +0.000 A 
ATOM     12  C   UNL     1       1.905   3.863  20.159  0.00  0.00    +0.000 A 
ATOM     13  C   UNL     1       1.845   5.242  20.386  0.00  0.00    +0.000 A 
ATOM     14  C   UNL     1       2.103   6.172  19.369  0.00  0.00    +0.000 A 
ATOM     15  C   UNL     1       2.424   5.646  18.111  0.00  0.00    +0.000 A 
ATOM     16  C   UNL     1       2.488   4.268  17.871  0.00  0.00    +0.000 A 
BRANCH  11  18
ATOM     17  C   UNL     1       3.483   1.456  18.367  0.00  0.00    +0.000 C 
ATOM     18  O   UNL     1       2.242   2.010  18.790  0.00  0.00    +0.000 OA
ENDBRANCH  11  18
ENDBRANCH   1  14
BRANCH   7  19
ATOM     19  C   UNL     1       0.365  13.408  21.240  0.00  0.00    +0.000 C 
BRANCH  19  20
ATOM     20  C   UNL     1      -0.991  13.886  21.806  0.00  0.00    +0.000 C 
BRANCH  20  21
ATOM     21  N   UNL     1      -1.263  13.470  23.204  0.00  0.00    +0.000 NA
ATOM     22  C   UNL     1      -1.411  14.616  24.105  0.00  0.00    +0.000 C 
ATOM     23  C   UNL     1      -2.488  12.660  23.250  0.00  0.00    +0.000 C 
ENDBRANCH  20  21
ENDBRANCH  19  20
ENDBRANCH   7  19
TORSDOF 5
ENDMDL
MODEL 6
REMARK VINA RESULT:      -5.7      3.279      4.568
REMARK  Name = 
REMARK  8 active torsions:
REMARK  status: ('A' for Active; 'I' for Inactive)
REMARK    1  A    between atoms: C_1  and  O_2
REMARK    2  A    between atoms: O_2  and  C_3
REMARK    3  A    between atoms: C_6  and  N_7
REMARK    4  A    between atoms: N_13  and  C_14
REMARK    5  A    between atoms: C_14  and  C_15
REMARK    6  A    between atoms: C_15  and  N_16
REMARK    7  A    between atoms: N_16  and  C_17
REMARK    8  A    between atoms: N_16  and  C_18
REMARK                            x       y       z     vdW  Elec       q    Type
REMARK                         _______ _______ _______ _____ _____    ______ ____
ROOT
ATOM      1  N   UNL     1       2.057   7.541  19.606  0.00  0.00    +0.000 N 
ATOM      2  C   UNL     1       2.351   8.423  18.461  0.00  0.00    +0.000 C 
ATOM      3  C   UNL     1       1.179   9.397  18.236  0.00  0.00    +0.000 C 
ATOM      4  N   UNL     1       0.812  10.114  19.465  0.00  0.00    +0.000 N 
ATOM      5  C   UNL     1       0.791  11.484  19.441  0.00  0.00    +0.000 C 
ATOM      6  O   UNL     1       1.074  12.131  18.430  0.00  0.00    +0.000 OA
ATOM      7  N   UNL     1       0.491  12.120  20.620  0.00  0.00    +0.000 N 
ATOM      8  C   UNL     1       0.534   9.228  20.604  0.00  0.00    +0.000 C 
ATOM      9  C   UNL     1       1.692   8.239  20.850  0.00  0.00    +0.000 C 
ATOM     10  H   UNL     1      -0.156  11.653  21.236  0.00  0.00    +0.000 HD
ENDROOT
BRANCH   1  14
ATOM     11  C   UNL     1       2.133   3.337  19.248  0.00  0.00    +0.000 A 
ATOM     12  C   UNL     1       2.501   4.145  18.178  0.00  0.00    +0.000 A 
ATOM     13  C   UNL     1       2.483   5.538  18.304  0.00  0.00    +0.000 A 
ATOM     14  C   UNL     1       2.084   6.169  19.491  0.00  0.00    +0.000 A 
ATOM     15  C   UNL     1       1.706   5.329  20.547  0.00  0.00    +0.000 A 
ATOM     16  C   UNL     1       1.719   3.933  20.433  0.00  0.00    +0.000 A 
BRANCH  11  18
ATOM     17  C   UNL     1       3.383   1.529  18.392  0.00  0.00    +0.000 C 
ATOM     18  O   UNL     1       2.190   1.993  19.013  0.00  0.00    +0.000 OA
ENDBRANCH  11  18
ENDBRANCH   1  14
BRANCH   7  19
ATOM     19  C   UNL     1       0.451  13.572  20.679  0.00  0.00    +0.000 C 
BRANCH  19  20
ATOM     20  C   UNL     1       1.646  14.182  21.446  0.00  0.00    +0.000 C 
BRANCH  20  21
ATOM     21  N   UNL     1       2.964  14.002  20.789  0.00  0.00    +0.000 NA
ATOM     22  C   UNL     1       3.076  14.772  19.547  0.00  0.00    +0.000 C 
ATOM     23  C   UNL     1       4.035  14.412  21.707  0.00  0.00    +0.000 C 
ENDBRANCH  20  21
ENDBRANCH  19  20
ENDBRANCH   7  19
TORSDOF 5
ENDMDL
MODEL 7
REMARK VINA RESULT:      -5.7      1.348      2.106
REMARK  Name = 
REMARK  8 active torsions:
REMARK  status: ('A' for Active; 'I' for Inactive)
REMARK    1  A    between atoms: C_1  and  O_2
REMARK    2  A    between atoms: O_2  and  C_3
REMARK    3  A    between atoms: C_6  and  N_7
REMARK    4  A    between atoms: N_13  and  C_14
REMARK    5  A    between atoms: C_14  and  C_15
REMARK    6  A    between atoms: C_15  and  N_16
REMARK    7  A    between atoms: N_16  and  C_17
REMARK    8  A    between atoms: N_16  and  C_18
REMARK                            x       y       z     vdW  Elec       q    Type
REMARK                         _______ _______ _______ _____ _____    ______ ____
ROOT
ATOM      1  N   UNL     1       1.605   8.470  20.125  0.00  0.00    +0.000 N 
ATOM      2  C   UNL     1       1.232   9.632  19.299  0.00  0.00    +0.000 C 
ATOM      3  C   UNL     1      -0.249   9.988  19.532  0.00  0.00    +0.000 C 
ATOM      4  N   UNL     1      -0.562  10.143  20.959  0.00  0.00    +0.000 N 
ATOM      5  C   UNL     1      -1.137  11.315  21.378  0.00  0.00    +0.000 C 
ATOM      6  O   UNL     1      -1.392  12.238  20.603  0.00  0.00    +0.000 OA
ATOM      7  N   UNL     1      -1.371  11.443  22.724  0.00  0.00    +0.000 N 
ATOM      8  C   UNL     1      -0.175   8.985  21.777  0.00  0.00    +0.000 C 
ATOM      9  C   UNL     1       1.305   8.606  21.560  0.00  0.00    +0.000 C 
ATOM     10  H   UNL     1      -1.605  10.601  23.227  0.00  0.00    +0.000 HD
ENDROOT
BRANCH   1  14
ATOM     11  C   UNL     1       3.284   4.982  18.444  0.00  0.00    +0.000 A 
ATOM     12  C   UNL     1       2.627   4.932  19.668  0.00  0.00    +0.000 A 
ATOM     13  C   UNL     1       2.065   6.089  20.217  0.00  0.00    +0.000 A 
ATOM     14  C   UNL     1       2.151   7.332  19.574  0.00  0.00    +0.000 A 
ATOM     15  C   UNL     1       2.831   7.354  18.349  0.00  0.00    +0.000 A 
ATOM     16  C   UNL     1       3.399   6.203  17.789  0.00  0.00    +0.000 A 
BRANCH  11  18
ATOM     17  C   UNL     1       4.519   3.855  16.781  0.00  0.00    +0.000 C 
ATOM     18  O   UNL     1       3.792   3.794  18.003  0.00  0.00    +0.000 OA
ENDBRANCH  11  18
ENDBRANCH   1  14
BRANCH   7  19
ATOM     19  C   UNL     1      -1.974  12.656  23.250  0.00  0.00    +0.000 C 
BRANCH  19  20
ATOM     20  C   UNL     1      -3.456  12.474  23.648  0.00  0.00    +0.000 C 
BRANCH  20  21
ATOM     21  N   UNL     1      -4.412  13.316  22.887  0.00  0.00    +0.000 NA
ATOM     22  C   UNL     1      -4.792  12.708  21.609  0.00  0.00    +0.000 C 
ATOM     23  C   UNL     1      -5.621  13.542  23.690  0.00  0.00    +0.000 C 
ENDBRANCH  20  21
ENDBRANCH  19  20
ENDBRANCH   7  19
TORSDOF 5
ENDMDL
MODEL 8
REMARK VINA RESULT:      -5.7      1.562      2.089
REMARK  Name = 
REMARK  8 active torsions:
REMARK  status: ('A' for Active; 'I' for Inactive)
REMARK    1  A    between atoms: C_1  and  O_2
REMARK    2  A    between atoms: O_2  and  C_3
REMARK    3  A    between atoms: C_6  and  N_7
REMARK    4  A    between atoms: N_13  and  C_14
REMARK    5  A    between atoms: C_14  and  C_15
REMARK    6  A    between atoms: C_15  and  N_16
REMARK    7  A    between atoms: N_16  and  C_17
REMARK    8  A    between atoms: N_16  and  C_18
REMARK                            x       y       z     vdW  Elec       q    Type
REMARK                         _______ _______ _______ _____ _____    ______ ____
ROOT
ATOM      1  N   UNL     1       1.799   8.232  19.758  0.00  0.00    +0.000 N 
ATOM      2  C   UNL     1       1.674   9.374  18.835  0.00  0.00    +0.000 C 
ATOM      3  C   UNL     1       0.215   9.866  18.804  0.00  0.00    +0.000 C 
ATOM      4  N   UNL     1      -0.311  10.124  20.152  0.00  0.00    +0.000 N 
ATOM      5  C   UNL     1      -0.836  11.361  20.423  0.00  0.00    +0.000 C 
ATOM      6  O   UNL     1      -0.876  12.259  19.580  0.00  0.00    +0.000 OA
ATOM      7  N   UNL     1      -1.272  11.581  21.705  0.00  0.00    +0.000 N 
ATOM      8  C   UNL     1      -0.170   8.984  21.068  0.00  0.00    +0.000 C 
ATOM      9  C   UNL     1       1.284   8.470  21.116  0.00  0.00    +0.000 C 
ATOM     10  H   UNL     1      -1.661  10.790  22.195  0.00  0.00    +0.000 HD
ENDROOT
BRANCH   1  14
ATOM     11  C   UNL     1       3.394   4.531  18.503  0.00  0.00    +0.000 A 
ATOM     12  C   UNL     1       3.545   5.669  17.720  0.00  0.00    +0.000 A 
ATOM     13  C   UNL     1       3.023   6.895  18.143  0.00  0.00    +0.000 A 
ATOM     14  C   UNL     1       2.321   7.024  19.350  0.00  0.00    +0.000 A 
ATOM     15  C   UNL     1       2.173   5.857  20.113  0.00  0.00    +0.000 A 
ATOM     16  C   UNL     1       2.690   4.623  19.699  0.00  0.00    +0.000 A 
BRANCH  11  18
ATOM     17  C   UNL     1       3.253   2.185  18.302  0.00  0.00    +0.000 C 
ATOM     18  O   UNL     1       3.944   3.391  17.993  0.00  0.00    +0.000 OA
ENDBRANCH  11  18
ENDBRANCH   1  14
BRANCH   7  19
ATOM     19  C   UNL     1      -1.839  12.868  22.075  0.00  0.00    +0.000 C 
BRANCH  19  20
ATOM     20  C   UNL     1      -3.342  12.990  21.737  0.00  0.00    +0.000 C 
BRANCH  20  21
ATOM     21  N   UNL     1      -4.256  12.400  22.745  0.00  0.00    +0.000 NA
ATOM     22  C   UNL     1      -3.808  12.652  24.116  0.00  0.00    +0.000 C 
ATOM     23  C   UNL     1      -5.607  12.950  22.571  0.00  0.00    +0.000 C 
ENDBRANCH  20  21
ENDBRANCH  19  20
ENDBRANCH   7  19
TORSDOF 5
ENDMDL
MODEL 9
REMARK VINA RESULT:      -5.7      2.821      9.073
REMARK  Name = 
REMARK  8 active torsions:
REMARK  status: ('A' for Active; 'I' for Inactive)
REMARK    1  A    between atoms: C_1  and  O_2
REMARK    2  A    between atoms: O_2  and  C_3
REMARK    3  A    between atoms: C_6  and  N_7
REMARK    4  A    between atoms: N_13  and  C_14
REMARK    5  A    between atoms: C_14  and  C_15
REMARK    6  A    between atoms: C_15  and  N_16
REMARK    7  A    between atoms: N_16  and  C_17
REMARK    8  A    between atoms: N_16  and  C_18
REMARK                            x       y       z     vdW  Elec       q    Type
REMARK                         _______ _______ _______ _____ _____    ______ ____
ROOT
ATOM      1  N   UNL     1       1.390   9.097  19.304  0.00  0.00    +0.000 N 
ATOM      2  C   UNL     1       1.783   8.273  20.461  0.00  0.00    +0.000 C 
ATOM      3  C   UNL     1       1.848   6.790  20.052  0.00  0.00    +0.000 C 
ATOM      4  N   UNL     1       2.680   6.582  18.859  0.00  0.00    +0.000 N 
ATOM      5  C   UNL     1       3.715   5.686  18.931  0.00  0.00    +0.000 C 
ATOM      6  O   UNL     1       3.973   5.058  19.960  0.00  0.00    +0.000 OA
ATOM      7  N   UNL     1       4.500   5.553  17.813  0.00  0.00    +0.000 N 
ATOM      8  C   UNL     1       2.288   7.415  17.713  0.00  0.00    +0.000 C 
ATOM      9  C   UNL     1       2.213   8.908  18.098  0.00  0.00    +0.000 C 
ATOM     10  H   UNL     1       4.043   5.669  16.922  0.00  0.00    +0.000 HD
ENDROOT
BRANCH   1  14
ATOM     11  C   UNL     1      -1.943  11.681  19.450  0.00  0.00    +0.000 A 
ATOM     12  C   UNL     1      -1.136  11.503  20.567  0.00  0.00    +0.000 A 
ATOM     13  C   UNL     1      -0.027  10.653  20.512  0.00  0.00    +0.000 A 
ATOM     14  C   UNL     1       0.303   9.941  19.349  0.00  0.00    +0.000 A 
ATOM     15  C   UNL     1      -0.537  10.130  18.244  0.00  0.00    +0.000 A 
ATOM     16  C   UNL     1      -1.651  10.978  18.287  0.00  0.00    +0.000 A 
BRANCH  11  18
ATOM     17  C   UNL     1      -2.954  13.334  20.793  0.00  0.00    +0.000 C 
ATOM     18  O   UNL     1      -2.996  12.534  19.618  0.00  0.00    +0.000 OA
ENDBRANCH  11  18
ENDBRANCH   1  14
BRANCH   7  19
ATOM     19  C   UNL     1       5.620   4.627  17.810  0.00  0.00    +0.000 C 
BRANCH  19  20
ATOM     20  C   UNL     1       6.815   5.121  16.964  0.00  0.00    +0.000 C 
BRANCH  20  21
ATOM     21  N   UNL     1       7.746   6.032  17.675  0.00  0.00    +0.000 NA
ATOM     22  C   UNL     1       7.413   7.442  17.462  0.00  0.00    +0.000 C 
ATOM     23  C   UNL     1       7.718   5.743  19.115  0.00  0.00    +0.000 C 
ENDBRANCH  20  21
ENDBRANCH  19  20
ENDBRANCH   7  19
TORSDOF 5
ENDMDL
