MODEL 1
REMARK VINA RESULT:      -8.1      0.000      0.000
REMARK  Name = 
REMARK  6 active torsions:
REMARK  status: ('A' for Active; 'I' for Inactive)
REMARK    1  A    between atoms: C_1  and  C_2
REMARK    2  A    between atoms: C_5  and  N_6
REMARK    3  A    between atoms: C_7  and  C_9
REMARK    4  A    between atoms: C_11  and  C_12
REMARK    5  A    between atoms: N_13  and  C_14
REMARK    6  A    between atoms: C_17  and  N_18
REMARK                            x       y       z     vdW  Elec       q    Type
REMARK                         _______ _______ _______ _____ _____    ______ ____
ROOT
ATOM      1  C   UNL     1       0.879   9.253  21.208  0.00  0.00    +0.000 A 
ATOM      2  N   UNL     1       1.092   9.710  19.924  0.00  0.00    +0.000 NA
ATOM      3  C   UNL     1       1.622   8.671  19.303  0.00  0.00    +0.000 A 
ATOM      4  C   UNL     1       1.850   8.589  17.840  0.00  0.00    +0.000 C 
ATOM      5  N   UNL     1       1.762   7.615  20.195  0.00  0.00    +0.000 N 
ATOM      6  N   UNL     1       1.240   7.973  21.389  0.00  0.00    +0.000 NA
ENDROOT
BRANCH   5   7
ATOM      7  C   UNL     1       2.260   6.294  19.990  0.00  0.00    +0.000 A 
ATOM      8  C   UNL     1       1.587   5.168  20.486  0.00  0.00    +0.000 A 
ATOM      9  C   UNL     1       2.148   3.892  20.358  0.00  0.00    +0.000 A 
ATOM     10  C   UNL     1       3.385   3.738  19.722  0.00  0.00    +0.000 A 
ATOM     11  C   UNL     1       4.043   4.846  19.176  0.00  0.00    +0.000 A 
ATOM     12  C   UNL     1       3.470   6.120  19.296  0.00  0.00    +0.000 A 
BRANCH  10  13
ATOM     13  N   UNL     1       3.992   2.402  19.631  0.00  0.00    +0.000 N 
ATOM     14  O   UNL     1       4.943   2.152  20.385  0.00  0.00    +0.000 OA
ATOM     15  O   UNL     1       3.520   1.613  18.805  0.00  0.00    +0.000 OA
ENDBRANCH  10  13
ENDBRANCH   5   7
BRANCH   1  17
ATOM     16  N   UNL     1      -0.485  11.150  21.781  0.00  0.00    +0.000 N 
ATOM     17  C   UNL     1       0.257  10.081  22.274  0.00  0.00    +0.000 C 
ATOM     18  O   UNL     1       0.378   9.786  23.462  0.00  0.00    +0.000 OA
ATOM     19  H   UNL     1      -0.574  11.188  20.770  0.00  0.00    +0.000 HD
BRANCH  16  24
ATOM     20  C   UNL     1      -3.379  15.102  24.785  0.00  0.00    +0.000 C 
ATOM     21  C   UNL     1      -2.620  14.058  24.022  0.00  0.00    +0.000 A 
ATOM     22  C   UNL     1      -3.163  12.787  23.827  0.00  0.00    +0.000 A 
ATOM     23  C   UNL     1      -2.467  11.817  23.098  0.00  0.00    +0.000 A 
ATOM     24  C   UNL     1      -1.212  12.091  22.549  0.00  0.00    +0.000 A 
ATOM     25  C   UNL     1      -0.651  13.354  22.770  0.00  0.00    +0.000 A 
ATOM     26  C   UNL     1      -1.355  14.332  23.491  0.00  0.00    +0.000 A 
ENDBRANCH  16  24
ENDBRANCH   1  17
TORSDOF 4
ENDMDL
MODEL 2
REMARK VINA RESULT:      -7.9      0.194      1.378
REMARK  Name = 
REMARK  6 active torsions:
REMARK  status: ('A' for Active; 'I' for Inactive)
REMARK    1  A    between atoms: C_1  and  C_2
REMARK    2  A    between atoms: C_5  and  N_6
REMARK    3  A    between atoms: C_7  and  C_9
REMARK    4  A    between atoms: C_11  and  C_12
REMARK    5  A    between atoms: N_13  and  C_14
REMARK    6  A    between atoms: C_17  and  N_18
REMARK                            x       y       z     vdW  Elec       q    Type
REMARK                         _______ _______ _______ _____ _____    ______ ____
ROOT
ATOM      1  C   UNL     1       0.856   9.348  21.194  0.00  0.00    +0.000 A 
ATOM      2  N   UNL     1       0.997   9.748  19.882  0.00  0.00    +0.000 NA
ATOM      3  C   UNL     1       1.565   8.710  19.294  0.00  0.00    +0.000 A 
ATOM      4  C   UNL     1       1.747   8.564  17.830  0.00  0.00    +0.000 C 
ATOM      5  N   UNL     1       1.797   7.712  20.233  0.00  0.00    +0.000 N 
ATOM      6  N   UNL     1       1.297   8.102  21.426  0.00  0.00    +0.000 NA
ENDROOT
BRANCH   5   7
ATOM      7  C   UNL     1       2.364   6.412  20.076  0.00  0.00    +0.000 A 
ATOM      8  C   UNL     1       3.545   6.206  19.349  0.00  0.00    +0.000 A 
ATOM      9  C   UNL     1       4.024   4.910  19.127  0.00  0.00    +0.000 A 
ATOM     10  C   UNL     1       3.325   3.812  19.642  0.00  0.00    +0.000 A 
ATOM     11  C   UNL     1       2.173   4.006  20.415  0.00  0.00    +0.000 A 
ATOM     12  C   UNL     1       1.706   5.307  20.645  0.00  0.00    +0.000 A 
BRANCH  10  13
ATOM     13  N   UNL     1       3.807   2.451  19.367  0.00  0.00    +0.000 N 
ATOM     14  O   UNL     1       4.781   2.045  20.018  0.00  0.00    +0.000 OA
ATOM     15  O   UNL     1       3.216   1.798  18.500  0.00  0.00    +0.000 OA
ENDBRANCH  10  13
ENDBRANCH   5   7
BRANCH   1  17
ATOM     16  N   UNL     1      -0.445  11.301  21.725  0.00  0.00    +0.000 N 
ATOM     17  C   UNL     1       0.224  10.195  22.240  0.00  0.00    +0.000 C 
ATOM     18  O   UNL     1       0.277   9.884  23.429  0.00  0.00    +0.000 OA
ATOM     19  H   UNL     1      -0.486  11.352  20.712  0.00  0.00    +0.000 HD
BRANCH  16  24
ATOM     20  C   UNL     1      -3.421  15.088  24.860  0.00  0.00    +0.000 C 
ATOM     21  C   UNL     1      -2.647  14.114  24.022  0.00  0.00    +0.000 A 
ATOM     22  C   UNL     1      -1.386  14.448  23.527  0.00  0.00    +0.000 A 
ATOM     23  C   UNL     1      -0.654  13.534  22.762  0.00  0.00    +0.000 A 
ATOM     24  C   UNL     1      -1.163  12.267  22.470  0.00  0.00    +0.000 A 
ATOM     25  C   UNL     1      -2.441  11.941  22.938  0.00  0.00    +0.000 A 
ATOM     26  C   UNL     1      -3.172  12.852  23.717  0.00  0.00    +0.000 A 
ENDBRANCH  16  24
ENDBRANCH   1  17
TORSDOF 4
ENDMDL
MODEL 3
REMARK VINA RESULT:      -7.9      0.281      1.173
REMARK  Name = 
REMARK  6 active torsions:
REMARK  status: ('A' for Active; 'I' for Inactive)
REMARK    1  A    between atoms: C_1  and  C_2
REMARK    2  A    between atoms: C_5  and  N_6
REMARK    3  A    between atoms: C_7  and  C_9
REMARK    4  A    between atoms: C_11  and  C_12
REMARK    5  A    between atoms: N_13  and  C_14
REMARK    6  A    between atoms: C_17  and  N_18
REMARK                            x       y       z     vdW  Elec       q    Type
REMARK                         _______ _______ _______ _____ _____    ______ ____
ROOT
ATOM      1  C   UNL     1       0.871   9.387  21.089  0.00  0.00    +0.000 A 
ATOM      2  N   UNL     1       1.042   9.839  19.797  0.00  0.00    +0.000 NA
ATOM      3  C   UNL     1       1.568   8.803  19.168  0.00  0.00    +0.000 A 
ATOM      4  C   UNL     1       1.757   8.715  17.700  0.00  0.00    +0.000 C 
ATOM      5  N   UNL     1       1.745   7.754  20.062  0.00  0.00    +0.000 N 
ATOM      6  N   UNL     1       1.252   8.113  21.267  0.00  0.00    +0.000 NA
ENDROOT
BRANCH   5   7
ATOM      7  C   UNL     1       2.253   6.438  19.851  0.00  0.00    +0.000 A 
ATOM      8  C   UNL     1       1.846   5.355  20.644  0.00  0.00    +0.000 A 
ATOM      9  C   UNL     1       2.434   4.096  20.481  0.00  0.00    +0.000 A 
ATOM     10  C   UNL     1       3.428   3.913  19.513  0.00  0.00    +0.000 A 
ATOM     11  C   UNL     1       3.807   4.971  18.679  0.00  0.00    +0.000 A 
ATOM     12  C   UNL     1       3.205   6.227  18.838  0.00  0.00    +0.000 A 
BRANCH  10  13
ATOM     13  N   UNL     1       4.075   2.600  19.378  0.00  0.00    +0.000 N 
ATOM     14  O   UNL     1       3.783   1.917  18.385  0.00  0.00    +0.000 OA
ATOM     15  O   UNL     1       4.865   2.255  20.264  0.00  0.00    +0.000 OA
ENDBRANCH  10  13
ENDBRANCH   5   7
BRANCH   1  17
ATOM     16  N   UNL     1      -0.433  11.318  21.691  0.00  0.00    +0.000 N 
ATOM     17  C   UNL     1       0.268  10.214  22.167  0.00  0.00    +0.000 C 
ATOM     18  O   UNL     1       0.368   9.891  23.350  0.00  0.00    +0.000 OA
ATOM     19  H   UNL     1      -0.512  11.380  20.680  0.00  0.00    +0.000 HD
BRANCH  16  24
ATOM     20  C   UNL     1      -3.339  15.032  24.975  0.00  0.00    +0.000 C 
ATOM     21  C   UNL     1      -2.584  14.077  24.098  0.00  0.00    +0.000 A 
ATOM     22  C   UNL     1      -1.334  14.423  23.584  0.00  0.00    +0.000 A 
ATOM     23  C   UNL     1      -0.618  13.527  22.782  0.00  0.00    +0.000 A 
ATOM     24  C   UNL     1      -1.134  12.267  22.473  0.00  0.00    +0.000 A 
ATOM     25  C   UNL     1      -2.402  11.930  22.961  0.00  0.00    +0.000 A 
ATOM     26  C   UNL     1      -3.115  12.823  23.776  0.00  0.00    +0.000 A 
ENDBRANCH  16  24
ENDBRANCH   1  17
TORSDOF 4
ENDMDL
MODEL 4
REMARK VINA RESULT:      -7.8      0.456      1.203
REMARK  Name = 
REMARK  6 active torsions:
REMARK  status: ('A' for Active; 'I' for Inactive)
REMARK    1  A    between atoms: C_1  and  C_2
REMARK    2  A    between atoms: C_5  and  N_6
REMARK    3  A    between atoms: C_7  and  C_9
REMARK    4  A    between atoms: C_11  and  C_12
REMARK    5  A    between atoms: N_13  and  C_14
REMARK    6  A    between atoms: C_17  and  N_18
REMARK                            x       y       z     vdW  Elec       q    Type
REMARK                         _______ _______ _______ _____ _____    ______ ____
ROOT
ATOM      1  C   UNL     1       0.771   9.492  21.128  0.00  0.00    +0.000 A 
ATOM      2  N   UNL     1       0.914   9.962  19.839  0.00  0.00    +0.000 NA
ATOM      3  C   UNL     1       1.480   8.956  19.197  0.00  0.00    +0.000 A 
ATOM      4  C   UNL     1       1.662   8.890  17.726  0.00  0.00    +0.000 C 
ATOM      5  N   UNL     1       1.709   7.908  20.079  0.00  0.00    +0.000 N 
ATOM      6  N   UNL     1       1.210   8.233  21.291  0.00  0.00    +0.000 NA
ENDROOT
BRANCH   5   7
ATOM      7  C   UNL     1       2.273   6.617  19.852  0.00  0.00    +0.000 A 
ATOM      8  C   UNL     1       3.221   6.394  18.843  0.00  0.00    +0.000 A 
ATOM      9  C   UNL     1       3.682   5.100  18.577  0.00  0.00    +0.000 A 
ATOM     10  C   UNL     1       3.202   4.022  19.330  0.00  0.00    +0.000 A 
ATOM     11  C   UNL     1       2.295   4.237  20.375  0.00  0.00    +0.000 A 
ATOM     12  C   UNL     1       1.847   5.537  20.645  0.00  0.00    +0.000 A 
BRANCH  10  13
ATOM     13  N   UNL     1       3.655   2.659  19.016  0.00  0.00    +0.000 N 
ATOM     14  O   UNL     1       3.372   2.205  17.897  0.00  0.00    +0.000 OA
ATOM     15  O   UNL     1       4.284   2.049  19.888  0.00  0.00    +0.000 OA
ENDBRANCH  10  13
ENDBRANCH   5   7
BRANCH   1  17
ATOM     16  N   UNL     1      -0.577  11.383  21.759  0.00  0.00    +0.000 N 
ATOM     17  C   UNL     1       0.141  10.282  22.218  0.00  0.00    +0.000 C 
ATOM     18  O   UNL     1       0.235   9.933  23.394  0.00  0.00    +0.000 OA
ATOM     19  H   UNL     1      -0.646  11.467  20.749  0.00  0.00    +0.000 HD
BRANCH  16  24
ATOM     20  C   UNL     1      -3.472  15.242  24.881  0.00  0.00    +0.000 C 
ATOM     21  C   UNL     1      -2.713  14.220  24.086  0.00  0.00    +0.000 A 
ATOM     22  C   UNL     1      -3.265  12.965  23.834  0.00  0.00    +0.000 A 
ATOM     23  C   UNL     1      -2.569  12.017  23.076  0.00  0.00    +0.000 A 
ATOM     24  C   UNL     1      -1.304  12.299  22.555  0.00  0.00    +0.000 A 
ATOM     25  C   UNL     1      -0.734  13.547  22.833  0.00  0.00    +0.000 A 
ATOM     26  C   UNL     1      -1.437  14.503  23.583  0.00  0.00    +0.000 A 
ENDBRANCH  16  24
ENDBRANCH   1  17
TORSDOF 4
ENDMDL
MODEL 5
REMARK VINA RESULT:      -7.8      6.987      8.394
REMARK  Name = 
REMARK  6 active torsions:
REMARK  status: ('A' for Active; 'I' for Inactive)
REMARK    1  A    between atoms: C_1  and  C_2
REMARK    2  A    between atoms: C_5  and  N_6
REMARK    3  A    between atoms: C_7  and  C_9
REMARK    4  A    between atoms: C_11  and  C_12
REMARK    5  A    between atoms: N_13  and  C_14
REMARK    6  A    between atoms: C_17  and  N_18
REMARK                            x       y       z     vdW  Elec       q    Type
REMARK                         _______ _______ _______ _____ _____    ______ ____
ROOT
ATOM      1  C   UNL     1       7.049   6.886  17.590  0.00  0.00    +0.000 A 
ATOM      2  N   UNL     1       7.163   6.438  16.290  0.00  0.00    +0.000 NA
ATOM      3  C   UNL     1       6.121   5.640  16.139  0.00  0.00    +0.000 A 
ATOM      4  C   UNL     1       5.682   5.062  14.845  0.00  0.00    +0.000 C 
ATOM      5  N   UNL     1       5.407   5.573  17.329  0.00  0.00    +0.000 N 
ATOM      6  N   UNL     1       5.970   6.407  18.230  0.00  0.00    +0.000 NA
ENDROOT
BRANCH   5   7
ATOM      7  C   UNL     1       4.209   4.867  17.648  0.00  0.00    +0.000 A 
ATOM      8  C   UNL     1       3.019   5.538  17.961  0.00  0.00    +0.000 A 
ATOM      9  C   UNL     1       1.887   4.823  18.368  0.00  0.00    +0.000 A 
ATOM     10  C   UNL     1       1.940   3.427  18.452  0.00  0.00    +0.000 A 
ATOM     11  C   UNL     1       3.105   2.740  18.092  0.00  0.00    +0.000 A 
ATOM     12  C   UNL     1       4.232   3.461  17.672  0.00  0.00    +0.000 A 
BRANCH  10  13
ATOM     13  N   UNL     1       0.762   2.684  18.924  0.00  0.00    +0.000 N 
ATOM     14  O   UNL     1       0.277   1.835  18.161  0.00  0.00    +0.000 OA
ATOM     15  O   UNL     1       0.326   2.954  20.048  0.00  0.00    +0.000 OA
ENDBRANCH  10  13
ENDBRANCH   5   7
BRANCH   1  17
ATOM     16  N   UNL     1       7.839   9.153  17.746  0.00  0.00    +0.000 N 
ATOM     17  C   UNL     1       7.999   7.850  18.206  0.00  0.00    +0.000 C 
ATOM     18  O   UNL     1       8.802   7.492  19.066  0.00  0.00    +0.000 OA
ATOM     19  H   UNL     1       7.056   9.299  17.115  0.00  0.00    +0.000 HD
BRANCH  16  24
ATOM     20  C   UNL     1      10.677  13.860  19.421  0.00  0.00    +0.000 C 
ATOM     21  C   UNL     1       9.957  12.622  18.976  0.00  0.00    +0.000 A 
ATOM     22  C   UNL     1      10.143  11.413  19.647  0.00  0.00    +0.000 A 
ATOM     23  C   UNL     1       9.458  10.260  19.247  0.00  0.00    +0.000 A 
ATOM     24  C   UNL     1       8.574  10.287  18.167  0.00  0.00    +0.000 A 
ATOM     25  C   UNL     1       8.410  11.490  17.471  0.00  0.00    +0.000 A 
ATOM     26  C   UNL     1       9.087  12.650  17.880  0.00  0.00    +0.000 A 
ENDBRANCH  16  24
ENDBRANCH   1  17
TORSDOF 4
ENDMDL
MODEL 6
REMARK VINA RESULT:      -7.8      7.134      8.600
REMARK  Name = 
REMARK  6 active torsions:
REMARK  status: ('A' for Active; 'I' for Inactive)
REMARK    1  A    between atoms: C_1  and  C_2
REMARK    2  A    between atoms: C_5  and  N_6
REMARK    3  A    between atoms: C_7  and  C_9
REMARK    4  A    between atoms: C_11  and  C_12
REMARK    5  A    between atoms: N_13  and  C_14
REMARK    6  A    between atoms: C_17  and  N_18
REMARK                            x       y       z     vdW  Elec       q    Type
REMARK                         _______ _______ _______ _____ _____    ______ ____
ROOT
ATOM      1  C   UNL     1       7.171   6.824  17.758  0.00  0.00    +0.000 A 
ATOM      2  N   UNL     1       7.167   6.547  16.407  0.00  0.00    +0.000 NA
ATOM      3  C   UNL     1       6.107   5.775  16.246  0.00  0.00    +0.000 A 
ATOM      4  C   UNL     1       5.551   5.368  14.932  0.00  0.00    +0.000 C 
ATOM      5  N   UNL     1       5.496   5.557  17.474  0.00  0.00    +0.000 N 
ATOM      6  N   UNL     1       6.145   6.269  18.423  0.00  0.00    +0.000 NA
ENDROOT
BRANCH   5   7
ATOM      7  C   UNL     1       4.322   4.817  17.803  0.00  0.00    +0.000 A 
ATOM      8  C   UNL     1       3.042   5.380  17.699  0.00  0.00    +0.000 A 
ATOM      9  C   UNL     1       1.916   4.666  18.123  0.00  0.00    +0.000 A 
ATOM     10  C   UNL     1       2.066   3.377  18.645  0.00  0.00    +0.000 A 
ATOM     11  C   UNL     1       3.332   2.781  18.706  0.00  0.00    +0.000 A 
ATOM     12  C   UNL     1       4.455   3.497  18.268  0.00  0.00    +0.000 A 
BRANCH  10  13
ATOM     13  N   UNL     1       0.885   2.649  19.132  0.00  0.00    +0.000 N 
ATOM     14  O   UNL     1       0.180   2.073  18.290  0.00  0.00    +0.000 OA
ATOM     15  O   UNL     1       0.665   2.660  20.348  0.00  0.00    +0.000 OA
ENDBRANCH  10  13
ENDBRANCH   5   7
BRANCH   1  17
ATOM     16  N   UNL     1       8.149   9.014  17.948  0.00  0.00    +0.000 N 
ATOM     17  C   UNL     1       8.181   7.700  18.406  0.00  0.00    +0.000 C 
ATOM     18  O   UNL     1       8.923   7.272  19.289  0.00  0.00    +0.000 OA
ATOM     19  H   UNL     1       7.402   9.229  17.295  0.00  0.00    +0.000 HD
BRANCH  16  24
ATOM     20  C   UNL     1      11.523  13.229  19.914  0.00  0.00    +0.000 C 
ATOM     21  C   UNL     1      10.627  12.146  19.391  0.00  0.00    +0.000 A 
ATOM     22  C   UNL     1      10.525  11.909  18.020  0.00  0.00    +0.000 A 
ATOM     23  C   UNL     1       9.706  10.886  17.530  0.00  0.00    +0.000 A 
ATOM     24  C   UNL     1       8.967  10.078  18.397  0.00  0.00    +0.000 A 
ATOM     25  C   UNL     1       9.042  10.334  19.771  0.00  0.00    +0.000 A 
ATOM     26  C   UNL     1       9.874  11.352  20.264  0.00  0.00    +0.000 A 
ENDBRANCH  16  24
ENDBRANCH   1  17
TORSDOF 4
ENDMDL
MODEL 7
REMARK VINA RESULT:      -7.7      3.953      5.881
REMARK  Name = 
REMARK  6 active torsions:
REMARK  status: ('A' for Active; 'I' for Inactive)
REMARK    1  A    between atoms: C_1  and  C_2
REMARK    2  A    between atoms: C_5  and  N_6
REMARK    3  A    between atoms: C_7  and  C_9
REMARK    4  A    between atoms: C_11  and  C_12
REMARK    5  A    between atoms: N_13  and  C_14
REMARK    6  A    between atoms: C_17  and  N_18
REMARK                            x       y       z     vdW  Elec       q    Type
REMARK                         _______ _______ _______ _____ _____    ______ ____
ROOT
ATOM      1  C   UNL     1       2.784   5.089  19.088  0.00  0.00    +0.000 A 
ATOM      2  N   UNL     1       2.694   3.713  19.112  0.00  0.00    +0.000 NA
ATOM      3  C   UNL     1       3.527   3.325  18.162  0.00  0.00    +0.000 A 
ATOM      4  C   UNL     1       3.939   1.921  17.924  0.00  0.00    +0.000 C 
ATOM      5  N   UNL     1       4.086   4.439  17.549  0.00  0.00    +0.000 N 
ATOM      6  N   UNL     1       3.652   5.554  18.175  0.00  0.00    +0.000 NA
ENDROOT
BRANCH   5   7
ATOM      7  C   UNL     1       5.046   4.528  16.497  0.00  0.00    +0.000 A 
ATOM      8  C   UNL     1       6.361   4.954  16.733  0.00  0.00    +0.000 A 
ATOM      9  C   UNL     1       7.252   5.128  15.669  0.00  0.00    +0.000 A 
ATOM     10  C   UNL     1       6.832   4.866  14.360  0.00  0.00    +0.000 A 
ATOM     11  C   UNL     1       5.538   4.390  14.114  0.00  0.00    +0.000 A 
ATOM     12  C   UNL     1       4.654   4.205  15.186  0.00  0.00    +0.000 A 
BRANCH  10  13
ATOM     13  N   UNL     1       7.758   5.095  13.241  0.00  0.00    +0.000 N 
ATOM     14  O   UNL     1       8.700   5.879  13.428  0.00  0.00    +0.000 OA
ATOM     15  O   UNL     1       7.537   4.497  12.182  0.00  0.00    +0.000 OA
ENDBRANCH  10  13
ENDBRANCH   5   7
BRANCH   1  17
ATOM     16  N   UNL     1       2.081   7.316  19.669  0.00  0.00    +0.000 N 
ATOM     17  C   UNL     1       2.034   5.970  20.021  0.00  0.00    +0.000 C 
ATOM     18  O   UNL     1       1.412   5.505  20.975  0.00  0.00    +0.000 OA
ATOM     19  H   UNL     1       2.548   7.519  18.790  0.00  0.00    +0.000 HD
BRANCH  16  24
ATOM     20  C   UNL     1      -0.638  11.649  22.286  0.00  0.00    +0.000 C 
ATOM     21  C   UNL     1       0.094  10.526  21.612  0.00  0.00    +0.000 A 
ATOM     22  C   UNL     1       0.660   9.496  22.364  0.00  0.00    +0.000 A 
ATOM     23  C   UNL     1       1.326   8.437  21.737  0.00  0.00    +0.000 A 
ATOM     24  C   UNL     1       1.443   8.382  20.347  0.00  0.00    +0.000 A 
ATOM     25  C   UNL     1       0.904   9.430  19.592  0.00  0.00    +0.000 A 
ATOM     26  C   UNL     1       0.225  10.487  20.219  0.00  0.00    +0.000 A 
ENDBRANCH  16  24
ENDBRANCH   1  17
TORSDOF 4
ENDMDL
MODEL 8
REMARK VINA RESULT:      -7.7      7.296      8.594
REMARK  Name = 
REMARK  6 active torsions:
REMARK  status: ('A' for Active; 'I' for Inactive)
REMARK    1  A    between atoms: C_1  and  C_2
REMARK    2  A    between atoms: C_5  and  N_6
REMARK    3  A    between atoms: C_7  and  C_9
REMARK    4  A    between atoms: C_11  and  C_12
REMARK    5  A    between atoms: N_13  and  C_14
REMARK    6  A    between atoms: C_17  and  N_18
REMARK                            x       y       z     vdW  Elec       q    Type
REMARK                         _______ _______ _______ _____ _____    ______ ____
ROOT
ATOM      1  C   UNL     1       7.124   7.514  17.479  0.00  0.00    +0.000 A 
ATOM      2  N   UNL     1       7.710   6.605  16.623  0.00  0.00    +0.000 NA
ATOM      3  C   UNL     1       6.926   5.545  16.704  0.00  0.00    +0.000 A 
ATOM      4  C   UNL     1       7.017   4.359  15.818  0.00  0.00    +0.000 C 
ATOM      5  N   UNL     1       5.903   5.788  17.613  0.00  0.00    +0.000 N 
ATOM      6  N   UNL     1       6.004   7.058  18.061  0.00  0.00    +0.000 NA
ENDROOT
BRANCH   5   7
ATOM      7  C   UNL     1       4.812   4.963  18.017  0.00  0.00    +0.000 A 
ATOM      8  C   UNL     1       3.515   5.164  17.525  0.00  0.00    +0.000 A 
ATOM      9  C   UNL     1       2.445   4.405  18.014  0.00  0.00    +0.000 A 
ATOM     10  C   UNL     1       2.673   3.431  18.992  0.00  0.00    +0.000 A 
ATOM     11  C   UNL     1       3.972   3.183  19.454  0.00  0.00    +0.000 A 
ATOM     12  C   UNL     1       5.041   3.937  18.951  0.00  0.00    +0.000 A 
BRANCH  10  13
ATOM     13  N   UNL     1       1.540   2.669  19.535  0.00  0.00    +0.000 N 
ATOM     14  O   UNL     1       0.729   2.193  18.727  0.00  0.00    +0.000 OA
ATOM     15  O   UNL     1       1.462   2.554  20.764  0.00  0.00    +0.000 OA
ENDBRANCH  10  13
ENDBRANCH   5   7
BRANCH   1  17
ATOM     16  N   UNL     1       8.657   8.953  18.649  0.00  0.00    +0.000 N 
ATOM     17  C   UNL     1       7.650   8.888  17.691  0.00  0.00    +0.000 C 
ATOM     18  O   UNL     1       7.235   9.839  17.029  0.00  0.00    +0.000 OA
ATOM     19  H   UNL     1       8.958   8.059  19.024  0.00  0.00    +0.000 HD
BRANCH  16  24
ATOM     20  C   UNL     1      11.481  13.745  20.091  0.00  0.00    +0.000 C 
ATOM     21  C   UNL     1      10.760  12.481  19.727  0.00  0.00    +0.000 A 
ATOM     22  C   UNL     1      10.068  11.755  20.697  0.00  0.00    +0.000 A 
ATOM     23  C   UNL     1       9.378  10.586  20.357  0.00  0.00    +0.000 A 
ATOM     24  C   UNL     1       9.365  10.113  19.043  0.00  0.00    +0.000 A 
ATOM     25  C   UNL     1      10.084  10.822  18.075  0.00  0.00    +0.000 A 
ATOM     26  C   UNL     1      10.766  12.002  18.412  0.00  0.00    +0.000 A 
ENDBRANCH  16  24
ENDBRANCH   1  17
TORSDOF 4
ENDMDL
MODEL 9
REMARK VINA RESULT:      -7.6      3.064      4.106
REMARK  Name = 
REMARK  6 active torsions:
REMARK  status: ('A' for Active; 'I' for Inactive)
REMARK    1  A    between atoms: C_1  and  C_2
REMARK    2  A    between atoms: C_5  and  N_6
REMARK    3  A    between atoms: C_7  and  C_9
REMARK    4  A    between atoms: C_11  and  C_12
REMARK    5  A    between atoms: N_13  and  C_14
REMARK    6  A    between atoms: C_17  and  N_18
REMARK                            x       y       z     vdW  Elec       q    Type
REMARK                         _______ _______ _______ _____ _____    ______ ____
ROOT
ATOM      1  C   UNL     1       1.860   7.376  20.110  0.00  0.00    +0.000 A 
ATOM      2  N   UNL     1       1.782   6.124  20.683  0.00  0.00    +0.000 NA
ATOM      3  C   UNL     1       2.501   5.362  19.877  0.00  0.00    +0.000 A 
ATOM      4  C   UNL     1       2.891   3.961  20.167  0.00  0.00    +0.000 C 
ATOM      5  N   UNL     1       2.978   6.124  18.818  0.00  0.00    +0.000 N 
ATOM      6  N   UNL     1       2.613   7.412  18.999  0.00  0.00    +0.000 NA
ENDROOT
BRANCH   5   7
ATOM      7  C   UNL     1       3.808   5.756  17.718  0.00  0.00    +0.000 A 
ATOM      8  C   UNL     1       3.899   4.428  17.275  0.00  0.00    +0.000 A 
ATOM      9  C   UNL     1       4.797   4.079  16.259  0.00  0.00    +0.000 A 
ATOM     10  C   UNL     1       5.600   5.063  15.673  0.00  0.00    +0.000 A 
ATOM     11  C   UNL     1       5.482   6.401  16.068  0.00  0.00    +0.000 A 
ATOM     12  C   UNL     1       4.572   6.747  17.077  0.00  0.00    +0.000 A 
BRANCH  10  13
ATOM     13  N   UNL     1       6.573   4.684  14.639  0.00  0.00    +0.000 N 
ATOM     14  O   UNL     1       7.616   5.350  14.560  0.00  0.00    +0.000 OA
ATOM     15  O   UNL     1       6.290   3.728  13.907  0.00  0.00    +0.000 OA
ENDBRANCH  10  13
ENDBRANCH   5   7
BRANCH   1  17
ATOM     16  N   UNL     1       0.857   9.533  19.750  0.00  0.00    +0.000 N 
ATOM     17  C   UNL     1       1.219   8.581  20.698  0.00  0.00    +0.000 C 
ATOM     18  O   UNL     1       1.011   8.666  21.907  0.00  0.00    +0.000 OA
ATOM     19  H   UNL     1       1.001   9.260  18.782  0.00  0.00    +0.000 HD
BRANCH  16  24
ATOM     20  C   UNL     1      -1.941  14.438  20.813  0.00  0.00    +0.000 C 
ATOM     21  C   UNL     1      -1.196  13.169  20.520  0.00  0.00    +0.000 A 
ATOM     22  C   UNL     1       0.120  13.004  20.952  0.00  0.00    +0.000 A 
ATOM     23  C   UNL     1       0.812  11.814  20.697  0.00  0.00    +0.000 A 
ATOM     24  C   UNL     1       0.207  10.764  20.004  0.00  0.00    +0.000 A 
ATOM     25  C   UNL     1      -1.103  10.940  19.542  0.00  0.00    +0.000 A 
ATOM     26  C   UNL     1      -1.802  12.128  19.807  0.00  0.00    +0.000 A 
ENDBRANCH  16  24
ENDBRANCH   1  17
TORSDOF 4
ENDMDL
