MODEL 1
REMARK VINA RESULT:      -6.7      0.000      0.000
REMARK  Name = 
REMARK  5 active torsions:
REMARK  status: ('A' for Active; 'I' for Inactive)
REMARK    1  A    between atoms: C_1  and  C_2
REMARK    2  A    between atoms: C_6  and  C_7
REMARK    3  A    between atoms: C_7  and  O_9
REMARK    4  A    between atoms: O_9  and  C_10
REMARK    5  A    between atoms: N_13  and  C_14
REMARK                            x       y       z     vdW  Elec       q    Type
REMARK                         _______ _______ _______ _____ _____    ______ ____
ROOT
ATOM      1  C   UNL     1       6.642   4.898  15.996  0.00  0.00    +0.000 C 
ATOM      2  O   UNL     1       7.580   4.691  16.750  0.00  0.00    +0.000 OA
ENDROOT
BRANCH   1   8
ATOM      3  C   UNL     1       5.342   2.508  11.744  0.00  0.00    +0.000 C 
ATOM      4  C   UNL     1       6.156   3.541  12.465  0.00  0.00    +0.000 A 
ATOM      5  C   UNL     1       7.135   4.282  11.788  0.00  0.00    +0.000 A 
ATOM      6  C   UNL     1       7.901   5.228  12.467  0.00  0.00    +0.000 A 
ATOM      7  C   UNL     1       7.703   5.437  13.831  0.00  0.00    +0.000 A 
ATOM      8  C   UNL     1       6.734   4.701  14.525  0.00  0.00    +0.000 A 
ATOM      9  C   UNL     1       5.956   3.759  13.837  0.00  0.00    +0.000 A 
ENDBRANCH   1   8
BRANCH   1  10
ATOM     10  O   UNL     1       5.376   5.216  16.372  0.00  0.00    +0.000 OA
BRANCH  10  11
ATOM     11  C   UNL     1       4.973   4.657  17.635  0.00  0.00    +0.000 C 
ATOM     12  C   UNL     1       4.094   3.440  17.351  0.00  0.00    +0.000 C 
ATOM     13  C   UNL     1       3.541   2.858  18.642  0.00  0.00    +0.000 C 
ATOM     14  N   UNL     1       2.804   3.872  19.411  0.00  0.00    +0.000 NA
ATOM     15  C   UNL     1       2.280   3.276  20.643  0.00  0.00    +0.000 C 
ATOM     16  C   UNL     1       3.641   5.040  19.717  0.00  0.00    +0.000 C 
ATOM     17  C   UNL     1       4.183   5.684  18.440  0.00  0.00    +0.000 C 
ENDBRANCH  10  11
ENDBRANCH   1  10
TORSDOF 3
ENDMDL
MODEL 2
REMARK VINA RESULT:      -6.7      2.626      6.736
REMARK  Name = 
REMARK  5 active torsions:
REMARK  status: ('A' for Active; 'I' for Inactive)
REMARK    1  A    between atoms: C_1  and  C_2
REMARK    2  A    between atoms: C_6  and  C_7
REMARK    3  A    between atoms: C_7  and  O_9
REMARK    4  A    between atoms: O_9  and  C_10
REMARK    5  A    between atoms: N_13  and  C_14
REMARK                            x       y       z     vdW  Elec       q    Type
REMARK                         _______ _______ _______ _____ _____    ______ ____
ROOT
ATOM      1  C   UNL     1       2.909   6.437  19.118  0.00  0.00    +0.000 C 
ATOM      2  O   UNL     1       2.311   7.492  18.972  0.00  0.00    +0.000 OA
ENDROOT
BRANCH   1   8
ATOM      3  C   UNL     1       1.496   2.498  21.941  0.00  0.00    +0.000 C 
ATOM      4  C   UNL     1       1.550   3.205  20.619  0.00  0.00    +0.000 A 
ATOM      5  C   UNL     1       1.045   2.598  19.461  0.00  0.00    +0.000 A 
ATOM      6  C   UNL     1       1.113   3.253  18.232  0.00  0.00    +0.000 A 
ATOM      7  C   UNL     1       1.695   4.516  18.147  0.00  0.00    +0.000 A 
ATOM      8  C   UNL     1       2.211   5.136  19.293  0.00  0.00    +0.000 A 
ATOM      9  C   UNL     1       2.130   4.480  20.529  0.00  0.00    +0.000 A 
ENDBRANCH   1   8
BRANCH   1  10
ATOM     10  O   UNL     1       4.253   6.268  19.031  0.00  0.00    +0.000 OA
BRANCH  10  11
ATOM     11  C   UNL     1       4.695   5.639  17.815  0.00  0.00    +0.000 C 
ATOM     12  C   UNL     1       6.101   5.090  18.054  0.00  0.00    +0.000 C 
ATOM     13  C   UNL     1       6.678   4.503  16.775  0.00  0.00    +0.000 C 
ATOM     14  N   UNL     1       6.678   5.492  15.688  0.00  0.00    +0.000 NA
ATOM     15  C   UNL     1       7.246   4.897  14.475  0.00  0.00    +0.000 C 
ATOM     16  C   UNL     1       5.330   6.014  15.425  0.00  0.00    +0.000 C 
ATOM     17  C   UNL     1       4.728   6.655  16.677  0.00  0.00    +0.000 C 
ENDBRANCH  10  11
ENDBRANCH   1  10
TORSDOF 3
ENDMDL
MODEL 3
REMARK VINA RESULT:      -6.7      1.020      1.048
REMARK  Name = 
REMARK  5 active torsions:
REMARK  status: ('A' for Active; 'I' for Inactive)
REMARK    1  A    between atoms: C_1  and  C_2
REMARK    2  A    between atoms: C_6  and  C_7
REMARK    3  A    between atoms: C_7  and  O_9
REMARK    4  A    between atoms: O_9  and  C_10
REMARK    5  A    between atoms: N_13  and  C_14
REMARK                            x       y       z     vdW  Elec       q    Type
REMARK                         _______ _______ _______ _____ _____    ______ ____
ROOT
ATOM      1  C   UNL     1       5.698   4.388  16.158  0.00  0.00    +0.000 C 
ATOM      2  O   UNL     1       6.511   4.415  17.070  0.00  0.00    +0.000 OA
ENDROOT
BRANCH   1   8
ATOM      3  C   UNL     1       5.238   2.568  11.472  0.00  0.00    +0.000 C 
ATOM      4  C   UNL     1       5.925   3.456  12.467  0.00  0.00    +0.000 A 
ATOM      5  C   UNL     1       7.061   4.193  12.104  0.00  0.00    +0.000 A 
ATOM      6  C   UNL     1       7.707   5.003  13.038  0.00  0.00    +0.000 A 
ATOM      7  C   UNL     1       7.227   5.078  14.344  0.00  0.00    +0.000 A 
ATOM      8  C   UNL     1       6.097   4.343  14.727  0.00  0.00    +0.000 A 
ATOM      9  C   UNL     1       5.444   3.539  13.783  0.00  0.00    +0.000 A 
ENDBRANCH   1   8
BRANCH   1  10
ATOM     10  O   UNL     1       4.352   4.278  16.298  0.00  0.00    +0.000 OA
BRANCH  10  11
ATOM     11  C   UNL     1       3.909   4.082  17.652  0.00  0.00    +0.000 C 
ATOM     12  C   UNL     1       3.591   2.599  17.832  0.00  0.00    +0.000 C 
ATOM     13  C   UNL     1       3.013   2.332  19.214  0.00  0.00    +0.000 C 
ATOM     14  N   UNL     1       1.823   3.159  19.462  0.00  0.00    +0.000 NA
ATOM     15  C   UNL     1       1.289   2.872  20.796  0.00  0.00    +0.000 C 
ATOM     16  C   UNL     1       2.115   4.592  19.319  0.00  0.00    +0.000 C 
ATOM     17  C   UNL     1       2.658   4.911  17.925  0.00  0.00    +0.000 C 
ENDBRANCH  10  11
ENDBRANCH   1  10
TORSDOF 3
ENDMDL
MODEL 4
REMARK VINA RESULT:      -6.6      2.538      4.145
REMARK  Name = 
REMARK  5 active torsions:
REMARK  status: ('A' for Active; 'I' for Inactive)
REMARK    1  A    between atoms: C_1  and  C_2
REMARK    2  A    between atoms: C_6  and  C_7
REMARK    3  A    between atoms: C_7  and  O_9
REMARK    4  A    between atoms: O_9  and  C_10
REMARK    5  A    between atoms: N_13  and  C_14
REMARK                            x       y       z     vdW  Elec       q    Type
REMARK                         _______ _______ _______ _____ _____    ______ ____
ROOT
ATOM      1  C   UNL     1       5.809   4.658  16.012  0.00  0.00    +0.000 C 
ATOM      2  O   UNL     1       6.342   3.978  15.148  0.00  0.00    +0.000 OA
ENDROOT
BRANCH   1   8
ATOM      3  C   UNL     1       7.919   8.944  17.641  0.00  0.00    +0.000 C 
ATOM      4  C   UNL     1       7.645   7.478  17.806  0.00  0.00    +0.000 A 
ATOM      5  C   UNL     1       8.220   6.756  18.860  0.00  0.00    +0.000 A 
ATOM      6  C   UNL     1       7.977   5.390  18.998  0.00  0.00    +0.000 A 
ATOM      7  C   UNL     1       7.162   4.732  18.078  0.00  0.00    +0.000 A 
ATOM      8  C   UNL     1       6.584   5.436  17.014  0.00  0.00    +0.000 A 
ATOM      9  C   UNL     1       6.821   6.812  16.886  0.00  0.00    +0.000 A 
ENDBRANCH   1   8
BRANCH   1  10
ATOM     10  O   UNL     1       4.477   4.899  16.122  0.00  0.00    +0.000 OA
BRANCH  10  11
ATOM     11  C   UNL     1       3.909   4.528  17.391  0.00  0.00    +0.000 C 
ATOM     12  C   UNL     1       2.987   3.332  17.160  0.00  0.00    +0.000 C 
ATOM     13  C   UNL     1       2.266   2.949  18.443  0.00  0.00    +0.000 C 
ATOM     14  N   UNL     1       1.520   4.089  18.996  0.00  0.00    +0.000 NA
ATOM     15  C   UNL     1       0.832   3.684  20.225  0.00  0.00    +0.000 C 
ATOM     16  C   UNL     1       2.395   5.242  19.248  0.00  0.00    +0.000 C 
ATOM     17  C   UNL     1       3.108   5.689  17.971  0.00  0.00    +0.000 C 
ENDBRANCH  10  11
ENDBRANCH   1  10
TORSDOF 3
ENDMDL
MODEL 5
REMARK VINA RESULT:      -6.6      0.929      1.317
REMARK  Name = 
REMARK  5 active torsions:
REMARK  status: ('A' for Active; 'I' for Inactive)
REMARK    1  A    between atoms: C_1  and  C_2
REMARK    2  A    between atoms: C_6  and  C_7
REMARK    3  A    between atoms: C_7  and  O_9
REMARK    4  A    between atoms: O_9  and  C_10
REMARK    5  A    between atoms: N_13  and  C_14
REMARK                            x       y       z     vdW  Elec       q    Type
REMARK                         _______ _______ _______ _____ _____    ______ ____
ROOT
ATOM      1  C   UNL     1       6.657   4.480  16.061  0.00  0.00    +0.000 C 
ATOM      2  O   UNL     1       7.516   5.024  16.737  0.00  0.00    +0.000 OA
ENDROOT
BRANCH   1   8
ATOM      3  C   UNL     1       5.255   2.547  11.613  0.00  0.00    +0.000 C 
ATOM      4  C   UNL     1       6.076   3.511  12.418  0.00  0.00    +0.000 A 
ATOM      5  C   UNL     1       7.019   4.341  11.797  0.00  0.00    +0.000 A 
ATOM      6  C   UNL     1       7.792   5.223  12.552  0.00  0.00    +0.000 A 
ATOM      7  C   UNL     1       7.636   5.275  13.936  0.00  0.00    +0.000 A 
ATOM      8  C   UNL     1       6.703   4.448  14.575  0.00  0.00    +0.000 A 
ATOM      9  C   UNL     1       5.919   3.572  13.812  0.00  0.00    +0.000 A 
ENDBRANCH   1   8
BRANCH   1  10
ATOM     10  O   UNL     1       5.621   3.742  16.537  0.00  0.00    +0.000 OA
BRANCH  10  11
ATOM     11  C   UNL     1       4.644   4.497  17.275  0.00  0.00    +0.000 C 
ATOM     12  C   UNL     1       5.085   4.535  18.737  0.00  0.00    +0.000 C 
ATOM     13  C   UNL     1       4.041   5.228  19.599  0.00  0.00    +0.000 C 
ATOM     14  N   UNL     1       2.726   4.585  19.464  0.00  0.00    +0.000 NA
ATOM     15  C   UNL     1       1.748   5.272  20.312  0.00  0.00    +0.000 C 
ATOM     16  C   UNL     1       2.272   4.561  18.066  0.00  0.00    +0.000 C 
ATOM     17  C   UNL     1       3.274   3.833  17.170  0.00  0.00    +0.000 C 
ENDBRANCH  10  11
ENDBRANCH   1  10
TORSDOF 3
ENDMDL
MODEL 6
REMARK VINA RESULT:      -6.5      2.310      3.407
REMARK  Name = 
REMARK  5 active torsions:
REMARK  status: ('A' for Active; 'I' for Inactive)
REMARK    1  A    between atoms: C_1  and  C_2
REMARK    2  A    between atoms: C_6  and  C_7
REMARK    3  A    between atoms: C_7  and  O_9
REMARK    4  A    between atoms: O_9  and  C_10
REMARK    5  A    between atoms: N_13  and  C_14
REMARK                            x       y       z     vdW  Elec       q    Type
REMARK                         _______ _______ _______ _____ _____    ______ ____
ROOT
ATOM      1  C   UNL     1       3.657   6.644  17.563  0.00  0.00    +0.000 C 
ATOM      2  O   UNL     1       3.613   7.812  17.916  0.00  0.00    +0.000 OA
ENDROOT
BRANCH   1   8
ATOM      3  C   UNL     1       6.335   3.909  14.272  0.00  0.00    +0.000 C 
ATOM      4  C   UNL     1       6.221   4.631  15.582  0.00  0.00    +0.000 A 
ATOM      5  C   UNL     1       7.270   4.602  16.510  0.00  0.00    +0.000 A 
ATOM      6  C   UNL     1       7.151   5.261  17.734  0.00  0.00    +0.000 A 
ATOM      7  C   UNL     1       5.979   5.948  18.043  0.00  0.00    +0.000 A 
ATOM      8  C   UNL     1       4.916   5.982  17.131  0.00  0.00    +0.000 A 
ATOM      9  C   UNL     1       5.044   5.329  15.897  0.00  0.00    +0.000 A 
ENDBRANCH   1   8
BRANCH   1  10
ATOM     10  O   UNL     1       2.628   5.760  17.615  0.00  0.00    +0.000 OA
BRANCH  10  11
ATOM     11  C   UNL     1       2.706   4.821  18.702  0.00  0.00    +0.000 C 
ATOM     12  C   UNL     1       1.723   3.687  18.415  0.00  0.00    +0.000 C 
ATOM     13  C   UNL     1       1.672   2.707  19.577  0.00  0.00    +0.000 C 
ATOM     14  N   UNL     1       1.336   3.389  20.835  0.00  0.00    +0.000 NA
ATOM     15  C   UNL     1       1.288   2.416  21.929  0.00  0.00    +0.000 C 
ATOM     16  C   UNL     1       2.286   4.467  21.142  0.00  0.00    +0.000 C 
ATOM     17  C   UNL     1       2.335   5.501  20.016  0.00  0.00    +0.000 C 
ENDBRANCH  10  11
ENDBRANCH   1  10
TORSDOF 3
ENDMDL
MODEL 7
REMARK VINA RESULT:      -6.4      2.647      4.280
REMARK  Name = 
REMARK  5 active torsions:
REMARK  status: ('A' for Active; 'I' for Inactive)
REMARK    1  A    between atoms: C_1  and  C_2
REMARK    2  A    between atoms: C_6  and  C_7
REMARK    3  A    between atoms: C_7  and  O_9
REMARK    4  A    between atoms: O_9  and  C_10
REMARK    5  A    between atoms: N_13  and  C_14
REMARK                            x       y       z     vdW  Elec       q    Type
REMARK                         _______ _______ _______ _____ _____    ______ ____
ROOT
ATOM      1  C   UNL     1       5.687   4.661  16.100  0.00  0.00    +0.000 C 
ATOM      2  O   UNL     1       5.513   5.013  14.943  0.00  0.00    +0.000 OA
ENDROOT
BRANCH   1   8
ATOM      3  C   UNL     1       7.814   8.960  17.670  0.00  0.00    +0.000 C 
ATOM      4  C   UNL     1       7.587   7.485  17.819  0.00  0.00    +0.000 A 
ATOM      5  C   UNL     1       8.258   6.753  18.809  0.00  0.00    +0.000 A 
ATOM      6  C   UNL     1       8.058   5.379  18.931  0.00  0.00    +0.000 A 
ATOM      7  C   UNL     1       7.191   4.722  18.059  0.00  0.00    +0.000 A 
ATOM      8  C   UNL     1       6.517   5.435  17.060  0.00  0.00    +0.000 A 
ATOM      9  C   UNL     1       6.711   6.819  16.948  0.00  0.00    +0.000 A 
ENDBRANCH   1   8
BRANCH   1  10
ATOM     10  O   UNL     1       5.080   3.609  16.709  0.00  0.00    +0.000 OA
BRANCH  10  11
ATOM     11  C   UNL     1       4.029   3.976  17.620  0.00  0.00    +0.000 C 
ATOM     12  C   UNL     1       4.274   3.246  18.939  0.00  0.00    +0.000 C 
ATOM     13  C   UNL     1       3.140   3.502  19.919  0.00  0.00    +0.000 C 
ATOM     14  N   UNL     1       1.842   3.124  19.342  0.00  0.00    +0.000 NA
ATOM     15  C   UNL     1       0.774   3.377  20.314  0.00  0.00    +0.000 C 
ATOM     16  C   UNL     1       1.576   3.836  18.085  0.00  0.00    +0.000 C 
ATOM     17  C   UNL     1       2.673   3.569  17.053  0.00  0.00    +0.000 C 
ENDBRANCH  10  11
ENDBRANCH   1  10
TORSDOF 3
ENDMDL
MODEL 8
REMARK VINA RESULT:      -6.2      2.371      6.682
REMARK  Name = 
REMARK  5 active torsions:
REMARK  status: ('A' for Active; 'I' for Inactive)
REMARK    1  A    between atoms: C_1  and  C_2
REMARK    2  A    between atoms: C_6  and  C_7
REMARK    3  A    between atoms: C_7  and  O_9
REMARK    4  A    between atoms: O_9  and  C_10
REMARK    5  A    between atoms: N_13  and  C_14
REMARK                            x       y       z     vdW  Elec       q    Type
REMARK                         _______ _______ _______ _____ _____    ______ ____
ROOT
ATOM      1  C   UNL     1       2.954   6.351  18.960  0.00  0.00    +0.000 C 
ATOM      2  O   UNL     1       2.250   7.329  18.762  0.00  0.00    +0.000 OA
ENDROOT
BRANCH   1   8
ATOM      3  C   UNL     1       0.438   1.988  18.627  0.00  0.00    +0.000 C 
ATOM      4  C   UNL     1       1.191   3.003  19.435  0.00  0.00    +0.000 A 
ATOM      5  C   UNL     1       1.324   2.858  20.823  0.00  0.00    +0.000 A 
ATOM      6  C   UNL     1       2.010   3.813  21.572  0.00  0.00    +0.000 A 
ATOM      7  C   UNL     1       2.562   4.927  20.941  0.00  0.00    +0.000 A 
ATOM      8  C   UNL     1       2.433   5.093  19.556  0.00  0.00    +0.000 A 
ATOM      9  C   UNL     1       1.753   4.124  18.805  0.00  0.00    +0.000 A 
ENDBRANCH   1   8
BRANCH   1  10
ATOM     10  O   UNL     1       4.250   6.214  18.575  0.00  0.00    +0.000 OA
BRANCH  10  11
ATOM     11  C   UNL     1       4.425   5.604  17.285  0.00  0.00    +0.000 C 
ATOM     12  C   UNL     1       5.328   4.384  17.460  0.00  0.00    +0.000 C 
ATOM     13  C   UNL     1       5.646   3.748  16.116  0.00  0.00    +0.000 C 
ATOM     14  N   UNL     1       6.251   4.721  15.195  0.00  0.00    +0.000 NA
ATOM     15  C   UNL     1       6.551   4.074  13.916  0.00  0.00    +0.000 C 
ATOM     16  C   UNL     1       5.385   5.891  14.993  0.00  0.00    +0.000 C 
ATOM     17  C   UNL     1       5.076   6.589  16.319  0.00  0.00    +0.000 C 
ENDBRANCH  10  11
ENDBRANCH   1  10
TORSDOF 3
ENDMDL
MODEL 9
REMARK VINA RESULT:      -6.2      2.617      4.012
REMARK  Name = 
REMARK  5 active torsions:
REMARK  status: ('A' for Active; 'I' for Inactive)
REMARK    1  A    between atoms: C_1  and  C_2
REMARK    2  A    between atoms: C_6  and  C_7
REMARK    3  A    between atoms: C_7  and  O_9
REMARK    4  A    between atoms: O_9  and  C_10
REMARK    5  A    between atoms: N_13  and  C_14
REMARK                            x       y       z     vdW  Elec       q    Type
REMARK                         _______ _______ _______ _____ _____    ______ ____
ROOT
ATOM      1  C   UNL     1       5.595   4.126  16.189  0.00  0.00    +0.000 C 
ATOM      2  O   UNL     1       6.060   3.357  15.361  0.00  0.00    +0.000 OA
ENDROOT
BRANCH   1   8
ATOM      3  C   UNL     1       8.462   5.376  20.150  0.00  0.00    +0.000 C 
ATOM      4  C   UNL     1       7.784   5.740  18.862  0.00  0.00    +0.000 A 
ATOM      5  C   UNL     1       7.814   7.056  18.383  0.00  0.00    +0.000 A 
ATOM      6  C   UNL     1       7.167   7.392  17.195  0.00  0.00    +0.000 A 
ATOM      7  C   UNL     1       6.477   6.416  16.478  0.00  0.00    +0.000 A 
ATOM      8  C   UNL     1       6.431   5.095  16.945  0.00  0.00    +0.000 A 
ATOM      9  C   UNL     1       7.093   4.759  18.134  0.00  0.00    +0.000 A 
ENDBRANCH   1   8
BRANCH   1  10
ATOM     10  O   UNL     1       4.275   4.297  16.460  0.00  0.00    +0.000 OA
BRANCH  10  11
ATOM     11  C   UNL     1       3.892   3.937  17.798  0.00  0.00    +0.000 C 
ATOM     12  C   UNL     1       3.122   2.619  17.729  0.00  0.00    +0.000 C 
ATOM     13  C   UNL     1       2.590   2.229  19.099  0.00  0.00    +0.000 C 
ATOM     14  N   UNL     1       1.756   3.296  19.670  0.00  0.00    +0.000 NA
ATOM     15  C   UNL     1       1.255   2.884  20.984  0.00  0.00    +0.000 C 
ATOM     16  C   UNL     1       2.486   4.566  19.769  0.00  0.00    +0.000 C 
ATOM     17  C   UNL     1       3.002   5.019  18.402  0.00  0.00    +0.000 C 
ENDBRANCH  10  11
ENDBRANCH   1  10
TORSDOF 3
ENDMDL
