MODEL 1
REMARK VINA RESULT:      -8.3      0.000      0.000
REMARK  Name = 
REMARK  3 active torsions:
REMARK  status: ('A' for Active; 'I' for Inactive)
REMARK    1  A    between atoms: O_1  and  C_2
REMARK    2  A    between atoms: C_6  and  C_7
REMARK    3  A    between atoms: C_9  and  C_10
REMARK                            x       y       z     vdW  Elec       q    Type
REMARK                         _______ _______ _______ _____ _____    ______ ____
ROOT
ATOM      1  C   UNL     1       6.108   6.017  17.309  0.00  0.00    +0.000 A 
ATOM      2  C   UNL     1       5.041   5.494  18.058  0.00  0.00    +0.000 A 
ATOM      3  C   UNL     1       4.122   4.572  17.529  0.00  0.00    +0.000 A 
ATOM      4  N   UNL     1       4.202   4.111  16.259  0.00  0.00    +0.000 NA
ATOM      5  C   UNL     1       5.270   4.549  15.541  0.00  0.00    +0.000 A 
ATOM      6  C   UNL     1       6.186   5.474  16.028  0.00  0.00    +0.000 A 
ATOM      7  O   UNL     1       7.134   5.738  15.084  0.00  0.00    +0.000 OA
ATOM      8  C   UNL     1       6.863   4.950  14.012  0.00  0.00    +0.000 A 
ATOM      9  C   UNL     1       7.632   4.894  12.853  0.00  0.00    +0.000 A 
ATOM     10  C   UNL     1       7.199   4.012  11.859  0.00  0.00    +0.000 A 
ATOM     11  C   UNL     1       6.053   3.235  12.038  0.00  0.00    +0.000 A 
ATOM     12  C   UNL     1       5.296   3.314  13.218  0.00  0.00    +0.000 A 
ATOM     13  C   UNL     1       5.716   4.195  14.233  0.00  0.00    +0.000 A 
ENDROOT
BRANCH   3  14
ATOM     14  C   UNL     1       3.026   4.048  18.390  0.00  0.00    +0.000 A 
ATOM     15  C   UNL     1       2.174   4.966  19.057  0.00  0.00    +0.000 A 
ATOM     16  C   UNL     1       1.233   4.563  20.008  0.00  0.00    +0.000 A 
ATOM     17  C   UNL     1       1.079   3.215  20.294  0.00  0.00    +0.000 A 
ATOM     18  C   UNL     1       1.852   2.277  19.612  0.00  0.00    +0.000 A 
ATOM     19  C   UNL     1       2.818   2.682  18.673  0.00  0.00    +0.000 A 
ATOM     20 CL   UNL     1       3.753   1.405  17.970  0.00  0.00    +0.000 Cl
ENDBRANCH   3  14
BRANCH   1  25
ATOM     21  C   UNL     1       7.938   9.284  17.842  0.00  0.00    +0.000 A 
ATOM     22  C   UNL     1       8.847   8.963  18.840  0.00  0.00    +0.000 A 
ATOM     23  C   UNL     1       8.863   7.666  19.347  0.00  0.00    +0.000 A 
ATOM     24  C   UNL     1       7.968   6.708  18.858  0.00  0.00    +0.000 A 
ATOM     25  C   UNL     1       7.048   7.014  17.841  0.00  0.00    +0.000 A 
ATOM     26  C   UNL     1       7.054   8.331  17.343  0.00  0.00    +0.000 A 
BRANCH  21  27
ATOM     27  O   UNL     1       7.873  10.541  17.317  0.00  0.00    +0.000 OA
ATOM     28  H   UNL     1       7.992  10.483  16.358  0.00  0.00    +0.000 HD
ENDBRANCH  21  27
ENDBRANCH   1  25
TORSDOF 3
ENDMDL
MODEL 2
REMARK VINA RESULT:      -8.1      1.070      1.409
REMARK  Name = 
REMARK  3 active torsions:
REMARK  status: ('A' for Active; 'I' for Inactive)
REMARK    1  A    between atoms: O_1  and  C_2
REMARK    2  A    between atoms: C_6  and  C_7
REMARK    3  A    between atoms: C_9  and  C_10
REMARK                            x       y       z     vdW  Elec       q    Type
REMARK                         _______ _______ _______ _____ _____    ______ ____
ROOT
ATOM      1  C   UNL     1       6.158   6.000  17.285  0.00  0.00    +0.000 A 
ATOM      2  C   UNL     1       5.101   5.452  18.031  0.00  0.00    +0.000 A 
ATOM      3  C   UNL     1       4.196   4.520  17.496  0.00  0.00    +0.000 A 
ATOM      4  N   UNL     1       4.282   4.072  16.221  0.00  0.00    +0.000 NA
ATOM      5  C   UNL     1       5.341   4.534  15.505  0.00  0.00    +0.000 A 
ATOM      6  C   UNL     1       6.243   5.470  15.999  0.00  0.00    +0.000 A 
ATOM      7  O   UNL     1       7.185   5.758  15.056  0.00  0.00    +0.000 OA
ATOM      8  C   UNL     1       6.925   4.975  13.977  0.00  0.00    +0.000 A 
ATOM      9  C   UNL     1       7.693   4.943  12.816  0.00  0.00    +0.000 A 
ATOM     10  C   UNL     1       7.272   4.062  11.815  0.00  0.00    +0.000 A 
ATOM     11  C   UNL     1       6.139   3.265  11.989  0.00  0.00    +0.000 A 
ATOM     12  C   UNL     1       5.384   3.321  13.171  0.00  0.00    +0.000 A 
ATOM     13  C   UNL     1       5.790   4.200  14.194  0.00  0.00    +0.000 A 
ENDROOT
BRANCH   3  14
ATOM     14  C   UNL     1       3.111   3.970  18.354  0.00  0.00    +0.000 A 
ATOM     15  C   UNL     1       2.863   2.573  18.341  0.00  0.00    +0.000 A 
ATOM     16  C   UNL     1       1.763   2.000  18.984  0.00  0.00    +0.000 A 
ATOM     17  C   UNL     1       0.892   2.803  19.705  0.00  0.00    +0.000 A 
ATOM     18  C   UNL     1       1.139   4.172  19.795  0.00  0.00    +0.000 A 
ATOM     19  C   UNL     1       2.231   4.755  19.127  0.00  0.00    +0.000 A 
ATOM     20 CL   UNL     1       2.357   6.477  19.269  0.00  0.00    +0.000 Cl
ENDBRANCH   3  14
BRANCH   1  25
ATOM     21  C   UNL     1       7.944   9.289  17.836  0.00  0.00    +0.000 A 
ATOM     22  C   UNL     1       8.851   8.976  18.838  0.00  0.00    +0.000 A 
ATOM     23  C   UNL     1       8.881   7.678  19.342  0.00  0.00    +0.000 A 
ATOM     24  C   UNL     1       8.000   6.711  18.845  0.00  0.00    +0.000 A 
ATOM     25  C   UNL     1       7.082   7.008  17.824  0.00  0.00    +0.000 A 
ATOM     26  C   UNL     1       7.074   8.326  17.330  0.00  0.00    +0.000 A 
BRANCH  21  27
ATOM     27  O   UNL     1       7.866  10.546  17.314  0.00  0.00    +0.000 OA
ATOM     28  H   UNL     1       7.992  11.187  18.029  0.00  0.00    +0.000 HD
ENDBRANCH  21  27
ENDBRANCH   1  25
TORSDOF 3
ENDMDL
MODEL 3
REMARK VINA RESULT:      -8.0      7.707     10.480
REMARK  Name = 
REMARK  3 active torsions:
REMARK  status: ('A' for Active; 'I' for Inactive)
REMARK    1  A    between atoms: O_1  and  C_2
REMARK    2  A    between atoms: C_6  and  C_7
REMARK    3  A    between atoms: C_9  and  C_10
REMARK                            x       y       z     vdW  Elec       q    Type
REMARK                         _______ _______ _______ _____ _____    ______ ____
ROOT
ATOM      1  C   UNL     1      -0.957  11.355  18.261  0.00  0.00    +0.000 A 
ATOM      2  C   UNL     1      -0.239  10.161  18.434  0.00  0.00    +0.000 A 
ATOM      3  C   UNL     1       1.131  10.136  18.745  0.00  0.00    +0.000 A 
ATOM      4  N   UNL     1       1.861  11.264  18.910  0.00  0.00    +0.000 NA
ATOM      5  C   UNL     1       1.169  12.431  18.819  0.00  0.00    +0.000 A 
ATOM      6  C   UNL     1      -0.182  12.490  18.495  0.00  0.00    +0.000 A 
ATOM      7  O   UNL     1      -0.600  13.788  18.458  0.00  0.00    +0.000 OA
ATOM      8  C   UNL     1       0.461  14.561  18.806  0.00  0.00    +0.000 A 
ATOM      9  C   UNL     1       0.427  15.947  18.928  0.00  0.00    +0.000 A 
ATOM     10  C   UNL     1       1.620  16.569  19.308  0.00  0.00    +0.000 A 
ATOM     11  C   UNL     1       2.775  15.822  19.548  0.00  0.00    +0.000 A 
ATOM     12  C   UNL     1       2.779  14.424  19.415  0.00  0.00    +0.000 A 
ATOM     13  C   UNL     1       1.587  13.777  19.035  0.00  0.00    +0.000 A 
ENDROOT
BRANCH   3  14
ATOM     14  C   UNL     1       1.822   8.830  18.931  0.00  0.00    +0.000 A 
ATOM     15  C   UNL     1       2.598   8.303  17.866  0.00  0.00    +0.000 A 
ATOM     16  C   UNL     1       3.138   7.014  17.898  0.00  0.00    +0.000 A 
ATOM     17  C   UNL     1       2.958   6.220  19.020  0.00  0.00    +0.000 A 
ATOM     18  C   UNL     1       2.257   6.727  20.112  0.00  0.00    +0.000 A 
ATOM     19  C   UNL     1       1.690   8.014  20.073  0.00  0.00    +0.000 A 
ATOM     20 CL   UNL     1       0.781   8.469  21.476  0.00  0.00    +0.000 Cl
ENDBRANCH   3  14
BRANCH   1  25
ATOM     21  C   UNL     1      -4.148  10.994  16.262  0.00  0.00    +0.000 A 
ATOM     22  C   UNL     1      -5.114  11.444  17.151  0.00  0.00    +0.000 A 
ATOM     23  C   UNL     1      -4.722  11.868  18.418  0.00  0.00    +0.000 A 
ATOM     24  C   UNL     1      -3.372  11.832  18.785  0.00  0.00    +0.000 A 
ATOM     25  C   UNL     1      -2.380  11.390  17.894  0.00  0.00    +0.000 A 
ATOM     26  C   UNL     1      -2.802  10.969  16.619  0.00  0.00    +0.000 A 
BRANCH  21  27
ATOM     27  O   UNL     1      -4.478  10.559  15.013  0.00  0.00    +0.000 OA
ATOM     28  H   UNL     1      -4.591  11.329  14.436  0.00  0.00    +0.000 HD
ENDBRANCH  21  27
ENDBRANCH   1  25
TORSDOF 3
ENDMDL
MODEL 4
REMARK VINA RESULT:      -8.0      7.731     10.029
REMARK  Name = 
REMARK  3 active torsions:
REMARK  status: ('A' for Active; 'I' for Inactive)
REMARK    1  A    between atoms: O_1  and  C_2
REMARK    2  A    between atoms: C_6  and  C_7
REMARK    3  A    between atoms: C_9  and  C_10
REMARK                            x       y       z     vdW  Elec       q    Type
REMARK                         _______ _______ _______ _____ _____    ______ ____
ROOT
ATOM      1  C   UNL     1       0.531  10.672  18.702  0.00  0.00    +0.000 A 
ATOM      2  C   UNL     1      -0.864  10.698  18.539  0.00  0.00    +0.000 A 
ATOM      3  C   UNL     1      -1.604  11.892  18.509  0.00  0.00    +0.000 A 
ATOM      4  N   UNL     1      -1.025  13.110  18.627  0.00  0.00    +0.000 NA
ATOM      5  C   UNL     1       0.332  13.110  18.713  0.00  0.00    +0.000 A 
ATOM      6  C   UNL     1       1.091  11.947  18.763  0.00  0.00    +0.000 A 
ATOM      7  O   UNL     1       2.416  12.254  18.866  0.00  0.00    +0.000 OA
ATOM      8  C   UNL     1       2.517  13.608  18.832  0.00  0.00    +0.000 A 
ATOM      9  C   UNL     1       3.716  14.315  18.867  0.00  0.00    +0.000 A 
ATOM     10  C   UNL     1       3.619  15.709  18.811  0.00  0.00    +0.000 A 
ATOM     11  C   UNL     1       2.376  16.340  18.723  0.00  0.00    +0.000 A 
ATOM     12  C   UNL     1       1.184  15.599  18.690  0.00  0.00    +0.000 A 
ATOM     13  C   UNL     1       1.258  14.194  18.744  0.00  0.00    +0.000 A 
ENDROOT
BRANCH   3  14
ATOM     14  C   UNL     1      -3.079  11.840  18.315  0.00  0.00    +0.000 A 
ATOM     15  C   UNL     1      -3.930  12.153  19.407  0.00  0.00    +0.000 A 
ATOM     16  C   UNL     1      -5.314  11.969  19.357  0.00  0.00    +0.000 A 
ATOM     17  C   UNL     1      -5.904  11.506  18.191  0.00  0.00    +0.000 A 
ATOM     18  C   UNL     1      -5.109  11.249  17.076  0.00  0.00    +0.000 A 
ATOM     19  C   UNL     1      -3.713  11.409  17.131  0.00  0.00    +0.000 A 
ATOM     20 CL   UNL     1      -2.856  10.973  15.690  0.00  0.00    +0.000 Cl
ENDBRANCH   3  14
BRANCH   1  25
ATOM     21  C   UNL     1       2.016   7.454  20.023  0.00  0.00    +0.000 A 
ATOM     22  C   UNL     1       2.792   7.019  18.957  0.00  0.00    +0.000 A 
ATOM     23  C   UNL     1       2.830   7.782  17.793  0.00  0.00    +0.000 A 
ATOM     24  C   UNL     1       2.089   8.966  17.704  0.00  0.00    +0.000 A 
ATOM     25  C   UNL     1       1.307   9.426  18.776  0.00  0.00    +0.000 A 
ATOM     26  C   UNL     1       1.287   8.638  19.943  0.00  0.00    +0.000 A 
BRANCH  21  27
ATOM     27  O   UNL     1       1.936   6.740  21.182  0.00  0.00    +0.000 OA
ATOM     28  H   UNL     1       2.163   5.817  20.994  0.00  0.00    +0.000 HD
ENDBRANCH  21  27
ENDBRANCH   1  25
TORSDOF 3
ENDMDL
MODEL 5
REMARK VINA RESULT:      -7.9      7.838     10.599
REMARK  Name = 
REMARK  3 active torsions:
REMARK  status: ('A' for Active; 'I' for Inactive)
REMARK    1  A    between atoms: O_1  and  C_2
REMARK    2  A    between atoms: C_6  and  C_7
REMARK    3  A    between atoms: C_9  and  C_10
REMARK                            x       y       z     vdW  Elec       q    Type
REMARK                         _______ _______ _______ _____ _____    ______ ____
ROOT
ATOM      1  C   UNL     1      -1.032  11.410  18.293  0.00  0.00    +0.000 A 
ATOM      2  C   UNL     1      -0.314  10.214  18.459  0.00  0.00    +0.000 A 
ATOM      3  C   UNL     1       1.066  10.186  18.725  0.00  0.00    +0.000 A 
ATOM      4  N   UNL     1       1.805  11.313  18.851  0.00  0.00    +0.000 NA
ATOM      5  C   UNL     1       1.116  12.482  18.766  0.00  0.00    +0.000 A 
ATOM      6  C   UNL     1      -0.244  12.544  18.486  0.00  0.00    +0.000 A 
ATOM      7  O   UNL     1      -0.657  13.843  18.444  0.00  0.00    +0.000 OA
ATOM      8  C   UNL     1       0.419  14.615  18.747  0.00  0.00    +0.000 A 
ATOM      9  C   UNL     1       0.396  16.003  18.851  0.00  0.00    +0.000 A 
ATOM     10  C   UNL     1       1.604  16.624  19.183  0.00  0.00    +0.000 A 
ATOM     11  C   UNL     1       2.763  15.873  19.395  0.00  0.00    +0.000 A 
ATOM     12  C   UNL     1       2.755  14.474  19.282  0.00  0.00    +0.000 A 
ATOM     13  C   UNL     1       1.548  13.828  18.950  0.00  0.00    +0.000 A 
ENDROOT
BRANCH   3  14
ATOM     14  C   UNL     1       1.755   8.879  18.907  0.00  0.00    +0.000 A 
ATOM     15  C   UNL     1       2.489   8.330  17.823  0.00  0.00    +0.000 A 
ATOM     16  C   UNL     1       3.023   7.040  17.855  0.00  0.00    +0.000 A 
ATOM     17  C   UNL     1       2.880   6.264  18.995  0.00  0.00    +0.000 A 
ATOM     18  C   UNL     1       2.222   6.792  20.104  0.00  0.00    +0.000 A 
ATOM     19  C   UNL     1       1.661   8.082  20.066  0.00  0.00    +0.000 A 
ATOM     20 CL   UNL     1       0.806   8.565  21.493  0.00  0.00    +0.000 Cl
ENDBRANCH   3  14
BRANCH   1  25
ATOM     21  C   UNL     1      -4.767  11.884  18.647  0.00  0.00    +0.000 A 
ATOM     22  C   UNL     1      -5.238  11.528  17.391  0.00  0.00    +0.000 A 
ATOM     23  C   UNL     1      -4.327  11.130  16.416  0.00  0.00    +0.000 A 
ATOM     24  C   UNL     1      -2.958  11.099  16.704  0.00  0.00    +0.000 A 
ATOM     25  C   UNL     1      -2.465  11.447  17.972  0.00  0.00    +0.000 A 
ATOM     26  C   UNL     1      -3.407  11.843  18.941  0.00  0.00    +0.000 A 
BRANCH  21  27
ATOM     27  O   UNL     1      -5.615  12.291  19.635  0.00  0.00    +0.000 OA
ATOM     28  H   UNL     1      -5.091  12.669  20.357  0.00  0.00    +0.000 HD
ENDBRANCH  21  27
ENDBRANCH   1  25
TORSDOF 3
ENDMDL
MODEL 6
REMARK VINA RESULT:      -7.9      8.020     10.320
REMARK  Name = 
REMARK  3 active torsions:
REMARK  status: ('A' for Active; 'I' for Inactive)
REMARK    1  A    between atoms: O_1  and  C_2
REMARK    2  A    between atoms: C_6  and  C_7
REMARK    3  A    between atoms: C_9  and  C_10
REMARK                            x       y       z     vdW  Elec       q    Type
REMARK                         _______ _______ _______ _____ _____    ______ ____
ROOT
ATOM      1  C   UNL     1       0.415  11.060  19.119  0.00  0.00    +0.000 A 
ATOM      2  C   UNL     1      -0.958  11.164  19.396  0.00  0.00    +0.000 A 
ATOM      3  C   UNL     1      -1.612  12.400  19.538  0.00  0.00    +0.000 A 
ATOM      4  N   UNL     1      -0.969  13.583  19.410  0.00  0.00    +0.000 NA
ATOM      5  C   UNL     1       0.345  13.505  19.069  0.00  0.00    +0.000 A 
ATOM      6  C   UNL     1       1.026  12.300  18.938  0.00  0.00    +0.000 A 
ATOM      7  O   UNL     1       2.329  12.529  18.610  0.00  0.00    +0.000 OA
ATOM      8  C   UNL     1       2.479  13.873  18.477  0.00  0.00    +0.000 A 
ATOM      9  C   UNL     1       3.660  14.507  18.103  0.00  0.00    +0.000 A 
ATOM     10  C   UNL     1       3.616  15.902  18.010  0.00  0.00    +0.000 A 
ATOM     11  C   UNL     1       2.440  16.604  18.281  0.00  0.00    +0.000 A 
ATOM     12  C   UNL     1       1.264  15.935  18.658  0.00  0.00    +0.000 A 
ATOM     13  C   UNL     1       1.285  14.531  18.756  0.00  0.00    +0.000 A 
ENDROOT
BRANCH   3  14
ATOM     14  C   UNL     1      -3.075  12.431  19.815  0.00  0.00    +0.000 A 
ATOM     15  C   UNL     1      -3.524  12.826  21.102  0.00  0.00    +0.000 A 
ATOM     16  C   UNL     1      -4.862  12.724  21.493  0.00  0.00    +0.000 A 
ATOM     17  C   UNL     1      -5.809  12.263  20.592  0.00  0.00    +0.000 A 
ATOM     18  C   UNL     1      -5.417  11.926  19.298  0.00  0.00    +0.000 A 
ATOM     19  C   UNL     1      -4.067  12.004  18.909  0.00  0.00    +0.000 A 
ATOM     20 CL   UNL     1      -3.726  11.475  17.295  0.00  0.00    +0.000 Cl
ENDBRANCH   3  14
BRANCH   1  25
ATOM     21  C   UNL     1       1.892   7.700  20.035  0.00  0.00    +0.000 A 
ATOM     22  C   UNL     1       2.461   7.284  18.840  0.00  0.00    +0.000 A 
ATOM     23  C   UNL     1       2.362   8.106  17.721  0.00  0.00    +0.000 A 
ATOM     24  C   UNL     1       1.689   9.331  17.806  0.00  0.00    +0.000 A 
ATOM     25  C   UNL     1       1.116   9.772  19.010  0.00  0.00    +0.000 A 
ATOM     26  C   UNL     1       1.233   8.923  20.127  0.00  0.00    +0.000 A 
BRANCH  21  27
ATOM     27  O   UNL     1       1.952   6.929  21.158  0.00  0.00    +0.000 OA
ATOM     28  H   UNL     1       1.680   7.466  21.917  0.00  0.00    +0.000 HD
ENDBRANCH  21  27
ENDBRANCH   1  25
TORSDOF 3
ENDMDL
MODEL 7
REMARK VINA RESULT:      -7.7      8.014     10.303
REMARK  Name = 
REMARK  3 active torsions:
REMARK  status: ('A' for Active; 'I' for Inactive)
REMARK    1  A    between atoms: O_1  and  C_2
REMARK    2  A    between atoms: C_6  and  C_7
REMARK    3  A    between atoms: C_9  and  C_10
REMARK                            x       y       z     vdW  Elec       q    Type
REMARK                         _______ _______ _______ _____ _____    ______ ____
ROOT
ATOM      1  C   UNL     1       0.411  10.766  18.802  0.00  0.00    +0.000 A 
ATOM      2  C   UNL     1      -0.992  10.770  18.732  0.00  0.00    +0.000 A 
ATOM      3  C   UNL     1      -1.751  11.952  18.758  0.00  0.00    +0.000 A 
ATOM      4  N   UNL     1      -1.185  13.179  18.843  0.00  0.00    +0.000 NA
ATOM      5  C   UNL     1       0.174  13.201  18.837  0.00  0.00    +0.000 A 
ATOM      6  C   UNL     1       0.954  12.050  18.831  0.00  0.00    +0.000 A 
ATOM      7  O   UNL     1       2.277  12.378  18.847  0.00  0.00    +0.000 OA
ATOM      8  C   UNL     1       2.354  13.734  18.812  0.00  0.00    +0.000 A 
ATOM      9  C   UNL     1       3.540  14.461  18.770  0.00  0.00    +0.000 A 
ATOM     10  C   UNL     1       3.418  15.853  18.727  0.00  0.00    +0.000 A 
ATOM     11  C   UNL     1       2.162  16.464  18.725  0.00  0.00    +0.000 A 
ATOM     12  C   UNL     1       0.982  15.703  18.769  0.00  0.00    +0.000 A 
ATOM     13  C   UNL     1       1.083  14.299  18.811  0.00  0.00    +0.000 A 
ENDROOT
BRANCH   3  14
ATOM     14  C   UNL     1      -3.235  11.877  18.663  0.00  0.00    +0.000 A 
ATOM     15  C   UNL     1      -3.827  11.431  17.452  0.00  0.00    +0.000 A 
ATOM     16  C   UNL     1      -5.204  11.489  17.224  0.00  0.00    +0.000 A 
ATOM     17  C   UNL     1      -6.047  11.955  18.221  0.00  0.00    +0.000 A 
ATOM     18  C   UNL     1      -5.510  12.341  19.448  0.00  0.00    +0.000 A 
ATOM     19  C   UNL     1      -4.122  12.308  19.671  0.00  0.00    +0.000 A 
ATOM     20 CL   UNL     1      -3.603  12.894  21.216  0.00  0.00    +0.000 Cl
ENDBRANCH   3  14
BRANCH   1  25
ATOM     21  C   UNL     1       1.998   7.545  19.990  0.00  0.00    +0.000 A 
ATOM     22  C   UNL     1       2.741   7.149  18.887  0.00  0.00    +0.000 A 
ATOM     23  C   UNL     1       2.724   7.940  17.741  0.00  0.00    +0.000 A 
ATOM     24  C   UNL     1       1.960   9.112  17.707  0.00  0.00    +0.000 A 
ATOM     25  C   UNL     1       1.210   9.533  18.818  0.00  0.00    +0.000 A 
ATOM     26  C   UNL     1       1.246   8.717  19.965  0.00  0.00    +0.000 A 
BRANCH  21  27
ATOM     27  O   UNL     1       1.972   6.803  21.133  0.00  0.00    +0.000 OA
ATOM     28  H   UNL     1       2.294   5.912  20.932  0.00  0.00    +0.000 HD
ENDBRANCH  21  27
ENDBRANCH   1  25
TORSDOF 3
ENDMDL
MODEL 8
REMARK VINA RESULT:      -7.7      3.605      7.520
REMARK  Name = 
REMARK  3 active torsions:
REMARK  status: ('A' for Active; 'I' for Inactive)
REMARK    1  A    between atoms: O_1  and  C_2
REMARK    2  A    between atoms: C_6  and  C_7
REMARK    3  A    between atoms: C_9  and  C_10
REMARK                            x       y       z     vdW  Elec       q    Type
REMARK                         _______ _______ _______ _____ _____    ______ ____
ROOT
ATOM      1  C   UNL     1       3.122   5.112  18.948  0.00  0.00    +0.000 A 
ATOM      2  C   UNL     1       4.030   4.856  17.907  0.00  0.00    +0.000 A 
ATOM      3  C   UNL     1       4.359   5.814  16.933  0.00  0.00    +0.000 A 
ATOM      4  N   UNL     1       3.831   7.060  16.929  0.00  0.00    +0.000 NA
ATOM      5  C   UNL     1       3.005   7.352  17.970  0.00  0.00    +0.000 A 
ATOM      6  C   UNL     1       2.646   6.422  18.939  0.00  0.00    +0.000 A 
ATOM      7  O   UNL     1       1.797   6.990  19.842  0.00  0.00    +0.000 OA
ATOM      8  C   UNL     1       1.648   8.293  19.489  0.00  0.00    +0.000 A 
ATOM      9  C   UNL     1       0.889   9.225  20.192  0.00  0.00    +0.000 A 
ATOM     10  C   UNL     1       0.865  10.525  19.678  0.00  0.00    +0.000 A 
ATOM     11  C   UNL     1       1.573  10.853  18.520  0.00  0.00    +0.000 A 
ATOM     12  C   UNL     1       2.329   9.890  17.831  0.00  0.00    +0.000 A 
ATOM     13  C   UNL     1       2.368   8.575  18.332  0.00  0.00    +0.000 A 
ENDROOT
BRANCH   3  14
ATOM     14  C   UNL     1       5.344   5.474  15.869  0.00  0.00    +0.000 A 
ATOM     15  C   UNL     1       4.919   4.702  14.757  0.00  0.00    +0.000 A 
ATOM     16  C   UNL     1       5.812   4.202  13.805  0.00  0.00    +0.000 A 
ATOM     17  C   UNL     1       7.163   4.497  13.908  0.00  0.00    +0.000 A 
ATOM     18  C   UNL     1       7.610   5.307  14.950  0.00  0.00    +0.000 A 
ATOM     19  C   UNL     1       6.717   5.790  15.924  0.00  0.00    +0.000 A 
ATOM     20 CL   UNL     1       7.437   6.715  17.200  0.00  0.00    +0.000 Cl
ENDBRANCH   3  14
BRANCH   1  25
ATOM     21  C   UNL     1       3.342   2.241  21.399  0.00  0.00    +0.000 A 
ATOM     22  C   UNL     1       2.040   2.143  21.869  0.00  0.00    +0.000 A 
ATOM     23  C   UNL     1       1.078   3.024  21.381  0.00  0.00    +0.000 A 
ATOM     24  C   UNL     1       1.428   3.996  20.438  0.00  0.00    +0.000 A 
ATOM     25  C   UNL     1       2.740   4.103  19.945  0.00  0.00    +0.000 A 
ATOM     26  C   UNL     1       3.693   3.199  20.452  0.00  0.00    +0.000 A 
BRANCH  21  27
ATOM     27  O   UNL     1       4.325   1.410  21.850  0.00  0.00    +0.000 OA
ATOM     28  H   UNL     1       4.865   1.131  21.096  0.00  0.00    +0.000 HD
ENDBRANCH  21  27
ENDBRANCH   1  25
TORSDOF 3
ENDMDL
MODEL 9
REMARK VINA RESULT:      -7.7      8.308     10.591
REMARK  Name = 
REMARK  3 active torsions:
REMARK  status: ('A' for Active; 'I' for Inactive)
REMARK    1  A    between atoms: O_1  and  C_2
REMARK    2  A    between atoms: C_6  and  C_7
REMARK    3  A    between atoms: C_9  and  C_10
REMARK                            x       y       z     vdW  Elec       q    Type
REMARK                         _______ _______ _______ _____ _____    ______ ____
ROOT
ATOM      1  C   UNL     1       0.372  11.232  19.353  0.00  0.00    +0.000 A 
ATOM      2  C   UNL     1      -0.943  11.313  19.842  0.00  0.00    +0.000 A 
ATOM      3  C   UNL     1      -1.589  12.537  20.085  0.00  0.00    +0.000 A 
ATOM      4  N   UNL     1      -0.994  13.732  19.858  0.00  0.00    +0.000 NA
ATOM      5  C   UNL     1       0.252  13.676  19.317  0.00  0.00    +0.000 A 
ATOM      6  C   UNL     1       0.925  12.483  19.081  0.00  0.00    +0.000 A 
ATOM      7  O   UNL     1       2.157  12.735  18.553  0.00  0.00    +0.000 OA
ATOM      8  C   UNL     1       2.259  14.080  18.399  0.00  0.00    +0.000 A 
ATOM      9  C   UNL     1       3.356  14.735  17.846  0.00  0.00    +0.000 A 
ATOM     10  C   UNL     1       3.274  16.128  17.761  0.00  0.00    +0.000 A 
ATOM     11  C   UNL     1       2.142  16.809  18.213  0.00  0.00    +0.000 A 
ATOM     12  C   UNL     1       1.051  16.121  18.768  0.00  0.00    +0.000 A 
ATOM     13  C   UNL     1       1.112  14.717  18.861  0.00  0.00    +0.000 A 
ENDROOT
BRANCH   3  14
ATOM     14  C   UNL     1      -2.991  12.543  20.587  0.00  0.00    +0.000 A 
ATOM     15  C   UNL     1      -4.057  12.471  19.653  0.00  0.00    +0.000 A 
ATOM     16  C   UNL     1      -5.393  12.637  20.027  0.00  0.00    +0.000 A 
ATOM     17  C   UNL     1      -5.715  12.838  21.360  0.00  0.00    +0.000 A 
ATOM     18  C   UNL     1      -4.701  12.851  22.315  0.00  0.00    +0.000 A 
ATOM     19  C   UNL     1      -3.353  12.709  21.940  0.00  0.00    +0.000 A 
ATOM     20 CL   UNL     1      -2.204  12.826  23.231  0.00  0.00    +0.000 Cl
ENDBRANCH   3  14
BRANCH   1  25
ATOM     21  C   UNL     1       1.853   7.810  19.986  0.00  0.00    +0.000 A 
ATOM     22  C   UNL     1       2.410   7.490  18.755  0.00  0.00    +0.000 A 
ATOM     23  C   UNL     1       2.302   8.399  17.706  0.00  0.00    +0.000 A 
ATOM     24  C   UNL     1       1.632   9.613  17.895  0.00  0.00    +0.000 A 
ATOM     25  C   UNL     1       1.070   9.957  19.136  0.00  0.00    +0.000 A 
ATOM     26  C   UNL     1       1.196   9.022  20.181  0.00  0.00    +0.000 A 
BRANCH  21  27
ATOM     27  O   UNL     1       1.923   6.952  21.043  0.00  0.00    +0.000 OA
ATOM     28  H   UNL     1       1.022   6.723  21.316  0.00  0.00    +0.000 HD
ENDBRANCH  21  27
ENDBRANCH   1  25
TORSDOF 3
ENDMDL
