MODEL 1
REMARK VINA RESULT:      -8.0      0.000      0.000
REMARK  Name = 
REMARK  11 active torsions:
REMARK  status: ('A' for Active; 'I' for Inactive)
REMARK    1  A    between atoms: C_1  and  C_2
REMARK    2  A    between atoms: C_2  and  C_3
REMARK    3  A    between atoms: C_3  and  O_5
REMARK    4  A    between atoms: O_5  and  C_6
REMARK    5  A    between atoms: C_9  and  C_10
REMARK    6  A    between atoms: N_12  and  C_13
REMARK    7  A    between atoms: C_17  and  C_18
REMARK    8  A    between atoms: N_20  and  C_21
REMARK    9  A    between atoms: C_21  and  C_22
REMARK   10  A    between atoms: C_21  and  C_23
REMARK   11  A    between atoms: C_21  and  C_24
REMARK                            x       y       z     vdW  Elec       q    Type
REMARK                         _______ _______ _______ _____ _____    ______ ____
ROOT
ATOM      1  C   UNL     1       1.229   8.463  20.481  0.00  0.00    +0.000 C 
ATOM      2  O   UNL     1       1.576   8.717  19.327  0.00  0.00    +0.000 OA
ATOM      3  N   UNL     1       1.333   7.227  21.108  0.00  0.00    +0.000 N 
ATOM      4  H   UNL     1       0.809   7.089  21.963  0.00  0.00    +0.000 HD
ENDROOT
BRANCH   1   8
ATOM      5  C   UNL     1      -0.810  11.516  22.657  0.00  0.00    +0.000 A 
ATOM      6  C   UNL     1      -0.864  10.197  23.094  0.00  0.00    +0.000 A 
ATOM      7  C   UNL     1      -0.161   9.220  22.384  0.00  0.00    +0.000 A 
ATOM      8  C   UNL     1       0.591   9.563  21.246  0.00  0.00    +0.000 A 
ATOM      9  C   UNL     1       0.627  10.890  20.811  0.00  0.00    +0.000 A 
ATOM     10  C   UNL     1      -0.085  11.866  21.514  0.00  0.00    +0.000 A 
BRANCH   5  11
ATOM     11  O   UNL     1      -1.635  12.448  23.310  0.00  0.00    +0.000 OA
BRANCH  11  12
ATOM     12  C   UNL     1      -3.013  12.259  23.220  0.00  0.00    +0.000 C 
ATOM     13  O   UNL     1      -3.744  11.841  24.107  0.00  0.00    +0.000 OA
BRANCH  12  15
ATOM     14  C   UNL     1      -4.972  12.840  21.776  0.00  0.00    +0.000 C 
ATOM     15  C   UNL     1      -3.462  12.688  21.844  0.00  0.00    +0.000 C 
ENDBRANCH  12  15
ENDBRANCH  11  12
ENDBRANCH   5  11
ENDBRANCH   1   8
BRANCH   3  16
ATOM     16  C   UNL     1       1.927   6.076  20.528  0.00  0.00    +0.000 A 
ATOM     17  C   UNL     1       1.259   4.847  20.463  0.00  0.00    +0.000 A 
ATOM     18  C   UNL     1       1.874   3.718  19.926  0.00  0.00    +0.000 A 
ATOM     19  C   UNL     1       3.175   3.797  19.448  0.00  0.00    +0.000 A 
ATOM     20  C   UNL     1       3.865   5.013  19.504  0.00  0.00    +0.000 A 
ATOM     21  C   UNL     1       3.226   6.163  20.009  0.00  0.00    +0.000 A 
BRANCH  20  22
ATOM     22  C   UNL     1       5.272   5.106  19.014  0.00  0.00    +0.000 C 
ATOM     23  O   UNL     1       6.195   4.993  19.810  0.00  0.00    +0.000 OA
ATOM     24  N   UNL     1       5.424   5.301  17.652  0.00  0.00    +0.000 N 
ATOM     25  H   UNL     1       4.609   5.175  17.067  0.00  0.00    +0.000 HD
BRANCH  24  26
ATOM     26  C   UNL     1       6.711   5.473  16.958  0.00  0.00    +0.000 C 
ATOM     27  C   UNL     1       7.720   4.401  17.393  0.00  0.00    +0.000 C 
ATOM     28  C   UNL     1       6.472   5.325  15.441  0.00  0.00    +0.000 C 
ATOM     29  C   UNL     1       7.280   6.879  17.208  0.00  0.00    +0.000 C 
ENDBRANCH  24  26
ENDBRANCH  20  22
ENDBRANCH   3  16
TORSDOF 7
ENDMDL
MODEL 2
REMARK VINA RESULT:      -7.9      3.328     10.609
REMARK  Name = 
REMARK  11 active torsions:
REMARK  status: ('A' for Active; 'I' for Inactive)
REMARK    1  A    between atoms: C_1  and  C_2
REMARK    2  A    between atoms: C_2  and  C_3
REMARK    3  A    between atoms: C_3  and  O_5
REMARK    4  A    between atoms: O_5  and  C_6
REMARK    5  A    between atoms: C_9  and  C_10
REMARK    6  A    between atoms: N_12  and  C_13
REMARK    7  A    between atoms: C_17  and  C_18
REMARK    8  A    between atoms: N_20  and  C_21
REMARK    9  A    between atoms: C_21  and  C_22
REMARK   10  A    between atoms: C_21  and  C_23
REMARK   11  A    between atoms: C_21  and  C_24
REMARK                            x       y       z     vdW  Elec       q    Type
REMARK                         _______ _______ _______ _____ _____    ______ ____
ROOT
ATOM      1  C   UNL     1       1.989   8.098  18.684  0.00  0.00    +0.000 C 
ATOM      2  O   UNL     1       1.820   7.969  19.897  0.00  0.00    +0.000 OA
ATOM      3  N   UNL     1       1.381   9.051  17.876  0.00  0.00    +0.000 N 
ATOM      4  H   UNL     1       1.420   8.912  16.874  0.00  0.00    +0.000 HD
ENDROOT
BRANCH   1   8
ATOM      5  C   UNL     1       4.561   5.147  16.983  0.00  0.00    +0.000 A 
ATOM      6  C   UNL     1       3.375   4.764  17.601  0.00  0.00    +0.000 A 
ATOM      7  C   UNL     1       2.534   5.750  18.120  0.00  0.00    +0.000 A 
ATOM      8  C   UNL     1       2.876   7.111  18.022  0.00  0.00    +0.000 A 
ATOM      9  C   UNL     1       4.077   7.481  17.410  0.00  0.00    +0.000 A 
ATOM     10  C   UNL     1       4.925   6.495  16.900  0.00  0.00    +0.000 A 
BRANCH   5  11
ATOM     11  O   UNL     1       5.447   4.129  16.594  0.00  0.00    +0.000 OA
BRANCH  11  12
ATOM     12  C   UNL     1       6.294   4.392  15.518  0.00  0.00    +0.000 C 
ATOM     13  O   UNL     1       7.495   4.617  15.582  0.00  0.00    +0.000 OA
BRANCH  12  15
ATOM     14  C   UNL     1       6.247   3.620  13.139  0.00  0.00    +0.000 C 
ATOM     15  C   UNL     1       5.482   4.322  14.247  0.00  0.00    +0.000 C 
ENDBRANCH  12  15
ENDBRANCH  11  12
ENDBRANCH   5  11
ENDBRANCH   1   8
BRANCH   3  16
ATOM     16  C   UNL     1       0.517  10.075  18.346  0.00  0.00    +0.000 A 
ATOM     17  C   UNL     1       0.969  11.104  19.182  0.00  0.00    +0.000 A 
ATOM     18  C   UNL     1       0.098  12.077  19.665  0.00  0.00    +0.000 A 
ATOM     19  C   UNL     1      -1.248  12.036  19.325  0.00  0.00    +0.000 A 
ATOM     20  C   UNL     1      -1.724  11.016  18.493  0.00  0.00    +0.000 A 
ATOM     21  C   UNL     1      -0.833  10.058  17.972  0.00  0.00    +0.000 A 
BRANCH  20  22
ATOM     22  C   UNL     1      -3.173  10.947  18.138  0.00  0.00    +0.000 C 
ATOM     23  O   UNL     1      -3.569  10.055  17.399  0.00  0.00    +0.000 OA
ATOM     24  N   UNL     1      -3.979  11.920  18.704  0.00  0.00    +0.000 N 
ATOM     25  H   UNL     1      -3.587  12.476  19.452  0.00  0.00    +0.000 HD
BRANCH  24  26
ATOM     26  C   UNL     1      -5.422  12.077  18.455  0.00  0.00    +0.000 C 
ATOM     27  C   UNL     1      -6.189  10.801  18.833  0.00  0.00    +0.000 C 
ATOM     28  C   UNL     1      -5.946  13.233  19.330  0.00  0.00    +0.000 C 
ATOM     29  C   UNL     1      -5.682  12.445  16.986  0.00  0.00    +0.000 C 
ENDBRANCH  24  26
ENDBRANCH  20  22
ENDBRANCH   3  16
TORSDOF 7
ENDMDL
MODEL 3
REMARK VINA RESULT:      -7.8      5.471      8.477
REMARK  Name = 
REMARK  11 active torsions:
REMARK  status: ('A' for Active; 'I' for Inactive)
REMARK    1  A    between atoms: C_1  and  C_2
REMARK    2  A    between atoms: C_2  and  C_3
REMARK    3  A    between atoms: C_3  and  O_5
REMARK    4  A    between atoms: O_5  and  C_6
REMARK    5  A    between atoms: C_9  and  C_10
REMARK    6  A    between atoms: N_12  and  C_13
REMARK    7  A    between atoms: C_17  and  C_18
REMARK    8  A    between atoms: N_20  and  C_21
REMARK    9  A    between atoms: C_21  and  C_22
REMARK   10  A    between atoms: C_21  and  C_23
REMARK   11  A    between atoms: C_21  and  C_24
REMARK                            x       y       z     vdW  Elec       q    Type
REMARK                         _______ _______ _______ _____ _____    ______ ____
ROOT
ATOM      1  C   UNL     1       7.894   8.013  18.110  0.00  0.00    +0.000 C 
ATOM      2  O   UNL     1       8.426   7.144  18.801  0.00  0.00    +0.000 OA
ATOM      3  N   UNL     1       6.869   7.807  17.193  0.00  0.00    +0.000 N 
ATOM      4  H   UNL     1       6.678   8.548  16.529  0.00  0.00    +0.000 HD
ENDROOT
BRANCH   1   8
ATOM      5  C   UNL     1       9.375  11.977  18.666  0.00  0.00    +0.000 A 
ATOM      6  C   UNL     1       9.792  10.953  19.512  0.00  0.00    +0.000 A 
ATOM      7  C   UNL     1       9.319   9.658  19.289  0.00  0.00    +0.000 A 
ATOM      8  C   UNL     1       8.436   9.389  18.228  0.00  0.00    +0.000 A 
ATOM      9  C   UNL     1       8.017  10.428  17.393  0.00  0.00    +0.000 A 
ATOM     10  C   UNL     1       8.480  11.727  17.621  0.00  0.00    +0.000 A 
BRANCH   5  11
ATOM     11  O   UNL     1       9.759  13.287  18.998  0.00  0.00    +0.000 OA
BRANCH  11  12
ATOM     12  C   UNL     1       9.022  13.941  19.983  0.00  0.00    +0.000 C 
ATOM     13  O   UNL     1       7.831  14.218  19.930  0.00  0.00    +0.000 OA
BRANCH  12  15
ATOM     14  C   UNL     1       9.205  14.085  22.474  0.00  0.00    +0.000 C 
ATOM     15  C   UNL     1       9.936  14.227  21.150  0.00  0.00    +0.000 C 
ENDBRANCH  12  15
ENDBRANCH  11  12
ENDBRANCH   5  11
ENDBRANCH   1   8
BRANCH   3  16
ATOM     16  C   UNL     1       6.229   6.562  16.965  0.00  0.00    +0.000 A 
ATOM     17  C   UNL     1       6.724   5.627  16.047  0.00  0.00    +0.000 A 
ATOM     18  C   UNL     1       6.060   4.427  15.808  0.00  0.00    +0.000 A 
ATOM     19  C   UNL     1       4.878   4.141  16.480  0.00  0.00    +0.000 A 
ATOM     20  C   UNL     1       4.361   5.060  17.400  0.00  0.00    +0.000 A 
ATOM     21  C   UNL     1       5.059   6.254  17.671  0.00  0.00    +0.000 A 
BRANCH  20  22
ATOM     22  C   UNL     1       3.080   4.775  18.113  0.00  0.00    +0.000 C 
ATOM     23  O   UNL     1       2.043   5.290  17.715  0.00  0.00    +0.000 OA
ATOM     24  N   UNL     1       3.170   3.910  19.190  0.00  0.00    +0.000 N 
ATOM     25  H   UNL     1       4.029   3.390  19.302  0.00  0.00    +0.000 HD
BRANCH  24  26
ATOM     26  C   UNL     1       2.051   3.529  20.067  0.00  0.00    +0.000 C 
ATOM     27  C   UNL     1       2.548   2.727  21.279  0.00  0.00    +0.000 C 
ATOM     28  C   UNL     1       1.374   4.815  20.583  0.00  0.00    +0.000 C 
ATOM     29  C   UNL     1       0.999   2.725  19.286  0.00  0.00    +0.000 C 
ENDBRANCH  24  26
ENDBRANCH  20  22
ENDBRANCH   3  16
TORSDOF 7
ENDMDL
MODEL 4
REMARK VINA RESULT:      -7.8      3.894      9.936
REMARK  Name = 
REMARK  11 active torsions:
REMARK  status: ('A' for Active; 'I' for Inactive)
REMARK    1  A    between atoms: C_1  and  C_2
REMARK    2  A    between atoms: C_2  and  C_3
REMARK    3  A    between atoms: C_3  and  O_5
REMARK    4  A    between atoms: O_5  and  C_6
REMARK    5  A    between atoms: C_9  and  C_10
REMARK    6  A    between atoms: N_12  and  C_13
REMARK    7  A    between atoms: C_17  and  C_18
REMARK    8  A    between atoms: N_20  and  C_21
REMARK    9  A    between atoms: C_21  and  C_22
REMARK   10  A    between atoms: C_21  and  C_23
REMARK   11  A    between atoms: C_21  and  C_24
REMARK                            x       y       z     vdW  Elec       q    Type
REMARK                         _______ _______ _______ _____ _____    ______ ____
ROOT
ATOM      1  C   UNL     1       2.736   7.584  18.415  0.00  0.00    +0.000 C 
ATOM      2  O   UNL     1       2.282   7.368  19.538  0.00  0.00    +0.000 OA
ATOM      3  N   UNL     1       2.422   8.671  17.607  0.00  0.00    +0.000 N 
ATOM      4  H   UNL     1       2.677   8.618  16.628  0.00  0.00    +0.000 HD
ENDROOT
BRANCH   1   8
ATOM      5  C   UNL     1       5.390   4.771  16.610  0.00  0.00    +0.000 A 
ATOM      6  C   UNL     1       5.773   6.102  16.744  0.00  0.00    +0.000 A 
ATOM      7  C   UNL     1       4.901   6.997  17.368  0.00  0.00    +0.000 A 
ATOM      8  C   UNL     1       3.655   6.563  17.855  0.00  0.00    +0.000 A 
ATOM      9  C   UNL     1       3.278   5.226  17.703  0.00  0.00    +0.000 A 
ATOM     10  C   UNL     1       4.144   4.332  17.069  0.00  0.00    +0.000 A 
BRANCH   5  11
ATOM     11  O   UNL     1       6.228   3.929  15.859  0.00  0.00    +0.000 OA
BRANCH  11  12
ATOM     12  C   UNL     1       6.653   4.392  14.615  0.00  0.00    +0.000 C 
ATOM     13  O   UNL     1       7.606   5.131  14.406  0.00  0.00    +0.000 OA
BRANCH  12  15
ATOM     14  C   UNL     1       6.494   3.613  12.242  0.00  0.00    +0.000 C 
ATOM     15  C   UNL     1       5.755   3.799  13.556  0.00  0.00    +0.000 C 
ENDBRANCH  12  15
ENDBRANCH  11  12
ENDBRANCH   5  11
ENDBRANCH   1   8
BRANCH   3  16
ATOM     16  C   UNL     1       1.574   9.742  17.990  0.00  0.00    +0.000 A 
ATOM     17  C   UNL     1       0.189   9.582  18.130  0.00  0.00    +0.000 A 
ATOM     18  C   UNL     1      -0.632  10.655  18.468  0.00  0.00    +0.000 A 
ATOM     19  C   UNL     1      -0.082  11.915  18.666  0.00  0.00    +0.000 A 
ATOM     20  C   UNL     1       1.298  12.101  18.529  0.00  0.00    +0.000 A 
ATOM     21  C   UNL     1       2.131  11.005  18.229  0.00  0.00    +0.000 A 
BRANCH  20  22
ATOM     22  C   UNL     1       1.899  13.455  18.718  0.00  0.00    +0.000 C 
ATOM     23  O   UNL     1       1.239  14.336  19.254  0.00  0.00    +0.000 OA
ATOM     24  N   UNL     1       3.201  13.604  18.272  0.00  0.00    +0.000 N 
ATOM     25  H   UNL     1       3.714  12.766  18.036  0.00  0.00    +0.000 HD
BRANCH  24  26
ATOM     26  C   UNL     1       3.971  14.858  18.308  0.00  0.00    +0.000 C 
ATOM     27  C   UNL     1       4.032  15.428  19.732  0.00  0.00    +0.000 C 
ATOM     28  C   UNL     1       5.412  14.560  17.845  0.00  0.00    +0.000 C 
ATOM     29  C   UNL     1       3.372  15.892  17.341  0.00  0.00    +0.000 C 
ENDBRANCH  24  26
ENDBRANCH  20  22
ENDBRANCH   3  16
TORSDOF 7
ENDMDL
MODEL 5
REMARK VINA RESULT:      -7.8      3.291     10.480
REMARK  Name = 
REMARK  11 active torsions:
REMARK  status: ('A' for Active; 'I' for Inactive)
REMARK    1  A    between atoms: C_1  and  C_2
REMARK    2  A    between atoms: C_2  and  C_3
REMARK    3  A    between atoms: C_3  and  O_5
REMARK    4  A    between atoms: O_5  and  C_6
REMARK    5  A    between atoms: C_9  and  C_10
REMARK    6  A    between atoms: N_12  and  C_13
REMARK    7  A    between atoms: C_17  and  C_18
REMARK    8  A    between atoms: N_20  and  C_21
REMARK    9  A    between atoms: C_21  and  C_22
REMARK   10  A    between atoms: C_21  and  C_23
REMARK   11  A    between atoms: C_21  and  C_24
REMARK                            x       y       z     vdW  Elec       q    Type
REMARK                         _______ _______ _______ _____ _____    ______ ____
ROOT
ATOM      1  C   UNL     1       1.930   8.288  18.705  0.00  0.00    +0.000 C 
ATOM      2  O   UNL     1       1.779   8.162  19.921  0.00  0.00    +0.000 OA
ATOM      3  N   UNL     1       1.287   9.220  17.899  0.00  0.00    +0.000 N 
ATOM      4  H   UNL     1       1.318   9.075  16.897  0.00  0.00    +0.000 HD
ENDROOT
BRANCH   1   8
ATOM      5  C   UNL     1       4.592   5.423  16.995  0.00  0.00    +0.000 A 
ATOM      6  C   UNL     1       3.577   5.006  17.851  0.00  0.00    +0.000 A 
ATOM      7  C   UNL     1       2.698   5.958  18.371  0.00  0.00    +0.000 A 
ATOM      8  C   UNL     1       2.833   7.318  18.038  0.00  0.00    +0.000 A 
ATOM      9  C   UNL     1       3.864   7.725  17.187  0.00  0.00    +0.000 A 
ATOM     10  C   UNL     1       4.751   6.775  16.674  0.00  0.00    +0.000 A 
BRANCH   5  11
ATOM     11  O   UNL     1       5.539   4.464  16.599  0.00  0.00    +0.000 OA
BRANCH  11  12
ATOM     12  C   UNL     1       6.871   4.870  16.526  0.00  0.00    +0.000 C 
ATOM     13  O   UNL     1       7.433   5.330  15.542  0.00  0.00    +0.000 OA
BRANCH  12  15
ATOM     14  C   UNL     1       7.714   6.003  18.591  0.00  0.00    +0.000 C 
ATOM     15  C   UNL     1       7.501   4.676  17.885  0.00  0.00    +0.000 C 
ENDBRANCH  12  15
ENDBRANCH  11  12
ENDBRANCH   5  11
ENDBRANCH   1   8
BRANCH   3  16
ATOM     16  C   UNL     1       0.405  10.225  18.373  0.00  0.00    +0.000 A 
ATOM     17  C   UNL     1       0.833  11.245  19.234  0.00  0.00    +0.000 A 
ATOM     18  C   UNL     1      -0.057  12.200  19.721  0.00  0.00    +0.000 A 
ATOM     19  C   UNL     1      -1.398  12.148  19.360  0.00  0.00    +0.000 A 
ATOM     20  C   UNL     1      -1.849  11.138  18.504  0.00  0.00    +0.000 A 
ATOM     21  C   UNL     1      -0.939  10.199  17.979  0.00  0.00    +0.000 A 
BRANCH  20  22
ATOM     22  C   UNL     1      -3.292  11.058  18.126  0.00  0.00    +0.000 C 
ATOM     23  O   UNL     1      -3.656  10.215  17.317  0.00  0.00    +0.000 OA
ATOM     24  N   UNL     1      -4.130  11.963  18.755  0.00  0.00    +0.000 N 
ATOM     25  H   UNL     1      -3.761  12.470  19.548  0.00  0.00    +0.000 HD
BRANCH  24  26
ATOM     26  C   UNL     1      -5.574  12.101  18.500  0.00  0.00    +0.000 C 
ATOM     27  C   UNL     1      -6.182  13.215  19.363  0.00  0.00    +0.000 C 
ATOM     28  C   UNL     1      -5.775  12.474  17.017  0.00  0.00    +0.000 C 
ATOM     29  C   UNL     1      -6.299  10.769  18.752  0.00  0.00    +0.000 C 
ENDBRANCH  24  26
ENDBRANCH  20  22
ENDBRANCH   3  16
TORSDOF 7
ENDMDL
MODEL 6
REMARK VINA RESULT:      -7.7      3.281     10.109
REMARK  Name = 
REMARK  11 active torsions:
REMARK  status: ('A' for Active; 'I' for Inactive)
REMARK    1  A    between atoms: C_1  and  C_2
REMARK    2  A    between atoms: C_2  and  C_3
REMARK    3  A    between atoms: C_3  and  O_5
REMARK    4  A    between atoms: O_5  and  C_6
REMARK    5  A    between atoms: C_9  and  C_10
REMARK    6  A    between atoms: N_12  and  C_13
REMARK    7  A    between atoms: C_17  and  C_18
REMARK    8  A    between atoms: N_20  and  C_21
REMARK    9  A    between atoms: C_21  and  C_22
REMARK   10  A    between atoms: C_21  and  C_23
REMARK   11  A    between atoms: C_21  and  C_24
REMARK                            x       y       z     vdW  Elec       q    Type
REMARK                         _______ _______ _______ _____ _____    ______ ____
ROOT
ATOM      1  C   UNL     1       1.835   9.016  18.260  0.00  0.00    +0.000 C 
ATOM      2  O   UNL     1       2.160   9.765  17.339  0.00  0.00    +0.000 OA
ATOM      3  N   UNL     1       0.862   9.279  19.216  0.00  0.00    +0.000 N 
ATOM      4  H   UNL     1       0.848   8.697  20.045  0.00  0.00    +0.000 HD
ENDROOT
BRANCH   1   8
ATOM      5  C   UNL     1       4.082   5.435  18.845  0.00  0.00    +0.000 A 
ATOM      6  C   UNL     1       3.083   5.784  19.747  0.00  0.00    +0.000 A 
ATOM      7  C   UNL     1       2.338   6.943  19.516  0.00  0.00    +0.000 A 
ATOM      8  C   UNL     1       2.592   7.747  18.390  0.00  0.00    +0.000 A 
ATOM      9  C   UNL     1       3.608   7.391  17.498  0.00  0.00    +0.000 A 
ATOM     10  C   UNL     1       4.361   6.238  17.734  0.00  0.00    +0.000 A 
BRANCH   5  11
ATOM     11  O   UNL     1       4.901   4.342  19.177  0.00  0.00    +0.000 OA
BRANCH  11  12
ATOM     12  C   UNL     1       4.300   3.086  19.234  0.00  0.00    +0.000 C 
ATOM     13  O   UNL     1       4.125   2.414  20.242  0.00  0.00    +0.000 OA
BRANCH  12  15
ATOM     14  C   UNL     1       2.421   2.245  17.812  0.00  0.00    +0.000 C 
ATOM     15  C   UNL     1       3.869   2.701  17.839  0.00  0.00    +0.000 C 
ENDBRANCH  12  15
ENDBRANCH  11  12
ENDBRANCH   5  11
ENDBRANCH   1   8
BRANCH   3  16
ATOM     16  C   UNL     1       0.039  10.434  19.232  0.00  0.00    +0.000 A 
ATOM     17  C   UNL     1       0.465  11.645  19.795  0.00  0.00    +0.000 A 
ATOM     18  C   UNL     1      -0.372  12.757  19.837  0.00  0.00    +0.000 A 
ATOM     19  C   UNL     1      -1.660  12.678  19.321  0.00  0.00    +0.000 A 
ATOM     20  C   UNL     1      -2.110  11.479  18.757  0.00  0.00    +0.000 A 
ATOM     21  C   UNL     1      -1.246  10.369  18.677  0.00  0.00    +0.000 A 
BRANCH  20  22
ATOM     22  C   UNL     1      -3.499  11.374  18.219  0.00  0.00    +0.000 C 
ATOM     23  O   UNL     1      -3.728  10.610  17.290  0.00  0.00    +0.000 OA
ATOM     24  N   UNL     1      -4.449  12.161  18.847  0.00  0.00    +0.000 N 
ATOM     25  H   UNL     1      -4.194  12.593  19.724  0.00  0.00    +0.000 HD
BRANCH  24  26
ATOM     26  C   UNL     1      -5.865  12.258  18.453  0.00  0.00    +0.000 C 
ATOM     27  C   UNL     1      -6.002  12.722  16.996  0.00  0.00    +0.000 C 
ATOM     28  C   UNL     1      -6.503  10.859  18.577  0.00  0.00    +0.000 C 
ATOM     29  C   UNL     1      -6.626  13.206  19.393  0.00  0.00    +0.000 C 
ENDBRANCH  24  26
ENDBRANCH  20  22
ENDBRANCH   3  16
TORSDOF 7
ENDMDL
MODEL 7
REMARK VINA RESULT:      -7.7      5.529      8.724
REMARK  Name = 
REMARK  11 active torsions:
REMARK  status: ('A' for Active; 'I' for Inactive)
REMARK    1  A    between atoms: C_1  and  C_2
REMARK    2  A    between atoms: C_2  and  C_3
REMARK    3  A    between atoms: C_3  and  O_5
REMARK    4  A    between atoms: O_5  and  C_6
REMARK    5  A    between atoms: C_9  and  C_10
REMARK    6  A    between atoms: N_12  and  C_13
REMARK    7  A    between atoms: C_17  and  C_18
REMARK    8  A    between atoms: N_20  and  C_21
REMARK    9  A    between atoms: C_21  and  C_22
REMARK   10  A    between atoms: C_21  and  C_23
REMARK   11  A    between atoms: C_21  and  C_24
REMARK                            x       y       z     vdW  Elec       q    Type
REMARK                         _______ _______ _______ _____ _____    ______ ____
ROOT
ATOM      1  C   UNL     1       7.858   7.982  18.112  0.00  0.00    +0.000 C 
ATOM      2  O   UNL     1       8.427   7.089  18.740  0.00  0.00    +0.000 OA
ATOM      3  N   UNL     1       6.807   7.805  17.220  0.00  0.00    +0.000 N 
ATOM      4  H   UNL     1       6.582   8.575  16.602  0.00  0.00    +0.000 HD
ENDROOT
BRANCH   1   8
ATOM      5  C   UNL     1       9.418  11.945  18.379  0.00  0.00    +0.000 A 
ATOM      6  C   UNL     1       8.386  11.662  17.490  0.00  0.00    +0.000 A 
ATOM      7  C   UNL     1       7.870  10.365  17.444  0.00  0.00    +0.000 A 
ATOM      8  C   UNL     1       8.382   9.359  18.283  0.00  0.00    +0.000 A 
ATOM      9  C   UNL     1       9.427   9.654  19.163  0.00  0.00    +0.000 A 
ATOM     10  C   UNL     1       9.952  10.949  19.202  0.00  0.00    +0.000 A 
BRANCH   5  11
ATOM     11  O   UNL     1      10.005  13.219  18.304  0.00  0.00    +0.000 OA
BRANCH  11  12
ATOM     12  C   UNL     1      10.230  13.893  19.503  0.00  0.00    +0.000 C 
ATOM     13  O   UNL     1      11.316  14.075  20.037  0.00  0.00    +0.000 OA
BRANCH  12  15
ATOM     14  C   UNL     1       8.601  13.833  21.401  0.00  0.00    +0.000 C 
ATOM     15  C   UNL     1       8.904  14.394  20.022  0.00  0.00    +0.000 C 
ENDBRANCH  12  15
ENDBRANCH  11  12
ENDBRANCH   5  11
ENDBRANCH   1   8
BRANCH   3  16
ATOM     16  C   UNL     1       6.180   6.562  16.949  0.00  0.00    +0.000 A 
ATOM     17  C   UNL     1       6.681   5.668  15.993  0.00  0.00    +0.000 A 
ATOM     18  C   UNL     1       6.029   4.469  15.713  0.00  0.00    +0.000 A 
ATOM     19  C   UNL     1       4.855   4.144  16.380  0.00  0.00    +0.000 A 
ATOM     20  C   UNL     1       4.333   5.022  17.337  0.00  0.00    +0.000 A 
ATOM     21  C   UNL     1       5.018   6.213  17.649  0.00  0.00    +0.000 A 
BRANCH  20  22
ATOM     22  C   UNL     1       3.060   4.695  18.045  0.00  0.00    +0.000 C 
ATOM     23  O   UNL     1       2.001   5.130  17.611  0.00  0.00    +0.000 OA
ATOM     24  N   UNL     1       3.182   3.886  19.162  0.00  0.00    +0.000 N 
ATOM     25  H   UNL     1       4.068   3.422  19.309  0.00  0.00    +0.000 HD
BRANCH  24  26
ATOM     26  C   UNL     1       2.073   3.480  20.041  0.00  0.00    +0.000 C 
ATOM     27  C   UNL     1       2.591   2.693  21.254  0.00  0.00    +0.000 C 
ATOM     28  C   UNL     1       1.366   4.750  20.556  0.00  0.00    +0.000 C 
ATOM     29  C   UNL     1       1.040   2.649  19.264  0.00  0.00    +0.000 C 
ENDBRANCH  24  26
ENDBRANCH  20  22
ENDBRANCH   3  16
TORSDOF 7
ENDMDL
MODEL 8
REMARK VINA RESULT:      -7.6      0.821      1.649
REMARK  Name = 
REMARK  11 active torsions:
REMARK  status: ('A' for Active; 'I' for Inactive)
REMARK    1  A    between atoms: C_1  and  C_2
REMARK    2  A    between atoms: C_2  and  C_3
REMARK    3  A    between atoms: C_3  and  O_5
REMARK    4  A    between atoms: O_5  and  C_6
REMARK    5  A    between atoms: C_9  and  C_10
REMARK    6  A    between atoms: N_12  and  C_13
REMARK    7  A    between atoms: C_17  and  C_18
REMARK    8  A    between atoms: N_20  and  C_21
REMARK    9  A    between atoms: C_21  and  C_22
REMARK   10  A    between atoms: C_21  and  C_23
REMARK   11  A    between atoms: C_21  and  C_24
REMARK                            x       y       z     vdW  Elec       q    Type
REMARK                         _______ _______ _______ _____ _____    ______ ____
ROOT
ATOM      1  C   UNL     1       1.185   8.236  20.481  0.00  0.00    +0.000 C 
ATOM      2  O   UNL     1       1.626   8.549  19.376  0.00  0.00    +0.000 OA
ATOM      3  N   UNL     1       1.260   6.974  21.059  0.00  0.00    +0.000 N 
ATOM      4  H   UNL     1       0.666   6.786  21.858  0.00  0.00    +0.000 HD
ENDROOT
BRANCH   1   8
ATOM      5  C   UNL     1      -0.711  11.382  22.654  0.00  0.00    +0.000 A 
ATOM      6  C   UNL     1      -0.102  11.649  21.432  0.00  0.00    +0.000 A 
ATOM      7  C   UNL     1       0.483  10.597  20.724  0.00  0.00    +0.000 A 
ATOM      8  C   UNL     1       0.458   9.287  21.235  0.00  0.00    +0.000 A 
ATOM      9  C   UNL     1      -0.147   9.035  22.469  0.00  0.00    +0.000 A 
ATOM     10  C   UNL     1      -0.722  10.088  23.184  0.00  0.00    +0.000 A 
BRANCH   5  11
ATOM     11  O   UNL     1      -1.168  12.480  23.403  0.00  0.00    +0.000 OA
BRANCH  11  12
ATOM     12  C   UNL     1      -2.515  12.818  23.289  0.00  0.00    +0.000 C 
ATOM     13  O   UNL     1      -3.402  12.107  22.835  0.00  0.00    +0.000 OA
BRANCH  12  15
ATOM     14  C   UNL     1      -1.502  15.087  23.574  0.00  0.00    +0.000 C 
ATOM     15  C   UNL     1      -2.706  14.205  23.853  0.00  0.00    +0.000 C 
ENDBRANCH  12  15
ENDBRANCH  11  12
ENDBRANCH   5  11
ENDBRANCH   1   8
BRANCH   3  16
ATOM     16  C   UNL     1       1.928   5.862  20.484  0.00  0.00    +0.000 A 
ATOM     17  C   UNL     1       1.336   4.595  20.410  0.00  0.00    +0.000 A 
ATOM     18  C   UNL     1       2.023   3.506  19.878  0.00  0.00    +0.000 A 
ATOM     19  C   UNL     1       3.322   3.664  19.413  0.00  0.00    +0.000 A 
ATOM     20  C   UNL     1       3.936   4.919  19.478  0.00  0.00    +0.000 A 
ATOM     21  C   UNL     1       3.224   6.028  19.978  0.00  0.00    +0.000 A 
BRANCH  20  22
ATOM     22  C   UNL     1       5.341   5.097  19.003  0.00  0.00    +0.000 C 
ATOM     23  O   UNL     1       6.254   5.114  19.818  0.00  0.00    +0.000 OA
ATOM     24  N   UNL     1       5.502   5.216  17.633  0.00  0.00    +0.000 N 
ATOM     25  H   UNL     1       4.712   4.985  17.046  0.00  0.00    +0.000 HD
BRANCH  24  26
ATOM     26  C   UNL     1       6.784   5.449  16.947  0.00  0.00    +0.000 C 
ATOM     27  C   UNL     1       7.308   6.866  17.225  0.00  0.00    +0.000 C 
ATOM     28  C   UNL     1       7.817   4.438  17.484  0.00  0.00    +0.000 C 
ATOM     29  C   UNL     1       6.641   5.217  15.435  0.00  0.00    +0.000 C 
ENDBRANCH  24  26
ENDBRANCH  20  22
ENDBRANCH   3  16
TORSDOF 7
ENDMDL
MODEL 9
REMARK VINA RESULT:      -7.6      3.378     10.534
REMARK  Name = 
REMARK  11 active torsions:
REMARK  status: ('A' for Active; 'I' for Inactive)
REMARK    1  A    between atoms: C_1  and  C_2
REMARK    2  A    between atoms: C_2  and  C_3
REMARK    3  A    between atoms: C_3  and  O_5
REMARK    4  A    between atoms: O_5  and  C_6
REMARK    5  A    between atoms: C_9  and  C_10
REMARK    6  A    between atoms: N_12  and  C_13
REMARK    7  A    between atoms: C_17  and  C_18
REMARK    8  A    between atoms: N_20  and  C_21
REMARK    9  A    between atoms: C_21  and  C_22
REMARK   10  A    between atoms: C_21  and  C_23
REMARK   11  A    between atoms: C_21  and  C_24
REMARK                            x       y       z     vdW  Elec       q    Type
REMARK                         _______ _______ _______ _____ _____    ______ ____
ROOT
ATOM      1  C   UNL     1       2.136   7.927  18.817  0.00  0.00    +0.000 C 
ATOM      2  O   UNL     1       1.808   7.904  20.003  0.00  0.00    +0.000 OA
ATOM      3  N   UNL     1       1.705   8.851  17.873  0.00  0.00    +0.000 N 
ATOM      4  H   UNL     1       1.859   8.631  16.896  0.00  0.00    +0.000 HD
ENDROOT
BRANCH   1   8
ATOM      5  C   UNL     1       4.614   4.827  17.246  0.00  0.00    +0.000 A 
ATOM      6  C   UNL     1       4.726   6.124  16.754  0.00  0.00    +0.000 A 
ATOM      7  C   UNL     1       3.928   7.128  17.307  0.00  0.00    +0.000 A 
ATOM      8  C   UNL     1       3.025   6.837  18.346  0.00  0.00    +0.000 A 
ATOM      9  C   UNL     1       2.914   5.528  18.822  0.00  0.00    +0.000 A 
ATOM     10  C   UNL     1       3.704   4.520  18.262  0.00  0.00    +0.000 A 
BRANCH   5  11
ATOM     11  O   UNL     1       5.329   3.818  16.579  0.00  0.00    +0.000 OA
BRANCH  11  12
ATOM     12  C   UNL     1       6.488   4.194  15.902  0.00  0.00    +0.000 C 
ATOM     13  O   UNL     1       7.538   4.557  16.414  0.00  0.00    +0.000 OA
BRANCH  12  15
ATOM     14  C   UNL     1       7.256   4.830  13.608  0.00  0.00    +0.000 C 
ATOM     15  C   UNL     1       6.241   4.046  14.420  0.00  0.00    +0.000 C 
ENDBRANCH  12  15
ENDBRANCH  11  12
ENDBRANCH   5  11
ENDBRANCH   1   8
BRANCH   3  16
ATOM     16  C   UNL     1       0.866   9.961  18.154  0.00  0.00    +0.000 A 
ATOM     17  C   UNL     1       1.368  11.158  18.679  0.00  0.00    +0.000 A 
ATOM     18  C   UNL     1       0.524  12.223  18.986  0.00  0.00    +0.000 A 
ATOM     19  C   UNL     1      -0.844  12.106  18.780  0.00  0.00    +0.000 A 
ATOM     20  C   UNL     1      -1.371  10.919  18.259  0.00  0.00    +0.000 A 
ATOM     21  C   UNL     1      -0.509   9.860  17.909  0.00  0.00    +0.000 A 
BRANCH  20  22
ATOM     22  C   UNL     1      -2.842  10.773  18.053  0.00  0.00    +0.000 C 
ATOM     23  O   UNL     1      -3.276   9.765  17.509  0.00  0.00    +0.000 OA
ATOM     24  N   UNL     1      -3.623  11.814  18.524  0.00  0.00    +0.000 N 
ATOM     25  H   UNL     1      -3.183  12.492  19.133  0.00  0.00    +0.000 HD
BRANCH  24  26
ATOM     26  C   UNL     1      -5.086  11.908  18.385  0.00  0.00    +0.000 C 
ATOM     27  C   UNL     1      -5.766  10.598  18.808  0.00  0.00    +0.000 C 
ATOM     28  C   UNL     1      -5.593  13.036  19.307  0.00  0.00    +0.000 C 
ATOM     29  C   UNL     1      -5.472  12.273  16.942  0.00  0.00    +0.000 C 
ENDBRANCH  24  26
ENDBRANCH  20  22
ENDBRANCH   3  16
TORSDOF 7
ENDMDL
