MODEL 1
REMARK VINA RESULT:      -8.5      0.000      0.000
REMARK  Name = 
REMARK  6 active torsions:
REMARK  status: ('A' for Active; 'I' for Inactive)
REMARK    1  A    between atoms: C_1  and  C_2
REMARK    2  A    between atoms: C_6  and  C_7
REMARK    3  A    between atoms: C_12  and  N_13
REMARK    4  A    between atoms: N_13  and  C_23
REMARK    5  A    between atoms: C_14  and  C_16
REMARK    6  A    between atoms: C_20  and  C_21
REMARK                            x       y       z     vdW  Elec       q    Type
REMARK                         _______ _______ _______ _____ _____    ______ ____
ROOT
ATOM      1  C   UNL     1       0.532   9.548  19.136  0.00  0.00    +0.000 C 
ATOM      2  O   UNL     1      -0.006  10.189  18.237  0.00  0.00    +0.000 OA
ATOM      3  N   UNL     1       1.565   8.649  18.878  0.00  0.00    +0.000 N 
ATOM      4  C   UNL     1       2.218   8.500  17.594  0.00  0.00    +0.000 C 
ATOM      5  C   UNL     1       2.809   7.085  17.642  0.00  0.00    +0.000 C 
ATOM      6  C   UNL     1       3.179   6.871  19.127  0.00  0.00    +0.000 C 
ATOM      7  C   UNL     1       2.281   7.873  19.849  0.00  0.00    +0.000 C 
ENDROOT
BRANCH   1  13
ATOM      8  C   UNL     1      -1.154  12.378  22.981  0.00  0.00    +0.000 C 
ATOM      9  C   UNL     1      -0.808  11.041  22.408  0.00  0.00    +0.000 A 
ATOM     10  C   UNL     1      -0.764   9.887  23.181  0.00  0.00    +0.000 A 
ATOM     11  N   UNL     1      -0.386   8.682  22.691  0.00  0.00    +0.000 NA
ATOM     12  C   UNL     1       0.004   8.627  21.384  0.00  0.00    +0.000 A 
ATOM     13  C   UNL     1       0.023   9.721  20.534  0.00  0.00    +0.000 A 
ATOM     14  C   UNL     1      -0.461  10.923  21.059  0.00  0.00    +0.000 A 
ENDBRANCH   1  13
BRANCH   6  15
ATOM     15  N   UNL     1       3.058   5.522  19.734  0.00  0.00    +0.000 N 
ATOM     16  C   UNL     1       3.883   4.406  19.429  0.00  0.00    +0.000 C 
ATOM     17  O   UNL     1       3.640   3.277  19.861  0.00  0.00    +0.000 OA
BRANCH  16  18
ATOM     18  C   UNL     1       5.069   4.504  18.537  0.00  0.00    +0.000 A 
ATOM     19  C   UNL     1       6.294   4.860  19.089  0.00  0.00    +0.000 A 
ATOM     20  N   UNL     1       7.453   4.952  18.383  0.00  0.00    +0.000 NA
ATOM     21  C   UNL     1       7.397   4.658  17.065  0.00  0.00    +0.000 A 
ATOM     22  C   UNL     1       6.224   4.336  16.403  0.00  0.00    +0.000 A 
ATOM     23  C   UNL     1       6.211   3.892  14.975  0.00  0.00    +0.000 C 
ATOM     24  C   UNL     1       5.043   4.359  17.154  0.00  0.00    +0.000 A 
ENDBRANCH  16  18
BRANCH  15  25
ATOM     25  C   UNL     1       1.967   5.286  20.667  0.00  0.00    +0.000 C 
ATOM     26  C   UNL     1       0.774   4.446  20.259  0.00  0.00    +0.000 C 
ATOM     27  C   UNL     1       1.687   3.960  21.335  0.00  0.00    +0.000 C 
ENDBRANCH  15  25
ENDBRANCH   6  15
TORSDOF 4
ENDMDL
MODEL 2
REMARK VINA RESULT:      -7.9      0.809      1.364
REMARK  Name = 
REMARK  6 active torsions:
REMARK  status: ('A' for Active; 'I' for Inactive)
REMARK    1  A    between atoms: C_1  and  C_2
REMARK    2  A    between atoms: C_6  and  C_7
REMARK    3  A    between atoms: C_12  and  N_13
REMARK    4  A    between atoms: N_13  and  C_23
REMARK    5  A    between atoms: C_14  and  C_16
REMARK    6  A    between atoms: C_20  and  C_21
REMARK                            x       y       z     vdW  Elec       q    Type
REMARK                         _______ _______ _______ _____ _____    ______ ____
ROOT
ATOM      1  C   UNL     1       0.309   9.686  19.186  0.00  0.00    +0.000 C 
ATOM      2  O   UNL     1      -0.275  10.305  18.301  0.00  0.00    +0.000 OA
ATOM      3  N   UNL     1       1.351   8.805  18.899  0.00  0.00    +0.000 N 
ATOM      4  C   UNL     1       1.958   8.655  17.593  0.00  0.00    +0.000 C 
ATOM      5  C   UNL     1       2.580   7.253  17.633  0.00  0.00    +0.000 C 
ATOM      6  C   UNL     1       3.010   7.064  19.106  0.00  0.00    +0.000 C 
ATOM      7  C   UNL     1       2.118   8.055  19.850  0.00  0.00    +0.000 C 
ENDROOT
BRANCH   1  13
ATOM      8  C   UNL     1      -1.235  12.530  23.079  0.00  0.00    +0.000 C 
ATOM      9  C   UNL     1      -0.914  11.190  22.498  0.00  0.00    +0.000 A 
ATOM     10  C   UNL     1      -0.847  10.038  23.272  0.00  0.00    +0.000 A 
ATOM     11  N   UNL     1      -0.489   8.831  22.773  0.00  0.00    +0.000 NA
ATOM     12  C   UNL     1      -0.144   8.771  21.453  0.00  0.00    +0.000 A 
ATOM     13  C   UNL     1      -0.151   9.864  20.600  0.00  0.00    +0.000 A 
ATOM     14  C   UNL     1      -0.613  11.068  21.138  0.00  0.00    +0.000 A 
ENDBRANCH   1  13
BRANCH   6  15
ATOM     15  N   UNL     1       2.941   5.720  19.731  0.00  0.00    +0.000 N 
ATOM     16  C   UNL     1       3.878   4.671  19.531  0.00  0.00    +0.000 C 
ATOM     17  O   UNL     1       3.686   3.533  19.966  0.00  0.00    +0.000 OA
BRANCH  16  18
ATOM     18  C   UNL     1       5.131   4.851  18.752  0.00  0.00    +0.000 A 
ATOM     19  C   UNL     1       5.306   4.116  17.584  0.00  0.00    +0.000 A 
ATOM     20  N   UNL     1       6.392   4.217  16.772  0.00  0.00    +0.000 NA
ATOM     21  C   UNL     1       7.347   5.105  17.128  0.00  0.00    +0.000 A 
ATOM     22  C   UNL     1       7.297   5.856  18.290  0.00  0.00    +0.000 A 
ATOM     23  C   UNL     1       8.302   6.921  18.594  0.00  0.00    +0.000 C 
ATOM     24  C   UNL     1       6.209   5.637  19.144  0.00  0.00    +0.000 A 
ENDBRANCH  16  18
BRANCH  15  25
ATOM     25  C   UNL     1       1.787   5.410  20.563  0.00  0.00    +0.000 C 
ATOM     26  C   UNL     1       0.734   4.432  20.085  0.00  0.00    +0.000 C 
ATOM     27  C   UNL     1       1.575   4.092  21.270  0.00  0.00    +0.000 C 
ENDBRANCH  15  25
ENDBRANCH   6  15
TORSDOF 4
ENDMDL
MODEL 3
REMARK VINA RESULT:      -7.7      3.114      7.932
REMARK  Name = 
REMARK  6 active torsions:
REMARK  status: ('A' for Active; 'I' for Inactive)
REMARK    1  A    between atoms: C_1  and  C_2
REMARK    2  A    between atoms: C_6  and  C_7
REMARK    3  A    between atoms: C_12  and  N_13
REMARK    4  A    between atoms: N_13  and  C_23
REMARK    5  A    between atoms: C_14  and  C_16
REMARK    6  A    between atoms: C_20  and  C_21
REMARK                            x       y       z     vdW  Elec       q    Type
REMARK                         _______ _______ _______ _____ _____    ______ ____
ROOT
ATOM      1  C   UNL     1       7.163   4.631  16.711  0.00  0.00    +0.000 C 
ATOM      2  O   UNL     1       8.035   3.922  17.206  0.00  0.00    +0.000 OA
ATOM      3  N   UNL     1       6.268   5.350  17.502  0.00  0.00    +0.000 N 
ATOM      4  C   UNL     1       6.369   5.478  18.941  0.00  0.00    +0.000 C 
ATOM      5  C   UNL     1       4.938   5.814  19.383  0.00  0.00    +0.000 C 
ATOM      6  C   UNL     1       4.357   6.643  18.214  0.00  0.00    +0.000 C 
ATOM      7  C   UNL     1       5.234   6.227  17.034  0.00  0.00    +0.000 C 
ENDROOT
BRANCH   1  13
ATOM      8  C   UNL     1       5.315   2.981  12.297  0.00  0.00    +0.000 C 
ATOM      9  C   UNL     1       6.174   3.930  13.071  0.00  0.00    +0.000 A 
ATOM     10  C   UNL     1       7.061   4.804  12.455  0.00  0.00    +0.000 A 
ATOM     11  N   UNL     1       7.895   5.619  13.145  0.00  0.00    +0.000 NA
ATOM     12  C   UNL     1       7.875   5.534  14.507  0.00  0.00    +0.000 A 
ATOM     13  C   UNL     1       7.049   4.679  15.219  0.00  0.00    +0.000 A 
ATOM     14  C   UNL     1       6.144   3.924  14.468  0.00  0.00    +0.000 A 
ENDBRANCH   1  13
BRANCH   6  15
ATOM     15  N   UNL     1       2.919   6.529  17.868  0.00  0.00    +0.000 N 
ATOM     16  C   UNL     1       2.167   5.323  17.864  0.00  0.00    +0.000 C 
ATOM     17  O   UNL     1       1.014   5.274  17.429  0.00  0.00    +0.000 OA
BRANCH  16  18
ATOM     18  C   UNL     1       2.722   4.029  18.340  0.00  0.00    +0.000 A 
ATOM     19  C   UNL     1       3.334   3.184  17.421  0.00  0.00    +0.000 A 
ATOM     20  N   UNL     1       3.905   1.991  17.741  0.00  0.00    +0.000 NA
ATOM     21  C   UNL     1       3.884   1.627  19.042  0.00  0.00    +0.000 A 
ATOM     22  C   UNL     1       3.264   2.369  20.033  0.00  0.00    +0.000 A 
ATOM     23  C   UNL     1       3.366   2.007  21.481  0.00  0.00    +0.000 C 
ATOM     24  C   UNL     1       2.600   3.535  19.634  0.00  0.00    +0.000 A 
ENDBRANCH  16  18
BRANCH  15  25
ATOM     25  C   UNL     1       2.224   7.728  17.425  0.00  0.00    +0.000 C 
ATOM     26  C   UNL     1       1.493   8.605  18.419  0.00  0.00    +0.000 C 
ATOM     27  C   UNL     1       2.690   9.137  17.706  0.00  0.00    +0.000 C 
ENDBRANCH  15  25
ENDBRANCH   6  15
TORSDOF 4
ENDMDL
MODEL 4
REMARK VINA RESULT:      -7.5      2.888      7.678
REMARK  Name = 
REMARK  6 active torsions:
REMARK  status: ('A' for Active; 'I' for Inactive)
REMARK    1  A    between atoms: C_1  and  C_2
REMARK    2  A    between atoms: C_6  and  C_7
REMARK    3  A    between atoms: C_12  and  N_13
REMARK    4  A    between atoms: N_13  and  C_23
REMARK    5  A    between atoms: C_14  and  C_16
REMARK    6  A    between atoms: C_20  and  C_21
REMARK                            x       y       z     vdW  Elec       q    Type
REMARK                         _______ _______ _______ _____ _____    ______ ____
ROOT
ATOM      1  C   UNL     1       3.045   6.746  18.027  0.00  0.00    +0.000 C 
ATOM      2  O   UNL     1       4.198   6.641  17.616  0.00  0.00    +0.000 OA
ATOM      3  N   UNL     1       2.376   7.969  18.027  0.00  0.00    +0.000 N 
ATOM      4  C   UNL     1       2.880   9.177  17.406  0.00  0.00    +0.000 C 
ATOM      5  C   UNL     1       2.146  10.305  18.143  0.00  0.00    +0.000 C 
ATOM      6  C   UNL     1       0.763   9.706  18.487  0.00  0.00    +0.000 C 
ATOM      7  C   UNL     1       1.027   8.202  18.454  0.00  0.00    +0.000 C 
ENDROOT
BRANCH   1  13
ATOM      8  C   UNL     1       2.029   3.472  21.752  0.00  0.00    +0.000 C 
ATOM      9  C   UNL     1       1.841   3.932  20.341  0.00  0.00    +0.000 A 
ATOM     10  C   UNL     1       1.176   3.168  19.390  0.00  0.00    +0.000 A 
ATOM     11  N   UNL     1       1.059   3.540  18.092  0.00  0.00    +0.000 NA
ATOM     12  C   UNL     1       1.663   4.704  17.713  0.00  0.00    +0.000 A 
ATOM     13  C   UNL     1       2.372   5.526  18.574  0.00  0.00    +0.000 A 
ATOM     14  C   UNL     1       2.389   5.147  19.919  0.00  0.00    +0.000 A 
ENDBRANCH   1  13
BRANCH   6  15
ATOM     15  N   UNL     1       0.080  10.094  19.746  0.00  0.00    +0.000 N 
ATOM     16  C   UNL     1      -1.226  10.646  19.836  0.00  0.00    +0.000 C 
ATOM     17  O   UNL     1      -1.679  11.079  20.898  0.00  0.00    +0.000 OA
BRANCH  16  18
ATOM     18  C   UNL     1      -2.123  10.783  18.659  0.00  0.00    +0.000 A 
ATOM     19  C   UNL     1      -3.183  11.680  18.725  0.00  0.00    +0.000 A 
ATOM     20  N   UNL     1      -4.051  11.916  17.705  0.00  0.00    +0.000 NA
ATOM     21  C   UNL     1      -3.846  11.239  16.553  0.00  0.00    +0.000 A 
ATOM     22  C   UNL     1      -2.850  10.290  16.391  0.00  0.00    +0.000 A 
ATOM     23  C   UNL     1      -2.567   9.651  15.069  0.00  0.00    +0.000 C 
ATOM     24  C   UNL     1      -2.052  10.009  17.506  0.00  0.00    +0.000 A 
ENDBRANCH  16  18
BRANCH  15  25
ATOM     25  C   UNL     1       0.820   9.971  20.993  0.00  0.00    +0.000 C 
ATOM     26  C   UNL     1       0.249   9.184  22.153  0.00  0.00    +0.000 C 
ATOM     27  C   UNL     1       1.484   8.701  21.470  0.00  0.00    +0.000 C 
ENDBRANCH  15  25
ENDBRANCH   6  15
TORSDOF 4
ENDMDL
MODEL 5
REMARK VINA RESULT:      -7.4      6.423      9.897
REMARK  Name = 
REMARK  6 active torsions:
REMARK  status: ('A' for Active; 'I' for Inactive)
REMARK    1  A    between atoms: C_1  and  C_2
REMARK    2  A    between atoms: C_6  and  C_7
REMARK    3  A    between atoms: C_12  and  N_13
REMARK    4  A    between atoms: N_13  and  C_23
REMARK    5  A    between atoms: C_14  and  C_16
REMARK    6  A    between atoms: C_20  and  C_21
REMARK                            x       y       z     vdW  Elec       q    Type
REMARK                         _______ _______ _______ _____ _____    ______ ____
ROOT
ATOM      1  C   UNL     1      -0.856  10.770  19.255  0.00  0.00    +0.000 C 
ATOM      2  O   UNL     1      -0.768   9.744  19.923  0.00  0.00    +0.000 OA
ATOM      3  N   UNL     1       0.045  11.823  19.407  0.00  0.00    +0.000 N 
ATOM      4  C   UNL     1       1.247  11.760  20.213  0.00  0.00    +0.000 C 
ATOM      5  C   UNL     1       1.554  13.229  20.533  0.00  0.00    +0.000 C 
ATOM      6  C   UNL     1       1.070  14.005  19.287  0.00  0.00    +0.000 C 
ATOM      7  C   UNL     1       0.054  13.049  18.664  0.00  0.00    +0.000 C 
ENDROOT
BRANCH   1  13
ATOM      8  C   UNL     1      -2.949  10.145  14.688  0.00  0.00    +0.000 C 
ATOM      9  C   UNL     1      -3.048  10.598  16.110  0.00  0.00    +0.000 A 
ATOM     10  C   UNL     1      -4.133  11.323  16.588  0.00  0.00    +0.000 A 
ATOM     11  N   UNL     1      -4.204  11.799  17.855  0.00  0.00    +0.000 NA
ATOM     12  C   UNL     1      -3.133  11.579  18.672  0.00  0.00    +0.000 A 
ATOM     13  C   UNL     1      -1.992  10.892  18.288  0.00  0.00    +0.000 A 
ATOM     14  C   UNL     1      -2.003  10.343  17.003  0.00  0.00    +0.000 A 
ENDBRANCH   1  13
BRANCH   6  15
ATOM     15  N   UNL     1       0.492  15.364  19.438  0.00  0.00    +0.000 N 
ATOM     16  C   UNL     1      -0.551  15.718  20.335  0.00  0.00    +0.000 C 
ATOM     17  O   UNL     1      -1.083  16.831  20.310  0.00  0.00    +0.000 OA
BRANCH  16  18
ATOM     18  C   UNL     1      -1.106  14.770  21.336  0.00  0.00    +0.000 A 
ATOM     19  C   UNL     1      -0.405  14.558  22.518  0.00  0.00    +0.000 A 
ATOM     20  N   UNL     1      -0.826  13.741  23.521  0.00  0.00    +0.000 NA
ATOM     21  C   UNL     1      -2.012  13.116  23.349  0.00  0.00    +0.000 A 
ATOM     22  C   UNL     1      -2.771  13.220  22.195  0.00  0.00    +0.000 A 
ATOM     23  C   UNL     1      -4.136  12.620  22.084  0.00  0.00    +0.000 C 
ATOM     24  C   UNL     1      -2.241  13.989  21.153  0.00  0.00    +0.000 A 
ENDBRANCH  16  18
BRANCH  15  25
ATOM     25  C   UNL     1       0.972  16.414  18.552  0.00  0.00    +0.000 C 
ATOM     26  C   UNL     1       2.034  17.388  19.018  0.00  0.00    +0.000 C 
ATOM     27  C   UNL     1       2.341  16.433  17.914  0.00  0.00    +0.000 C 
ENDBRANCH  15  25
ENDBRANCH   6  15
TORSDOF 4
ENDMDL
MODEL 6
REMARK VINA RESULT:      -7.3      5.305      9.087
REMARK  Name = 
REMARK  6 active torsions:
REMARK  status: ('A' for Active; 'I' for Inactive)
REMARK    1  A    between atoms: C_1  and  C_2
REMARK    2  A    between atoms: C_6  and  C_7
REMARK    3  A    between atoms: C_12  and  N_13
REMARK    4  A    between atoms: N_13  and  C_23
REMARK    5  A    between atoms: C_14  and  C_16
REMARK    6  A    between atoms: C_20  and  C_21
REMARK                            x       y       z     vdW  Elec       q    Type
REMARK                         _______ _______ _______ _____ _____    ______ ____
ROOT
ATOM      1  C   UNL     1      -3.916  11.533  17.708  0.00  0.00    +0.000 C 
ATOM      2  O   UNL     1      -4.002  11.459  16.486  0.00  0.00    +0.000 OA
ATOM      3  N   UNL     1      -2.683  11.640  18.350  0.00  0.00    +0.000 N 
ATOM      4  C   UNL     1      -1.422  11.844  17.669  0.00  0.00    +0.000 C 
ATOM      5  C   UNL     1      -0.376  11.322  18.664  0.00  0.00    +0.000 C 
ATOM      6  C   UNL     1      -0.973  11.640  20.054  0.00  0.00    +0.000 C 
ATOM      7  C   UNL     1      -2.467  11.762  19.763  0.00  0.00    +0.000 C 
ENDROOT
BRANCH   1  13
ATOM      8  C   UNL     1      -7.572   8.988  20.113  0.00  0.00    +0.000 C 
ATOM      9  C   UNL     1      -6.949  10.283  19.698  0.00  0.00    +0.000 A 
ATOM     10  C   UNL     1      -7.584  11.506  19.875  0.00  0.00    +0.000 A 
ATOM     11  N   UNL     1      -7.064  12.680  19.442  0.00  0.00    +0.000 NA
ATOM     12  C   UNL     1      -5.878  12.633  18.768  0.00  0.00    +0.000 A 
ATOM     13  C   UNL     1      -5.176  11.465  18.514  0.00  0.00    +0.000 A 
ATOM     14  C   UNL     1      -5.707  10.292  19.058  0.00  0.00    +0.000 A 
ENDBRANCH   1  13
BRANCH   6  15
ATOM     15  N   UNL     1      -0.730  10.721  21.193  0.00  0.00    +0.000 N 
ATOM     16  C   UNL     1      -0.912  11.044  22.564  0.00  0.00    +0.000 C 
ATOM     17  O   UNL     1      -0.557  10.283  23.467  0.00  0.00    +0.000 OA
BRANCH  16  18
ATOM     18  C   UNL     1      -1.501  12.333  23.014  0.00  0.00    +0.000 A 
ATOM     19  C   UNL     1      -2.836  12.360  23.403  0.00  0.00    +0.000 A 
ATOM     20  N   UNL     1      -3.476  13.468  23.862  0.00  0.00    +0.000 NA
ATOM     21  C   UNL     1      -2.751  14.605  23.956  0.00  0.00    +0.000 A 
ATOM     22  C   UNL     1      -1.429  14.703  23.555  0.00  0.00    +0.000 A 
ATOM     23  C   UNL     1      -0.615  15.936  23.788  0.00  0.00    +0.000 C 
ATOM     24  C   UNL     1      -0.849  13.560  22.991  0.00  0.00    +0.000 A 
ENDBRANCH  16  18
BRANCH  15  25
ATOM     25  C   UNL     1      -0.194   9.399  20.903  0.00  0.00    +0.000 C 
ATOM     26  C   UNL     1       1.177   9.244  20.278  0.00  0.00    +0.000 C 
ATOM     27  C   UNL     1       0.938   8.752  21.666  0.00  0.00    +0.000 C 
ENDBRANCH  15  25
ENDBRANCH   6  15
TORSDOF 4
ENDMDL
MODEL 7
REMARK VINA RESULT:      -7.3      6.406      9.826
REMARK  Name = 
REMARK  6 active torsions:
REMARK  status: ('A' for Active; 'I' for Inactive)
REMARK    1  A    between atoms: C_1  and  C_2
REMARK    2  A    between atoms: C_6  and  C_7
REMARK    3  A    between atoms: C_12  and  N_13
REMARK    4  A    between atoms: N_13  and  C_23
REMARK    5  A    between atoms: C_14  and  C_16
REMARK    6  A    between atoms: C_20  and  C_21
REMARK                            x       y       z     vdW  Elec       q    Type
REMARK                         _______ _______ _______ _____ _____    ______ ____
ROOT
ATOM      1  C   UNL     1      -0.860  10.708  19.293  0.00  0.00    +0.000 C 
ATOM      2  O   UNL     1      -0.825   9.693  19.984  0.00  0.00    +0.000 OA
ATOM      3  N   UNL     1       0.033  11.760  19.491  0.00  0.00    +0.000 N 
ATOM      4  C   UNL     1       1.174  11.707  20.381  0.00  0.00    +0.000 C 
ATOM      5  C   UNL     1       1.465  13.180  20.697  0.00  0.00    +0.000 C 
ATOM      6  C   UNL     1       1.075  13.936  19.406  0.00  0.00    +0.000 C 
ATOM      7  C   UNL     1       0.101  12.973  18.729  0.00  0.00    +0.000 C 
ENDROOT
BRANCH   1  13
ATOM      8  C   UNL     1      -5.451  12.112  17.688  0.00  0.00    +0.000 C 
ATOM      9  C   UNL     1      -4.118  11.488  17.423  0.00  0.00    +0.000 A 
ATOM     10  C   UNL     1      -3.835  10.808  16.245  0.00  0.00    +0.000 A 
ATOM     11  N   UNL     1      -2.657  10.178  16.019  0.00  0.00    +0.000 NA
ATOM     12  C   UNL     1      -1.732  10.191  17.024  0.00  0.00    +0.000 A 
ATOM     13  C   UNL     1      -1.924  10.817  18.246  0.00  0.00    +0.000 A 
ATOM     14  C   UNL     1      -3.118  11.528  18.397  0.00  0.00    +0.000 A 
ENDBRANCH   1  13
BRANCH   6  15
ATOM     15  N   UNL     1       0.494  15.299  19.492  0.00  0.00    +0.000 N 
ATOM     16  C   UNL     1      -0.640  15.662  20.266  0.00  0.00    +0.000 C 
ATOM     17  O   UNL     1      -1.157  16.779  20.182  0.00  0.00    +0.000 OA
BRANCH  16  18
ATOM     18  C   UNL     1      -1.312  14.719  21.198  0.00  0.00    +0.000 A 
ATOM     19  C   UNL     1      -0.723  14.463  22.432  0.00  0.00    +0.000 A 
ATOM     20  N   UNL     1      -1.257  13.646  23.379  0.00  0.00    +0.000 NA
ATOM     21  C   UNL     1      -2.444  13.066  23.095  0.00  0.00    +0.000 A 
ATOM     22  C   UNL     1      -3.096  13.216  21.882  0.00  0.00    +0.000 A 
ATOM     23  C   UNL     1      -4.467  12.667  21.643  0.00  0.00    +0.000 C 
ATOM     24  C   UNL     1      -2.453  13.982  20.904  0.00  0.00    +0.000 A 
ENDBRANCH  16  18
BRANCH  15  25
ATOM     25  C   UNL     1       1.079  16.345  18.666  0.00  0.00    +0.000 C 
ATOM     26  C   UNL     1       2.200  17.212  19.201  0.00  0.00    +0.000 C 
ATOM     27  C   UNL     1       2.463  16.283  18.063  0.00  0.00    +0.000 C 
ENDBRANCH  15  25
ENDBRANCH   6  15
TORSDOF 4
ENDMDL
MODEL 8
REMARK VINA RESULT:      -7.2      5.580      9.194
REMARK  Name = 
REMARK  6 active torsions:
REMARK  status: ('A' for Active; 'I' for Inactive)
REMARK    1  A    between atoms: C_1  and  C_2
REMARK    2  A    between atoms: C_6  and  C_7
REMARK    3  A    between atoms: C_12  and  N_13
REMARK    4  A    between atoms: N_13  and  C_23
REMARK    5  A    between atoms: C_14  and  C_16
REMARK    6  A    between atoms: C_20  and  C_21
REMARK                            x       y       z     vdW  Elec       q    Type
REMARK                         _______ _______ _______ _____ _____    ______ ____
ROOT
ATOM      1  C   UNL     1      -3.749  11.668  17.822  0.00  0.00    +0.000 C 
ATOM      2  O   UNL     1      -3.798  11.637  16.595  0.00  0.00    +0.000 OA
ATOM      3  N   UNL     1      -2.560  11.933  18.501  0.00  0.00    +0.000 N 
ATOM      4  C   UNL     1      -1.332  12.358  17.863  0.00  0.00    +0.000 C 
ATOM      5  C   UNL     1      -0.238  11.956  18.862  0.00  0.00    +0.000 C 
ATOM      6  C   UNL     1      -0.904  12.117  20.248  0.00  0.00    +0.000 C 
ATOM      7  C   UNL     1      -2.393  12.022  19.922  0.00  0.00    +0.000 C 
ENDROOT
BRANCH   1  13
ATOM      8  C   UNL     1      -7.424  12.920  21.071  0.00  0.00    +0.000 C 
ATOM      9  C   UNL     1      -6.797  11.934  20.137  0.00  0.00    +0.000 A 
ATOM     10  C   UNL     1      -7.225  10.615  20.049  0.00  0.00    +0.000 A 
ATOM     11  N   UNL     1      -6.623   9.693  19.259  0.00  0.00    +0.000 NA
ATOM     12  C   UNL     1      -5.523  10.089  18.554  0.00  0.00    +0.000 A 
ATOM     13  C   UNL     1      -4.999  11.371  18.590  0.00  0.00    +0.000 A 
ATOM     14  C   UNL     1      -5.706  12.309  19.349  0.00  0.00    +0.000 A 
ENDBRANCH   1  13
BRANCH   6  15
ATOM     15  N   UNL     1      -0.546  11.194  21.353  0.00  0.00    +0.000 N 
ATOM     16  C   UNL     1      -0.922  11.355  22.714  0.00  0.00    +0.000 C 
ATOM     17  O   UNL     1      -0.473  10.631  23.605  0.00  0.00    +0.000 OA
BRANCH  16  18
ATOM     18  C   UNL     1      -1.846  12.427  23.170  0.00  0.00    +0.000 A 
ATOM     19  C   UNL     1      -1.347  13.715  23.336  0.00  0.00    +0.000 A 
ATOM     20  N   UNL     1      -2.098  14.782  23.718  0.00  0.00    +0.000 NA
ATOM     21  C   UNL     1      -3.415  14.565  23.928  0.00  0.00    +0.000 A 
ATOM     22  C   UNL     1      -4.009  13.317  23.835  0.00  0.00    +0.000 A 
ATOM     23  C   UNL     1      -5.488  13.129  23.949  0.00  0.00    +0.000 C 
ATOM     24  C   UNL     1      -3.171  12.235  23.543  0.00  0.00    +0.000 A 
ENDBRANCH  16  18
BRANCH  15  25
ATOM     25  C   UNL     1       0.320  10.064  21.049  0.00  0.00    +0.000 C 
ATOM     26  C   UNL     1      -0.163   8.645  21.261  0.00  0.00    +0.000 C 
ATOM     27  C   UNL     1       0.123   9.129  19.879  0.00  0.00    +0.000 C 
ENDBRANCH  15  25
ENDBRANCH   6  15
TORSDOF 4
ENDMDL
MODEL 9
REMARK VINA RESULT:      -7.2      2.925      7.802
REMARK  Name = 
REMARK  6 active torsions:
REMARK  status: ('A' for Active; 'I' for Inactive)
REMARK    1  A    between atoms: C_1  and  C_2
REMARK    2  A    between atoms: C_6  and  C_7
REMARK    3  A    between atoms: C_12  and  N_13
REMARK    4  A    between atoms: N_13  and  C_23
REMARK    5  A    between atoms: C_14  and  C_16
REMARK    6  A    between atoms: C_20  and  C_21
REMARK                            x       y       z     vdW  Elec       q    Type
REMARK                         _______ _______ _______ _____ _____    ______ ____
ROOT
ATOM      1  C   UNL     1       2.989   7.007  18.286  0.00  0.00    +0.000 C 
ATOM      2  O   UNL     1       4.117   6.898  17.811  0.00  0.00    +0.000 OA
ATOM      3  N   UNL     1       2.261   8.191  18.179  0.00  0.00    +0.000 N 
ATOM      4  C   UNL     1       2.662   9.327  17.376  0.00  0.00    +0.000 C 
ATOM      5  C   UNL     1       1.920  10.510  18.014  0.00  0.00    +0.000 C 
ATOM      6  C   UNL     1       0.595   9.903  18.528  0.00  0.00    +0.000 C 
ATOM      7  C   UNL     1       0.932   8.420  18.668  0.00  0.00    +0.000 C 
ENDROOT
BRANCH   1  13
ATOM      8  C   UNL     1       0.659   2.517  18.489  0.00  0.00    +0.000 C 
ATOM      9  C   UNL     1       1.312   3.673  19.178  0.00  0.00    +0.000 A 
ATOM     10  C   UNL     1       1.276   3.835  20.558  0.00  0.00    +0.000 A 
ATOM     11  N   UNL     1       1.802   4.912  21.190  0.00  0.00    +0.000 NA
ATOM     12  C   UNL     1       2.353   5.891  20.414  0.00  0.00    +0.000 A 
ATOM     13  C   UNL     1       2.417   5.841  19.031  0.00  0.00    +0.000 A 
ATOM     14  C   UNL     1       1.943   4.671  18.430  0.00  0.00    +0.000 A 
ENDBRANCH   1  13
BRANCH   6  15
ATOM     15  N   UNL     1      -0.023  10.422  19.773  0.00  0.00    +0.000 N 
ATOM     16  C   UNL     1      -1.315  11.006  19.868  0.00  0.00    +0.000 C 
ATOM     17  O   UNL     1      -1.712  11.547  20.903  0.00  0.00    +0.000 OA
BRANCH  16  18
ATOM     18  C   UNL     1      -2.263  11.048  18.724  0.00  0.00    +0.000 A 
ATOM     19  C   UNL     1      -3.394  11.851  18.821  0.00  0.00    +0.000 A 
ATOM     20  N   UNL     1      -4.317  11.996  17.831  0.00  0.00    +0.000 NA
ATOM     21  C   UNL     1      -4.095  11.323  16.680  0.00  0.00    +0.000 A 
ATOM     22  C   UNL     1      -3.027  10.463  16.491  0.00  0.00    +0.000 A 
ATOM     23  C   UNL     1      -2.738   9.833  15.166  0.00  0.00    +0.000 C 
ATOM     24  C   UNL     1      -2.167  10.268  17.577  0.00  0.00    +0.000 A 
ENDBRANCH  16  18
BRANCH  15  25
ATOM     25  C   UNL     1       0.772  10.404  20.992  0.00  0.00    +0.000 C 
ATOM     26  C   UNL     1       0.233   9.761  22.253  0.00  0.00    +0.000 C 
ATOM     27  C   UNL     1       1.419   9.168  21.570  0.00  0.00    +0.000 C 
ENDBRANCH  15  25
ENDBRANCH   6  15
TORSDOF 4
ENDMDL
