MODEL 1
REMARK VINA RESULT:      -7.7      0.000      0.000
REMARK  Name = 
REMARK  5 active torsions:
REMARK  status: ('A' for Active; 'I' for Inactive)
REMARK    1  A    between atoms: C_1  and  N_2
REMARK    2  A    between atoms: N_2  and  C_3
REMARK    3  A    between atoms: C_12  and  C_13
REMARK    4  A    between atoms: C_13  and  O_15
REMARK    5  A    between atoms: C_26  and  C_27
REMARK                            x       y       z     vdW  Elec       q    Type
REMARK                         _______ _______ _______ _____ _____    ______ ____
ROOT
ATOM      1  C   UNL     1       1.417  10.553  17.762  0.00  0.00    +0.000 C 
ATOM      2  C   UNL     1       1.957   9.092  17.769  0.00  0.00    +0.000 C 
ATOM      3  N   UNL     1       1.609   8.587  19.098  0.00  0.00    +0.000 N 
ATOM      4  C   UNL     1       1.988   7.344  19.519  0.00  0.00    +0.000 A 
ATOM      5  C   UNL     1       1.581   6.839  20.749  0.00  0.00    +0.000 A 
ATOM      6  C   UNL     1       1.969   5.568  21.142  0.00  0.00    +0.000 A 
ATOM      7  C   UNL     1       2.819   4.842  20.314  0.00  0.00    +0.000 A 
ATOM      8  C   UNL     1       3.246   3.505  20.734  0.00  0.00    +0.000 A 
ATOM      9  O   UNL     1       2.813   2.989  21.764  0.00  0.00    +0.000 OA
ATOM     10  C   UNL     1       4.219   2.784  19.901  0.00  0.00    +0.000 A 
ATOM     11  C   UNL     1       4.609   3.392  18.768  0.00  0.00    +0.000 A 
ATOM     12  N   UNL     1       4.209   4.657  18.313  0.00  0.00    +0.000 N 
ATOM     13  C   UNL     1       4.706   5.164  17.123  0.00  0.00    +0.000 A 
ATOM     14  N   UNL     1       5.026   4.411  16.080  0.00  0.00    +0.000 NA
ATOM     15  C   UNL     1       5.482   5.180  15.025  0.00  0.00    +0.000 A 
ATOM     16  C   UNL     1       5.585   6.526  15.270  0.00  0.00    +0.000 A 
ATOM     17  S   UNL     1       5.124   6.843  16.879  0.00  0.00    +0.000 S 
ATOM     18  C   UNL     1       3.264   5.394  19.111  0.00  0.00    +0.000 A 
ATOM     19  N   UNL     1       2.798   6.610  18.723  0.00  0.00    +0.000 NA
ATOM     20  C   UNL     1       0.638   9.432  19.770  0.00  0.00    +0.000 C 
ATOM     21  C   UNL     1       0.198  10.441  18.702  0.00  0.00    +0.000 C 
ATOM     22  C   UNL     1      -1.042   9.937  17.960  0.00  0.00    +0.000 C 
ENDROOT
BRANCH   1  24
ATOM     23  C   UNL     1       1.950  12.811  18.555  0.00  0.00    +0.000 C 
ATOM     24  N   UNL     1       2.456  11.485  18.241  0.00  0.00    +0.000 NA
ATOM     25  H   UNL     1       2.951  11.080  19.034  0.00  0.00    +0.000 HD
ENDBRANCH   1  24
BRANCH  10  26
ATOM     26  C   UNL     1       4.780   1.469  20.283  0.00  0.00    +0.000 C 
ATOM     27  O   UNL     1       5.304   1.252  21.365  0.00  0.00    +0.000 OA
BRANCH  26  28
ATOM     28  O   UNL     1       4.652   0.509  19.340  0.00  0.00    +0.000 OA
ATOM     29  H   UNL     1       3.999  -0.206  19.561  0.00  0.00    +0.000 HD
ENDBRANCH  26  28
ENDBRANCH  10  26
TORSDOF 3
ENDMDL
MODEL 2
REMARK VINA RESULT:      -7.2      7.519     10.815
REMARK  Name = 
REMARK  5 active torsions:
REMARK  status: ('A' for Active; 'I' for Inactive)
REMARK    1  A    between atoms: C_1  and  N_2
REMARK    2  A    between atoms: N_2  and  C_3
REMARK    3  A    between atoms: C_12  and  C_13
REMARK    4  A    between atoms: C_13  and  O_15
REMARK    5  A    between atoms: C_26  and  C_27
REMARK                            x       y       z     vdW  Elec       q    Type
REMARK                         _______ _______ _______ _____ _____    ______ ____
ROOT
ATOM      1  C   UNL     1       1.231  12.457  18.328  0.00  0.00    +0.000 C 
ATOM      2  C   UNL     1      -0.218  12.660  18.860  0.00  0.00    +0.000 C 
ATOM      3  N   UNL     1      -0.073  12.629  20.316  0.00  0.00    +0.000 N 
ATOM      4  C   UNL     1      -1.153  12.699  21.151  0.00  0.00    +0.000 A 
ATOM      5  C   UNL     1      -1.001  12.756  22.532  0.00  0.00    +0.000 A 
ATOM      6  C   UNL     1      -2.115  12.843  23.351  0.00  0.00    +0.000 A 
ATOM      7  C   UNL     1      -3.378  12.810  22.770  0.00  0.00    +0.000 A 
ATOM      8  C   UNL     1      -4.558  12.885  23.634  0.00  0.00    +0.000 A 
ATOM      9  O   UNL     1      -4.452  13.046  24.849  0.00  0.00    +0.000 OA
ATOM     10  C   UNL     1      -5.888  12.752  23.021  0.00  0.00    +0.000 A 
ATOM     11  C   UNL     1      -5.924  12.626  21.683  0.00  0.00    +0.000 A 
ATOM     12  N   UNL     1      -4.824  12.576  20.814  0.00  0.00    +0.000 N 
ATOM     13  C   UNL     1      -5.014  12.430  19.449  0.00  0.00    +0.000 A 
ATOM     14  N   UNL     1      -6.059  12.921  18.797  0.00  0.00    +0.000 NA
ATOM     15  C   UNL     1      -5.986  12.640  17.445  0.00  0.00    +0.000 A 
ATOM     16  C   UNL     1      -4.920  11.868  17.054  0.00  0.00    +0.000 A 
ATOM     17  S   UNL     1      -3.992  11.455  18.422  0.00  0.00    +0.000 S 
ATOM     18  C   UNL     1      -3.507  12.693  21.384  0.00  0.00    +0.000 A 
ATOM     19  N   UNL     1      -2.392  12.690  20.608  0.00  0.00    +0.000 NA
ATOM     20  C   UNL     1       1.311  12.770  20.734  0.00  0.00    +0.000 C 
ATOM     21  C   UNL     1       2.071  13.110  19.446  0.00  0.00    +0.000 C 
ATOM     22  C   UNL     1       2.173  14.625  19.262  0.00  0.00    +0.000 C 
ENDROOT
BRANCH   1  24
ATOM     23  C   UNL     1       0.323  10.182  18.210  0.00  0.00    +0.000 C 
ATOM     24  N   UNL     1       1.508  11.020  18.134  0.00  0.00    +0.000 NA
ATOM     25  H   UNL     1       2.009  10.875  17.258  0.00  0.00    +0.000 HD
ENDBRANCH   1  24
BRANCH  10  26
ATOM     26  C   UNL     1      -7.136  12.724  23.815  0.00  0.00    +0.000 C 
ATOM     27  O   UNL     1      -7.916  11.783  23.804  0.00  0.00    +0.000 OA
BRANCH  26  28
ATOM     28  O   UNL     1      -7.342  13.822  24.575  0.00  0.00    +0.000 OA
ATOM     29  H   UNL     1      -6.647  13.985  25.266  0.00  0.00    +0.000 HD
ENDBRANCH  26  28
ENDBRANCH  10  26
TORSDOF 3
ENDMDL
MODEL 3
REMARK VINA RESULT:      -7.0      3.664      6.857
REMARK  Name = 
REMARK  5 active torsions:
REMARK  status: ('A' for Active; 'I' for Inactive)
REMARK    1  A    between atoms: C_1  and  N_2
REMARK    2  A    between atoms: N_2  and  C_3
REMARK    3  A    between atoms: C_12  and  C_13
REMARK    4  A    between atoms: C_13  and  O_15
REMARK    5  A    between atoms: C_26  and  C_27
REMARK                            x       y       z     vdW  Elec       q    Type
REMARK                         _______ _______ _______ _____ _____    ______ ____
ROOT
ATOM      1  C   UNL     1       6.357   3.853  15.784  0.00  0.00    +0.000 C 
ATOM      2  C   UNL     1       5.206   4.269  16.747  0.00  0.00    +0.000 C 
ATOM      3  N   UNL     1       5.033   5.701  16.500  0.00  0.00    +0.000 N 
ATOM      4  C   UNL     1       4.151   6.456  17.221  0.00  0.00    +0.000 A 
ATOM      5  C   UNL     1       3.930   7.796  16.923  0.00  0.00    +0.000 A 
ATOM      6  C   UNL     1       3.017   8.532  17.662  0.00  0.00    +0.000 A 
ATOM      7  C   UNL     1       2.379   7.921  18.738  0.00  0.00    +0.000 A 
ATOM      8  C   UNL     1       1.427   8.700  19.533  0.00  0.00    +0.000 A 
ATOM      9  O   UNL     1       1.130   9.854  19.225  0.00  0.00    +0.000 OA
ATOM     10  C   UNL     1       0.831   8.078  20.724  0.00  0.00    +0.000 A 
ATOM     11  C   UNL     1       1.169   6.800  20.968  0.00  0.00    +0.000 A 
ATOM     12  N   UNL     1       2.054   6.008  20.223  0.00  0.00    +0.000 N 
ATOM     13  C   UNL     1       2.317   4.702  20.603  0.00  0.00    +0.000 A 
ATOM     14  N   UNL     1       1.428   3.917  21.196  0.00  0.00    +0.000 NA
ATOM     15  C   UNL     1       1.953   2.663  21.449  0.00  0.00    +0.000 A 
ATOM     16  C   UNL     1       3.275   2.493  21.119  0.00  0.00    +0.000 A 
ATOM     17  S   UNL     1       3.892   3.954  20.496  0.00  0.00    +0.000 S 
ATOM     18  C   UNL     1       2.663   6.591  19.055  0.00  0.00    +0.000 A 
ATOM     19  N   UNL     1       3.503   5.879  18.259  0.00  0.00    +0.000 NA
ATOM     20  C   UNL     1       5.693   6.132  15.281  0.00  0.00    +0.000 C 
ATOM     21  C   UNL     1       6.155   4.833  14.610  0.00  0.00    +0.000 C 
ATOM     22  C   UNL     1       5.096   4.326  13.628  0.00  0.00    +0.000 C 
ENDROOT
BRANCH   1  24
ATOM     23  C   UNL     1       7.567   4.496  17.818  0.00  0.00    +0.000 C 
ATOM     24  N   UNL     1       7.663   3.989  16.459  0.00  0.00    +0.000 NA
ATOM     25  H   UNL     1       8.166   3.104  16.428  0.00  0.00    +0.000 HD
ENDBRANCH   1  24
BRANCH  10  26
ATOM     26  C   UNL     1      -0.071   8.809  21.642  0.00  0.00    +0.000 C 
ATOM     27  O   UNL     1      -0.966   8.267  22.274  0.00  0.00    +0.000 OA
BRANCH  26  28
ATOM     28  O   UNL     1       0.184  10.132  21.744  0.00  0.00    +0.000 OA
ATOM     29  H   UNL     1      -0.125  10.675  20.972  0.00  0.00    +0.000 HD
ENDBRANCH  26  28
ENDBRANCH  10  26
TORSDOF 3
ENDMDL
MODEL 4
REMARK VINA RESULT:      -6.6      6.423      9.749
REMARK  Name = 
REMARK  5 active torsions:
REMARK  status: ('A' for Active; 'I' for Inactive)
REMARK    1  A    between atoms: C_1  and  N_2
REMARK    2  A    between atoms: N_2  and  C_3
REMARK    3  A    between atoms: C_12  and  C_13
REMARK    4  A    between atoms: C_13  and  O_15
REMARK    5  A    between atoms: C_26  and  C_27
REMARK                            x       y       z     vdW  Elec       q    Type
REMARK                         _______ _______ _______ _____ _____    ______ ____
ROOT
ATOM      1  C   UNL     1      -7.306  14.553  20.694  0.00  0.00    +0.000 C 
ATOM      2  C   UNL     1      -5.823  14.126  20.484  0.00  0.00    +0.000 C 
ATOM      3  N   UNL     1      -5.897  13.049  19.496  0.00  0.00    +0.000 N 
ATOM      4  C   UNL     1      -4.789  12.354  19.101  0.00  0.00    +0.000 A 
ATOM      5  C   UNL     1      -4.853  11.391  18.100  0.00  0.00    +0.000 A 
ATOM      6  C   UNL     1      -3.708  10.714  17.711  0.00  0.00    +0.000 A 
ATOM      7  C   UNL     1      -2.517  10.973  18.381  0.00  0.00    +0.000 A 
ATOM      8  C   UNL     1      -1.308  10.247  17.985  0.00  0.00    +0.000 A 
ATOM      9  O   UNL     1      -1.313   9.471  17.030  0.00  0.00    +0.000 OA
ATOM     10  C   UNL     1      -0.077  10.454  18.760  0.00  0.00    +0.000 A 
ATOM     11  C   UNL     1      -0.139  11.352  19.759  0.00  0.00    +0.000 A 
ATOM     12  N   UNL     1      -1.264  12.089  20.158  0.00  0.00    +0.000 N 
ATOM     13  C   UNL     1      -1.182  12.975  21.219  0.00  0.00    +0.000 A 
ATOM     14  N   UNL     1      -0.087  13.660  21.521  0.00  0.00    +0.000 NA
ATOM     15  C   UNL     1      -0.292  14.479  22.617  0.00  0.00    +0.000 A 
ATOM     16  C   UNL     1      -1.524  14.379  23.213  0.00  0.00    +0.000 A 
ATOM     17  S   UNL     1      -2.451  13.205  22.398  0.00  0.00    +0.000 S 
ATOM     18  C   UNL     1      -2.489  11.901  19.425  0.00  0.00    +0.000 A 
ATOM     19  N   UNL     1      -3.614  12.602  19.724  0.00  0.00    +0.000 NA
ATOM     20  C   UNL     1      -7.189  12.998  18.834  0.00  0.00    +0.000 C 
ATOM     21  C   UNL     1      -7.916  14.262  19.307  0.00  0.00    +0.000 C 
ATOM     22  C   UNL     1      -7.680  15.418  18.333  0.00  0.00    +0.000 C 
ENDROOT
BRANCH   1  24
ATOM     23  C   UNL     1      -7.001  13.506  22.890  0.00  0.00    +0.000 C 
ATOM     24  N   UNL     1      -7.913  13.773  21.790  0.00  0.00    +0.000 NA
ATOM     25  H   UNL     1      -8.763  14.230  22.116  0.00  0.00    +0.000 HD
ENDBRANCH   1  24
BRANCH  10  26
ATOM     26  C   UNL     1       1.171   9.704  18.498  0.00  0.00    +0.000 C 
ATOM     27  O   UNL     1       1.604   8.841  19.247  0.00  0.00    +0.000 OA
BRANCH  26  28
ATOM     28  O   UNL     1       1.792  10.035  17.344  0.00  0.00    +0.000 OA
ATOM     29  H   UNL     1       2.017   9.266  16.757  0.00  0.00    +0.000 HD
ENDBRANCH  26  28
ENDBRANCH  10  26
TORSDOF 3
ENDMDL
MODEL 5
REMARK VINA RESULT:      -6.4      8.646     10.520
REMARK  Name = 
REMARK  5 active torsions:
REMARK  status: ('A' for Active; 'I' for Inactive)
REMARK    1  A    between atoms: C_1  and  N_2
REMARK    2  A    between atoms: N_2  and  C_3
REMARK    3  A    between atoms: C_12  and  C_13
REMARK    4  A    between atoms: C_13  and  O_15
REMARK    5  A    between atoms: C_26  and  C_27
REMARK                            x       y       z     vdW  Elec       q    Type
REMARK                         _______ _______ _______ _____ _____    ______ ____
ROOT
ATOM      1  C   UNL     1      -7.025  11.599  20.090  0.00  0.00    +0.000 C 
ATOM      2  C   UNL     1      -5.638  12.233  20.405  0.00  0.00    +0.000 C 
ATOM      3  N   UNL     1      -4.771  11.751  19.330  0.00  0.00    +0.000 N 
ATOM      4  C   UNL     1      -3.435  12.034  19.299  0.00  0.00    +0.000 A 
ATOM      5  C   UNL     1      -2.635  11.645  18.229  0.00  0.00    +0.000 A 
ATOM      6  C   UNL     1      -1.286  11.961  18.219  0.00  0.00    +0.000 A 
ATOM      7  C   UNL     1      -0.743  12.614  19.321  0.00  0.00    +0.000 A 
ATOM      8  C   UNL     1       0.687  12.934  19.322  0.00  0.00    +0.000 A 
ATOM      9  O   UNL     1       1.395  12.701  18.343  0.00  0.00    +0.000 OA
ATOM     10  C   UNL     1       1.272  13.536  20.528  0.00  0.00    +0.000 A 
ATOM     11  C   UNL     1       0.426  13.804  21.538  0.00  0.00    +0.000 A 
ATOM     12  N   UNL     1      -0.951  13.540  21.573  0.00  0.00    +0.000 N 
ATOM     13  C   UNL     1      -1.700  13.863  22.693  0.00  0.00    +0.000 A 
ATOM     14  N   UNL     1      -1.438  14.899  23.478  0.00  0.00    +0.000 NA
ATOM     15  C   UNL     1      -2.352  14.991  24.511  0.00  0.00    +0.000 A 
ATOM     16  C   UNL     1      -3.283  13.985  24.574  0.00  0.00    +0.000 A 
ATOM     17  S   UNL     1      -2.994  12.871  23.319  0.00  0.00    +0.000 S 
ATOM     18  C   UNL     1      -1.554  12.941  20.410  0.00  0.00    +0.000 A 
ATOM     19  N   UNL     1      -2.887  12.686  20.349  0.00  0.00    +0.000 NA
ATOM     20  C   UNL     1      -5.527  11.186  18.226  0.00  0.00    +0.000 C 
ATOM     21  C   UNL     1      -6.989  11.515  18.549  0.00  0.00    +0.000 C 
ATOM     22  C   UNL     1      -7.402  12.839  17.903  0.00  0.00    +0.000 C 
ENDROOT
BRANCH   1  24
ATOM     23  C   UNL     1      -7.338   9.181  19.835  0.00  0.00    +0.000 C 
ATOM     24  N   UNL     1      -7.154  10.289  20.757  0.00  0.00    +0.000 NA
ATOM     25  H   UNL     1      -6.357  10.130  21.372  0.00  0.00    +0.000 HD
ENDBRANCH   1  24
BRANCH  10  26
ATOM     26  C   UNL     1       2.719  13.814  20.663  0.00  0.00    +0.000 C 
ATOM     27  O   UNL     1       3.351  13.597  21.686  0.00  0.00    +0.000 OA
BRANCH  26  28
ATOM     28  O   UNL     1       3.300  14.315  19.551  0.00  0.00    +0.000 OA
ATOM     29  H   UNL     1       4.184  14.742  19.699  0.00  0.00    +0.000 HD
ENDBRANCH  26  28
ENDBRANCH  10  26
TORSDOF 3
ENDMDL
MODEL 6
REMARK VINA RESULT:      -6.4      8.884     11.761
REMARK  Name = 
REMARK  5 active torsions:
REMARK  status: ('A' for Active; 'I' for Inactive)
REMARK    1  A    between atoms: C_1  and  N_2
REMARK    2  A    between atoms: N_2  and  C_3
REMARK    3  A    between atoms: C_12  and  C_13
REMARK    4  A    between atoms: C_13  and  O_15
REMARK    5  A    between atoms: C_26  and  C_27
REMARK                            x       y       z     vdW  Elec       q    Type
REMARK                         _______ _______ _______ _____ _____    ______ ____
ROOT
ATOM      1  C   UNL     1       1.462  15.017  19.647  0.00  0.00    +0.000 C 
ATOM      2  C   UNL     1       0.319  14.662  20.643  0.00  0.00    +0.000 C 
ATOM      3  N   UNL     1      -0.686  13.998  19.813  0.00  0.00    +0.000 N 
ATOM      4  C   UNL     1      -1.891  13.599  20.319  0.00  0.00    +0.000 A 
ATOM      5  C   UNL     1      -2.806  12.892  19.546  0.00  0.00    +0.000 A 
ATOM      6  C   UNL     1      -4.013  12.487  20.093  0.00  0.00    +0.000 A 
ATOM      7  C   UNL     1      -4.313  12.855  21.401  0.00  0.00    +0.000 A 
ATOM      8  C   UNL     1      -5.595  12.445  21.977  0.00  0.00    +0.000 A 
ATOM      9  O   UNL     1      -6.375  11.725  21.354  0.00  0.00    +0.000 OA
ATOM     10  C   UNL     1      -5.945  12.919  23.323  0.00  0.00    +0.000 A 
ATOM     11  C   UNL     1      -5.022  13.661  23.959  0.00  0.00    +0.000 A 
ATOM     12  N   UNL     1      -3.773  14.057  23.459  0.00  0.00    +0.000 N 
ATOM     13  C   UNL     1      -2.925  14.838  24.228  0.00  0.00    +0.000 A 
ATOM     14  N   UNL     1      -2.859  14.766  25.550  0.00  0.00    +0.000 NA
ATOM     15  C   UNL     1      -1.919  15.646  26.056  0.00  0.00    +0.000 A 
ATOM     16  C   UNL     1      -1.303  16.454  25.133  0.00  0.00    +0.000 A 
ATOM     17  S   UNL     1      -1.936  16.126  23.586  0.00  0.00    +0.000 S 
ATOM     18  C   UNL     1      -3.404  13.618  22.138  0.00  0.00    +0.000 A 
ATOM     19  N   UNL     1      -2.198  13.927  21.595  0.00  0.00    +0.000 NA
ATOM     20  C   UNL     1      -0.158  13.605  18.519  0.00  0.00    +0.000 C 
ATOM     21  C   UNL     1       1.349  13.872  18.618  0.00  0.00    +0.000 C 
ATOM     22  C   UNL     1       2.090  12.618  19.086  0.00  0.00    +0.000 C 
ENDROOT
BRANCH   1  24
ATOM     23  C   UNL     1       2.234  16.735  18.078  0.00  0.00    +0.000 C 
ATOM     24  N   UNL     1       1.244  16.359  19.073  0.00  0.00    +0.000 NA
ATOM     25  H   UNL     1       0.298  16.431  18.701  0.00  0.00    +0.000 HD
ENDBRANCH   1  24
BRANCH  10  26
ATOM     26  C   UNL     1      -7.252  12.635  23.958  0.00  0.00    +0.000 C 
ATOM     27  O   UNL     1      -7.917  13.484  24.532  0.00  0.00    +0.000 OA
BRANCH  26  28
ATOM     28  O   UNL     1      -7.668  11.355  23.836  0.00  0.00    +0.000 OA
ATOM     29  H   UNL     1      -7.376  10.901  23.003  0.00  0.00    +0.000 HD
ENDBRANCH  26  28
ENDBRANCH  10  26
TORSDOF 3
ENDMDL
MODEL 7
REMARK VINA RESULT:      -6.3      7.613     10.563
REMARK  Name = 
REMARK  5 active torsions:
REMARK  status: ('A' for Active; 'I' for Inactive)
REMARK    1  A    between atoms: C_1  and  N_2
REMARK    2  A    between atoms: N_2  and  C_3
REMARK    3  A    between atoms: C_12  and  C_13
REMARK    4  A    between atoms: C_13  and  O_15
REMARK    5  A    between atoms: C_26  and  C_27
REMARK                            x       y       z     vdW  Elec       q    Type
REMARK                         _______ _______ _______ _____ _____    ______ ____
ROOT
ATOM      1  C   UNL     1       1.844  13.175  18.088  0.00  0.00    +0.000 C 
ATOM      2  C   UNL     1       0.357  13.194  18.549  0.00  0.00    +0.000 C 
ATOM      3  N   UNL     1       0.432  13.398  19.996  0.00  0.00    +0.000 N 
ATOM      4  C   UNL     1      -0.683  13.396  20.785  0.00  0.00    +0.000 A 
ATOM      5  C   UNL     1      -0.612  13.675  22.145  0.00  0.00    +0.000 A 
ATOM      6  C   UNL     1      -1.764  13.682  22.916  0.00  0.00    +0.000 A 
ATOM      7  C   UNL     1      -2.972  13.344  22.315  0.00  0.00    +0.000 A 
ATOM      8  C   UNL     1      -4.190  13.333  23.130  0.00  0.00    +0.000 A 
ATOM      9  O   UNL     1      -4.173  13.682  24.310  0.00  0.00    +0.000 OA
ATOM     10  C   UNL     1      -5.445  12.881  22.512  0.00  0.00    +0.000 A 
ATOM     11  C   UNL     1      -5.392  12.560  21.208  0.00  0.00    +0.000 A 
ATOM     12  N   UNL     1      -4.259  12.581  20.383  0.00  0.00    +0.000 N 
ATOM     13  C   UNL     1      -4.353  12.210  19.051  0.00  0.00    +0.000 A 
ATOM     14  N   UNL     1      -5.433  12.410  18.308  0.00  0.00    +0.000 NA
ATOM     15  C   UNL     1      -5.245  11.956  17.015  0.00  0.00    +0.000 A 
ATOM     16  C   UNL     1      -4.046  11.336  16.770  0.00  0.00    +0.000 A 
ATOM     17  S   UNL     1      -3.130  11.293  18.206  0.00  0.00    +0.000 S 
ATOM     18  C   UNL     1      -3.010  13.008  20.960  0.00  0.00    +0.000 A 
ATOM     19  N   UNL     1      -1.874  13.090  20.220  0.00  0.00    +0.000 NA
ATOM     20  C   UNL     1       1.749  13.839  20.421  0.00  0.00    +0.000 C 
ATOM     21  C   UNL     1       2.503  14.119  19.115  0.00  0.00    +0.000 C 
ATOM     22  C   UNL     1       2.354  15.587  18.709  0.00  0.00    +0.000 C 
ENDROOT
BRANCH   1  24
ATOM     23  C   UNL     1       1.347  10.784  18.310  0.00  0.00    +0.000 C 
ATOM     24  N   UNL     1       2.372  11.797  18.118  0.00  0.00    +0.000 NA
ATOM     25  H   UNL     1       2.921  11.614  17.279  0.00  0.00    +0.000 HD
ENDBRANCH   1  24
BRANCH  10  26
ATOM     26  C   UNL     1      -6.708  12.748  23.272  0.00  0.00    +0.000 C 
ATOM     27  O   UNL     1      -7.710  13.403  23.027  0.00  0.00    +0.000 OA
BRANCH  26  28
ATOM     28  O   UNL     1      -6.675  11.822  24.255  0.00  0.00    +0.000 OA
ATOM     29  H   UNL     1      -6.990  12.144  25.140  0.00  0.00    +0.000 HD
ENDBRANCH  26  28
ENDBRANCH  10  26
TORSDOF 3
ENDMDL
MODEL 8
REMARK VINA RESULT:      -6.0      8.531     10.560
REMARK  Name = 
REMARK  5 active torsions:
REMARK  status: ('A' for Active; 'I' for Inactive)
REMARK    1  A    between atoms: C_1  and  N_2
REMARK    2  A    between atoms: N_2  and  C_3
REMARK    3  A    between atoms: C_12  and  C_13
REMARK    4  A    between atoms: C_13  and  O_15
REMARK    5  A    between atoms: C_26  and  C_27
REMARK                            x       y       z     vdW  Elec       q    Type
REMARK                         _______ _______ _______ _____ _____    ______ ____
ROOT
ATOM      1  C   UNL     1      -3.483  16.028  24.565  0.00  0.00    +0.000 C 
ATOM      2  C   UNL     1      -3.165  15.385  23.183  0.00  0.00    +0.000 C 
ATOM      3  N   UNL     1      -4.373  14.627  22.854  0.00  0.00    +0.000 N 
ATOM      4  C   UNL     1      -4.455  13.850  21.733  0.00  0.00    +0.000 A 
ATOM      5  C   UNL     1      -5.634  13.202  21.383  0.00  0.00    +0.000 A 
ATOM      6  C   UNL     1      -5.690  12.434  20.231  0.00  0.00    +0.000 A 
ATOM      7  C   UNL     1      -4.533  12.276  19.475  0.00  0.00    +0.000 A 
ATOM      8  C   UNL     1      -4.583  11.449  18.267  0.00  0.00    +0.000 A 
ATOM      9  O   UNL     1      -5.639  10.955  17.873  0.00  0.00    +0.000 OA
ATOM     10  C   UNL     1      -3.336  11.208  17.528  0.00  0.00    +0.000 A 
ATOM     11  C   UNL     1      -2.233  11.820  17.993  0.00  0.00    +0.000 A 
ATOM     12  N   UNL     1      -2.142  12.638  19.127  0.00  0.00    +0.000 N 
ATOM     13  C   UNL     1      -0.927  13.195  19.495  0.00  0.00    +0.000 A 
ATOM     14  N   UNL     1       0.009  13.552  18.628  0.00  0.00    +0.000 NA
ATOM     15  C   UNL     1       1.110  14.092  19.269  0.00  0.00    +0.000 A 
ATOM     16  C   UNL     1       1.060  14.090  20.640  0.00  0.00    +0.000 A 
ATOM     17  S   UNL     1      -0.395  13.365  21.150  0.00  0.00    +0.000 S 
ATOM     18  C   UNL     1      -3.344  12.887  19.880  0.00  0.00    +0.000 A 
ATOM     19  N   UNL     1      -3.348  13.697  20.971  0.00  0.00    +0.000 NA
ATOM     20  C   UNL     1      -5.501  15.000  23.691  0.00  0.00    +0.000 C 
ATOM     21  C   UNL     1      -5.012  16.222  24.477  0.00  0.00    +0.000 C 
ATOM     22  C   UNL     1      -5.375  17.516  23.746  0.00  0.00    +0.000 C 
ENDROOT
BRANCH   1  24
ATOM     23  C   UNL     1      -1.677  15.331  26.070  0.00  0.00    +0.000 C 
ATOM     24  N   UNL     1      -3.057  15.132  25.658  0.00  0.00    +0.000 NA
ATOM     25  H   UNL     1      -3.695  15.216  26.448  0.00  0.00    +0.000 HD
ENDBRANCH   1  24
BRANCH  10  26
ATOM     26  C   UNL     1      -3.264  10.317  16.348  0.00  0.00    +0.000 C 
ATOM     27  O   UNL     1      -2.375   9.495  16.183  0.00  0.00    +0.000 OA
BRANCH  26  28
ATOM     28  O   UNL     1      -4.277  10.470  15.467  0.00  0.00    +0.000 OA
ATOM     29  H   UNL     1      -4.469  11.411  15.214  0.00  0.00    +0.000 HD
ENDBRANCH  26  28
ENDBRANCH  10  26
TORSDOF 3
ENDMDL
MODEL 9
REMARK VINA RESULT:      -6.0      9.954     11.905
REMARK  Name = 
REMARK  5 active torsions:
REMARK  status: ('A' for Active; 'I' for Inactive)
REMARK    1  A    between atoms: C_1  and  N_2
REMARK    2  A    between atoms: N_2  and  C_3
REMARK    3  A    between atoms: C_12  and  C_13
REMARK    4  A    between atoms: C_13  and  O_15
REMARK    5  A    between atoms: C_26  and  C_27
REMARK                            x       y       z     vdW  Elec       q    Type
REMARK                         _______ _______ _______ _____ _____    ______ ____
ROOT
ATOM      1  C   UNL     1       7.761  14.142  26.587  0.00  0.00    +0.000 C 
ATOM      2  C   UNL     1       8.232  14.373  25.120  0.00  0.00    +0.000 C 
ATOM      3  N   UNL     1       8.256  13.031  24.536  0.00  0.00    +0.000 N 
ATOM      4  C   UNL     1       8.697  12.807  23.263  0.00  0.00    +0.000 A 
ATOM      5  C   UNL     1       8.636  11.543  22.685  0.00  0.00    +0.000 A 
ATOM      6  C   UNL     1       9.076  11.350  21.385  0.00  0.00    +0.000 A 
ATOM      7  C   UNL     1       9.634  12.425  20.701  0.00  0.00    +0.000 A 
ATOM      8  C   UNL     1      10.117  12.221  19.333  0.00  0.00    +0.000 A 
ATOM      9  O   UNL     1       9.974  11.142  18.759  0.00  0.00    +0.000 OA
ATOM     10  C   UNL     1      10.791  13.335  18.652  0.00  0.00    +0.000 A 
ATOM     11  C   UNL     1      10.867  14.496  19.327  0.00  0.00    +0.000 A 
ATOM     12  N   UNL     1      10.397  14.745  20.624  0.00  0.00    +0.000 N 
ATOM     13  C   UNL     1      10.556  15.996  21.200  0.00  0.00    +0.000 A 
ATOM     14  N   UNL     1      10.545  17.128  20.511  0.00  0.00    +0.000 NA
ATOM     15  C   UNL     1      10.710  18.223  21.339  0.00  0.00    +0.000 A 
ATOM     16  C   UNL     1      10.923  17.940  22.665  0.00  0.00    +0.000 A 
ATOM     17  S   UNL     1      10.944  16.251  22.884  0.00  0.00    +0.000 S 
ATOM     18  C   UNL     1       9.740  13.671  21.323  0.00  0.00    +0.000 A 
ATOM     19  N   UNL     1       9.225  13.841  22.569  0.00  0.00    +0.000 NA
ATOM     20  C   UNL     1       7.541  12.064  25.351  0.00  0.00    +0.000 C 
ATOM     21  C   UNL     1       6.852  12.904  26.433  0.00  0.00    +0.000 C 
ATOM     22  C   UNL     1       5.438  13.293  25.998  0.00  0.00    +0.000 C 
ENDROOT
BRANCH   1  24
ATOM     23  C   UNL     1      10.048  14.797  27.178  0.00  0.00    +0.000 C 
ATOM     24  N   UNL     1       8.923  13.924  27.470  0.00  0.00    +0.000 NA
ATOM     25  H   UNL     1       8.640  13.999  28.446  0.00  0.00    +0.000 HD
ENDBRANCH   1  24
BRANCH  10  26
ATOM     26  C   UNL     1      11.394  13.205  17.307  0.00  0.00    +0.000 C 
ATOM     27  O   UNL     1      11.228  14.025  16.416  0.00  0.00    +0.000 OA
BRANCH  26  28
ATOM     28  O   UNL     1      12.165  12.107  17.142  0.00  0.00    +0.000 OA
ATOM     29  H   UNL     1      11.712  11.247  17.343  0.00  0.00    +0.000 HD
ENDBRANCH  26  28
ENDBRANCH  10  26
TORSDOF 3
ENDMDL
