MODEL 1
REMARK VINA RESULT:      -7.4      0.000      0.000
REMARK  Name = 
REMARK  3 active torsions:
REMARK  status: ('A' for Active; 'I' for Inactive)
REMARK    1  A    between atoms: C_6  and  C_7
REMARK    2  A    between atoms: N_9  and  C_10
REMARK    3  A    between atoms: C_10  and  C_11
REMARK                            x       y       z     vdW  Elec       q    Type
REMARK                         _______ _______ _______ _____ _____    ______ ____
ROOT
ATOM      1  C   UNL     1       6.588   4.899  16.453  0.00  0.00    +0.000 C 
ATOM      2  O   UNL     1       7.620   4.428  16.926  0.00  0.00    +0.000 OA
ATOM      3  N   UNL     1       5.622   5.523  17.213  0.00  0.00    +0.000 N 
ATOM      4  H   UNL     1       4.816   5.913  16.739  0.00  0.00    +0.000 HD
ENDROOT
BRANCH   1  10
ATOM      5  O   UNL     1       8.642   6.055  12.406  0.00  0.00    +0.000 OA
ATOM      6  C   UNL     1       7.814   5.331  12.953  0.00  0.00    +0.000 C 
ATOM      7  C   UNL     1       7.209   4.131  12.260  0.00  0.00    +0.000 C 
ATOM      8  C   UNL     1       5.895   3.661  12.870  0.00  0.00    +0.000 C 
ATOM      9  C   UNL     1       6.006   3.581  14.387  0.00  0.00    +0.000 C 
ATOM     10  C   UNL     1       6.343   4.962  14.935  0.00  0.00    +0.000 C 
ATOM     11  N   UNL     1       7.511   5.528  14.268  0.00  0.00    +0.000 N 
ATOM     12  H   UNL     1       7.887   6.399  14.631  0.00  0.00    +0.000 HD
ENDBRANCH   1  10
BRANCH   3  13
ATOM     13  C   UNL     1       5.669   5.558  18.660  0.00  0.00    +0.000 C 
BRANCH  13  14
ATOM     14  C   UNL     1       4.492   4.860  19.296  0.00  0.00    +0.000 A 
ATOM     15  C   UNL     1       4.635   3.514  19.681  0.00  0.00    +0.000 A 
ATOM     16  C   UNL     1       3.576   2.813  20.263  0.00  0.00    +0.000 A 
ATOM     17  C   UNL     1       2.360   3.453  20.472  0.00  0.00    +0.000 A 
ATOM     18 CL   UNL     1       1.054   2.590  21.186  0.00  0.00    +0.000 Cl
ATOM     19  C   UNL     1       2.195   4.788  20.111  0.00  0.00    +0.000 A 
ATOM     20  C   UNL     1       3.258   5.489  19.529  0.00  0.00    +0.000 A 
ATOM     21 CL   UNL     1       2.982   7.142  19.110  0.00  0.00    +0.000 Cl
ENDBRANCH  13  14
ENDBRANCH   3  13
TORSDOF 3
ENDMDL
MODEL 2
REMARK VINA RESULT:      -7.3      1.333      2.368
REMARK  Name = 
REMARK  3 active torsions:
REMARK  status: ('A' for Active; 'I' for Inactive)
REMARK    1  A    between atoms: C_6  and  C_7
REMARK    2  A    between atoms: N_9  and  C_10
REMARK    3  A    between atoms: C_10  and  C_11
REMARK                            x       y       z     vdW  Elec       q    Type
REMARK                         _______ _______ _______ _____ _____    ______ ____
ROOT
ATOM      1  C   UNL     1       5.886   4.305  16.170  0.00  0.00    +0.000 C 
ATOM      2  O   UNL     1       6.835   4.386  16.949  0.00  0.00    +0.000 OA
ATOM      3  N   UNL     1       4.606   3.982  16.567  0.00  0.00    +0.000 N 
ATOM      4  H   UNL     1       3.875   3.969  15.866  0.00  0.00    +0.000 HD
ENDROOT
BRANCH   1  10
ATOM      5  O   UNL     1       8.900   6.045  13.037  0.00  0.00    +0.000 OA
ATOM      6  C   UNL     1       7.930   5.313  13.213  0.00  0.00    +0.000 C 
ATOM      7  C   UNL     1       7.444   4.348  12.154  0.00  0.00    +0.000 C 
ATOM      8  C   UNL     1       6.001   3.901  12.340  0.00  0.00    +0.000 C 
ATOM      9  C   UNL     1       5.744   3.502  13.788  0.00  0.00    +0.000 C 
ATOM     10  C   UNL     1       6.013   4.701  14.689  0.00  0.00    +0.000 C 
ATOM     11  N   UNL     1       7.334   5.269  14.439  0.00  0.00    +0.000 N 
ATOM     12  H   UNL     1       7.659   6.004  15.059  0.00  0.00    +0.000 HD
ENDBRANCH   1  10
BRANCH   3  13
ATOM     13  C   UNL     1       4.289   3.570  17.918  0.00  0.00    +0.000 C 
BRANCH  13  14
ATOM     14  C   UNL     1       3.512   4.618  18.678  0.00  0.00    +0.000 A 
ATOM     15  C   UNL     1       3.449   5.922  18.151  0.00  0.00    +0.000 A 
ATOM     16  C   UNL     1       2.756   6.936  18.816  0.00  0.00    +0.000 A 
ATOM     17  C   UNL     1       2.111   6.656  20.016  0.00  0.00    +0.000 A 
ATOM     18 CL   UNL     1       1.260   7.905  20.839  0.00  0.00    +0.000 Cl
ATOM     19  C   UNL     1       2.149   5.372  20.553  0.00  0.00    +0.000 A 
ATOM     20  C   UNL     1       2.843   4.357  19.885  0.00  0.00    +0.000 A 
ATOM     21 CL   UNL     1       2.843   2.788  20.607  0.00  0.00    +0.000 Cl
ENDBRANCH  13  14
ENDBRANCH   3  13
TORSDOF 3
ENDMDL
MODEL 3
REMARK VINA RESULT:      -7.3      3.853      6.845
REMARK  Name = 
REMARK  3 active torsions:
REMARK  status: ('A' for Active; 'I' for Inactive)
REMARK    1  A    between atoms: C_6  and  C_7
REMARK    2  A    between atoms: N_9  and  C_10
REMARK    3  A    between atoms: C_10  and  C_11
REMARK                            x       y       z     vdW  Elec       q    Type
REMARK                         _______ _______ _______ _____ _____    ______ ____
ROOT
ATOM      1  C   UNL     1       3.568   3.418  17.533  0.00  0.00    +0.000 C 
ATOM      2  O   UNL     1       3.171   3.895  16.471  0.00  0.00    +0.000 OA
ATOM      3  N   UNL     1       4.899   3.364  17.888  0.00  0.00    +0.000 N 
ATOM      4  H   UNL     1       5.138   2.985  18.797  0.00  0.00    +0.000 HD
ENDROOT
BRANCH   1  10
ATOM      5  O   UNL     1       3.402   2.077  22.017  0.00  0.00    +0.000 OA
ATOM      6  C   UNL     1       2.798   2.628  21.099  0.00  0.00    +0.000 C 
ATOM      7  C   UNL     1       1.531   3.421  21.328  0.00  0.00    +0.000 C 
ATOM      8  C   UNL     1       0.682   3.605  20.079  0.00  0.00    +0.000 C 
ATOM      9  C   UNL     1       1.546   4.036  18.900  0.00  0.00    +0.000 C 
ATOM     10  C   UNL     1       2.595   2.964  18.635  0.00  0.00    +0.000 C 
ATOM     11  N   UNL     1       3.338   2.635  19.847  0.00  0.00    +0.000 N 
ATOM     12  H   UNL     1       4.134   2.011  19.760  0.00  0.00    +0.000 HD
ENDBRANCH   1  10
BRANCH   3  13
ATOM     13  C   UNL     1       5.964   3.737  16.982  0.00  0.00    +0.000 C 
BRANCH  13  14
ATOM     14  C   UNL     1       6.595   5.061  17.340  0.00  0.00    +0.000 A 
ATOM     15  C   UNL     1       7.514   5.102  18.405  0.00  0.00    +0.000 A 
ATOM     16  C   UNL     1       8.119   6.300  18.790  0.00  0.00    +0.000 A 
ATOM     17  C   UNL     1       7.817   7.474  18.109  0.00  0.00    +0.000 A 
ATOM     18 CL   UNL     1       8.559   8.952  18.583  0.00  0.00    +0.000 Cl
ATOM     19  C   UNL     1       6.919   7.459  17.044  0.00  0.00    +0.000 A 
ATOM     20  C   UNL     1       6.315   6.257  16.659  0.00  0.00    +0.000 A 
ATOM     21 CL   UNL     1       5.215   6.313  15.327  0.00  0.00    +0.000 Cl
ENDBRANCH  13  14
ENDBRANCH   3  13
TORSDOF 3
ENDMDL
MODEL 4
REMARK VINA RESULT:      -7.1      2.314      2.854
REMARK  Name = 
REMARK  3 active torsions:
REMARK  status: ('A' for Active; 'I' for Inactive)
REMARK    1  A    between atoms: C_6  and  C_7
REMARK    2  A    between atoms: N_9  and  C_10
REMARK    3  A    between atoms: C_10  and  C_11
REMARK                            x       y       z     vdW  Elec       q    Type
REMARK                         _______ _______ _______ _____ _____    ______ ____
ROOT
ATOM      1  C   UNL     1       6.890   4.613  14.196  0.00  0.00    +0.000 C 
ATOM      2  O   UNL     1       7.764   5.470  14.304  0.00  0.00    +0.000 OA
ATOM      3  N   UNL     1       6.212   4.082  15.273  0.00  0.00    +0.000 N 
ATOM      4  H   UNL     1       5.482   3.403  15.094  0.00  0.00    +0.000 HD
ENDROOT
BRANCH   1  10
ATOM      5  O   UNL     1       7.539   1.387  10.863  0.00  0.00    +0.000 OA
ATOM      6  C   UNL     1       6.727   2.123  11.419  0.00  0.00    +0.000 C 
ATOM      7  C   UNL     1       5.236   1.975  11.219  0.00  0.00    +0.000 C 
ATOM      8  C   UNL     1       4.437   3.224  11.568  0.00  0.00    +0.000 C 
ATOM      9  C   UNL     1       4.887   3.791  12.909  0.00  0.00    +0.000 C 
ATOM     10  C   UNL     1       6.365   4.153  12.825  0.00  0.00    +0.000 C 
ATOM     11  N   UNL     1       7.161   3.029  12.341  0.00  0.00    +0.000 N 
ATOM     12  H   UNL     1       8.172   3.127  12.350  0.00  0.00    +0.000 HD
ENDBRANCH   1  10
BRANCH   3  13
ATOM     13  C   UNL     1       6.567   4.384  16.644  0.00  0.00    +0.000 C 
BRANCH  13  14
ATOM     14  C   UNL     1       5.362   4.490  17.546  0.00  0.00    +0.000 A 
ATOM     15  C   UNL     1       4.114   4.059  17.057  0.00  0.00    +0.000 A 
ATOM     16  C   UNL     1       2.962   4.145  17.841  0.00  0.00    +0.000 A 
ATOM     17  C   UNL     1       3.044   4.659  19.130  0.00  0.00    +0.000 A 
ATOM     18 CL   UNL     1       1.626   4.770  20.097  0.00  0.00    +0.000 Cl
ATOM     19  C   UNL     1       4.268   5.083  19.643  0.00  0.00    +0.000 A 
ATOM     20  C   UNL     1       5.422   4.995  18.856  0.00  0.00    +0.000 A 
ATOM     21 CL   UNL     1       6.905   5.535  19.558  0.00  0.00    +0.000 Cl
ENDBRANCH  13  14
ENDBRANCH   3  13
TORSDOF 3
ENDMDL
MODEL 5
REMARK VINA RESULT:      -7.0      3.785      7.077
REMARK  Name = 
REMARK  3 active torsions:
REMARK  status: ('A' for Active; 'I' for Inactive)
REMARK    1  A    between atoms: C_6  and  C_7
REMARK    2  A    between atoms: N_9  and  C_10
REMARK    3  A    between atoms: C_10  and  C_11
REMARK                            x       y       z     vdW  Elec       q    Type
REMARK                         _______ _______ _______ _____ _____    ______ ____
ROOT
ATOM      1  C   UNL     1       3.029   6.030  19.002  0.00  0.00    +0.000 C 
ATOM      2  O   UNL     1       2.680   7.121  18.555  0.00  0.00    +0.000 OA
ATOM      3  N   UNL     1       4.334   5.588  18.988  0.00  0.00    +0.000 N 
ATOM      4  H   UNL     1       4.542   4.689  19.408  0.00  0.00    +0.000 HD
ENDROOT
BRANCH   1  10
ATOM      5  O   UNL     1       0.296   2.267  18.454  0.00  0.00    +0.000 OA
ATOM      6  C   UNL     1       0.981   2.918  19.239  0.00  0.00    +0.000 C 
ATOM      7  C   UNL     1       1.382   2.382  20.595  0.00  0.00    +0.000 C 
ATOM      8  C   UNL     1       1.787   3.460  21.591  0.00  0.00    +0.000 C 
ATOM      9  C   UNL     1       2.744   4.455  20.946  0.00  0.00    +0.000 C 
ATOM     10  C   UNL     1       2.053   5.111  19.757  0.00  0.00    +0.000 C 
ATOM     11  N   UNL     1       1.505   4.113  18.844  0.00  0.00    +0.000 N 
ATOM     12  H   UNL     1       1.119   4.439  17.963  0.00  0.00    +0.000 HD
ENDBRANCH   1  10
BRANCH   3  13
ATOM     13  C   UNL     1       5.395   6.308  18.317  0.00  0.00    +0.000 C 
BRANCH  13  14
ATOM     14  C   UNL     1       5.765   5.694  16.989  0.00  0.00    +0.000 A 
ATOM     15  C   UNL     1       4.952   5.964  15.872  0.00  0.00    +0.000 A 
ATOM     16  C   UNL     1       5.237   5.413  14.621  0.00  0.00    +0.000 A 
ATOM     17  C   UNL     1       6.345   4.587  14.470  0.00  0.00    +0.000 A 
ATOM     18 CL   UNL     1       6.697   3.904  12.930  0.00  0.00    +0.000 Cl
ATOM     19  C   UNL     1       7.173   4.312  15.556  0.00  0.00    +0.000 A 
ATOM     20  C   UNL     1       6.886   4.866  16.809  0.00  0.00    +0.000 A 
ATOM     21 CL   UNL     1       7.958   4.486  18.109  0.00  0.00    +0.000 Cl
ENDBRANCH  13  14
ENDBRANCH   3  13
TORSDOF 3
ENDMDL
MODEL 6
REMARK VINA RESULT:      -7.0      5.324      7.171
REMARK  Name = 
REMARK  3 active torsions:
REMARK  status: ('A' for Active; 'I' for Inactive)
REMARK    1  A    between atoms: C_6  and  C_7
REMARK    2  A    between atoms: N_9  and  C_10
REMARK    3  A    between atoms: C_10  and  C_11
REMARK                            x       y       z     vdW  Elec       q    Type
REMARK                         _______ _______ _______ _____ _____    ______ ____
ROOT
ATOM      1  C   UNL     1       2.424   5.765  18.908  0.00  0.00    +0.000 C 
ATOM      2  O   UNL     1       2.839   6.036  17.783  0.00  0.00    +0.000 OA
ATOM      3  N   UNL     1       1.946   6.712  19.788  0.00  0.00    +0.000 N 
ATOM      4  H   UNL     1       1.592   6.399  20.684  0.00  0.00    +0.000 HD
ENDROOT
BRANCH   1  10
ATOM      5  O   UNL     1       4.869   2.044  20.362  0.00  0.00    +0.000 OA
ATOM      6  C   UNL     1       3.803   2.650  20.436  0.00  0.00    +0.000 C 
ATOM      7  C   UNL     1       2.771   2.340  21.498  0.00  0.00    +0.000 C 
ATOM      8  C   UNL     1       1.367   2.818  21.155  0.00  0.00    +0.000 C 
ATOM      9  C   UNL     1       1.399   4.252  20.640  0.00  0.00    +0.000 C 
ATOM     10  C   UNL     1       2.264   4.311  19.388  0.00  0.00    +0.000 C 
ATOM     11  N   UNL     1       3.578   3.719  19.620  0.00  0.00    +0.000 N 
ATOM     12  H   UNL     1       4.272   3.804  18.884  0.00  0.00    +0.000 HD
ENDBRANCH   1  10
BRANCH   3  13
ATOM     13  C   UNL     1       2.020   8.133  19.521  0.00  0.00    +0.000 C 
BRANCH  13  14
ATOM     14  C   UNL     1       1.117   8.941  20.420  0.00  0.00    +0.000 A 
ATOM     15  C   UNL     1       1.178   8.719  21.809  0.00  0.00    +0.000 A 
ATOM     16  C   UNL     1       0.357   9.428  22.689  0.00  0.00    +0.000 A 
ATOM     17  C   UNL     1      -0.532  10.373  22.191  0.00  0.00    +0.000 A 
ATOM     18 CL   UNL     1      -1.547  11.244  23.273  0.00  0.00    +0.000 Cl
ATOM     19  C   UNL     1      -0.604  10.619  20.822  0.00  0.00    +0.000 A 
ATOM     20  C   UNL     1       0.220   9.910  19.941  0.00  0.00    +0.000 A 
ATOM     21 CL   UNL     1       0.079  10.270  18.258  0.00  0.00    +0.000 Cl
ENDBRANCH  13  14
ENDBRANCH   3  13
TORSDOF 3
ENDMDL
MODEL 7
REMARK VINA RESULT:      -6.9      1.897      3.019
REMARK  Name = 
REMARK  3 active torsions:
REMARK  status: ('A' for Active; 'I' for Inactive)
REMARK    1  A    between atoms: C_6  and  C_7
REMARK    2  A    between atoms: N_9  and  C_10
REMARK    3  A    between atoms: C_10  and  C_11
REMARK                            x       y       z     vdW  Elec       q    Type
REMARK                         _______ _______ _______ _____ _____    ______ ____
ROOT
ATOM      1  C   UNL     1       5.703   4.767  16.218  0.00  0.00    +0.000 C 
ATOM      2  O   UNL     1       6.580   4.298  16.941  0.00  0.00    +0.000 OA
ATOM      3  N   UNL     1       4.519   5.281  16.699  0.00  0.00    +0.000 N 
ATOM      4  H   UNL     1       3.863   5.679  16.037  0.00  0.00    +0.000 HD
ENDROOT
BRANCH   1  10
ATOM      5  O   UNL     1       8.902   6.032  13.039  0.00  0.00    +0.000 OA
ATOM      6  C   UNL     1       7.911   5.340  13.262  0.00  0.00    +0.000 C 
ATOM      7  C   UNL     1       7.462   4.246  12.320  0.00  0.00    +0.000 C 
ATOM      8  C   UNL     1       6.004   3.843  12.489  0.00  0.00    +0.000 C 
ATOM      9  C   UNL     1       5.667   3.648  13.962  0.00  0.00    +0.000 C 
ATOM     10  C   UNL     1       5.912   4.956  14.705  0.00  0.00    +0.000 C 
ATOM     11  N   UNL     1       7.254   5.470  14.449  0.00  0.00    +0.000 N 
ATOM     12  H   UNL     1       7.559   6.279  14.981  0.00  0.00    +0.000 HD
ENDBRANCH   1  10
BRANCH   3  13
ATOM     13  C   UNL     1       4.136   5.188  18.093  0.00  0.00    +0.000 C 
BRANCH  13  14
ATOM     14  C   UNL     1       3.268   6.341  18.535  0.00  0.00    +0.000 A 
ATOM     15  C   UNL     1       3.189   7.479  17.711  0.00  0.00    +0.000 A 
ATOM     16  C   UNL     1       2.412   8.581  18.075  0.00  0.00    +0.000 A 
ATOM     17  C   UNL     1       1.699   8.556  19.268  0.00  0.00    +0.000 A 
ATOM     18 CL   UNL     1       0.744   9.914  19.719  0.00  0.00    +0.000 Cl
ATOM     19  C   UNL     1       1.751   7.437  20.096  0.00  0.00    +0.000 A 
ATOM     20  C   UNL     1       2.529   6.334  19.729  0.00  0.00    +0.000 A 
ATOM     21 CL   UNL     1       2.542   4.981  20.803  0.00  0.00    +0.000 Cl
ENDBRANCH  13  14
ENDBRANCH   3  13
TORSDOF 3
ENDMDL
MODEL 8
REMARK VINA RESULT:      -6.9      3.935      7.249
REMARK  Name = 
REMARK  3 active torsions:
REMARK  status: ('A' for Active; 'I' for Inactive)
REMARK    1  A    between atoms: C_6  and  C_7
REMARK    2  A    between atoms: N_9  and  C_10
REMARK    3  A    between atoms: C_10  and  C_11
REMARK                            x       y       z     vdW  Elec       q    Type
REMARK                         _______ _______ _______ _____ _____    ______ ____
ROOT
ATOM      1  C   UNL     1       3.625   5.753  18.760  0.00  0.00    +0.000 C 
ATOM      2  O   UNL     1       4.526   5.786  19.595  0.00  0.00    +0.000 OA
ATOM      3  N   UNL     1       3.542   4.797  17.771  0.00  0.00    +0.000 N 
ATOM      4  H   UNL     1       2.748   4.823  17.143  0.00  0.00    +0.000 HD
ENDROOT
BRANCH   1  10
ATOM      5  O   UNL     1       1.129   8.372  21.734  0.00  0.00    +0.000 OA
ATOM      6  C   UNL     1       1.518   8.243  20.576  0.00  0.00    +0.000 C 
ATOM      7  C   UNL     1       1.400   9.355  19.558  0.00  0.00    +0.000 C 
ATOM      8  C   UNL     1       1.468   8.881  18.113  0.00  0.00    +0.000 C 
ATOM      9  C   UNL     1       2.624   7.906  17.921  0.00  0.00    +0.000 C 
ATOM     10  C   UNL     1       2.416   6.702  18.831  0.00  0.00    +0.000 C 
ATOM     11  N   UNL     1       2.188   7.113  20.213  0.00  0.00    +0.000 N 
ATOM     12  H   UNL     1       2.145   6.387  20.921  0.00  0.00    +0.000 HD
ENDBRANCH   1  10
BRANCH   3  13
ATOM     13  C   UNL     1       4.588   3.823  17.538  0.00  0.00    +0.000 C 
BRANCH  13  14
ATOM     14  C   UNL     1       5.468   4.184  16.366  0.00  0.00    +0.000 A 
ATOM     15  C   UNL     1       4.958   4.016  15.065  0.00  0.00    +0.000 A 
ATOM     16  C   UNL     1       5.731   4.322  13.943  0.00  0.00    +0.000 A 
ATOM     17  C   UNL     1       7.023   4.806  14.108  0.00  0.00    +0.000 A 
ATOM     18 CL   UNL     1       7.978   5.179  12.726  0.00  0.00    +0.000 Cl
ATOM     19  C   UNL     1       7.548   4.991  15.385  0.00  0.00    +0.000 A 
ATOM     20  C   UNL     1       6.772   4.686  16.508  0.00  0.00    +0.000 A 
ATOM     21 CL   UNL     1       7.486   4.946  18.060  0.00  0.00    +0.000 Cl
ENDBRANCH  13  14
ENDBRANCH   3  13
TORSDOF 3
ENDMDL
MODEL 9
REMARK VINA RESULT:      -6.9      3.881      6.967
REMARK  Name = 
REMARK  3 active torsions:
REMARK  status: ('A' for Active; 'I' for Inactive)
REMARK    1  A    between atoms: C_6  and  C_7
REMARK    2  A    between atoms: N_9  and  C_10
REMARK    3  A    between atoms: C_10  and  C_11
REMARK                            x       y       z     vdW  Elec       q    Type
REMARK                         _______ _______ _______ _____ _____    ______ ____
ROOT
ATOM      1  C   UNL     1       3.356   5.611  19.374  0.00  0.00    +0.000 C 
ATOM      2  O   UNL     1       3.223   6.762  18.962  0.00  0.00    +0.000 OA
ATOM      3  N   UNL     1       4.575   4.974  19.460  0.00  0.00    +0.000 N 
ATOM      4  H   UNL     1       4.601   4.036  19.842  0.00  0.00    +0.000 HD
ENDROOT
BRANCH   1  10
ATOM      5  O   UNL     1       0.262   2.238  18.383  0.00  0.00    +0.000 OA
ATOM      6  C   UNL     1       0.915   2.788  19.266  0.00  0.00    +0.000 C 
ATOM      7  C   UNL     1       1.063   2.195  20.649  0.00  0.00    +0.000 C 
ATOM      8  C   UNL     1       1.467   3.203  21.715  0.00  0.00    +0.000 C 
ATOM      9  C   UNL     1       2.620   4.071  21.225  0.00  0.00    +0.000 C 
ATOM     10  C   UNL     1       2.180   4.820  19.973  0.00  0.00    +0.000 C 
ATOM     11  N   UNL     1       1.635   3.908  18.972  0.00  0.00    +0.000 N 
ATOM     12  H   UNL     1       1.412   4.289  18.057  0.00  0.00    +0.000 HD
ENDBRANCH   1  10
BRANCH   3  13
ATOM     13  C   UNL     1       5.797   5.552  18.939  0.00  0.00    +0.000 C 
BRANCH  13  14
ATOM     14  C   UNL     1       6.032   5.205  17.489  0.00  0.00    +0.000 A 
ATOM     15  C   UNL     1       5.375   4.082  16.951  0.00  0.00    +0.000 A 
ATOM     16  C   UNL     1       5.564   3.706  15.620  0.00  0.00    +0.000 A 
ATOM     17  C   UNL     1       6.410   4.452  14.807  0.00  0.00    +0.000 A 
ATOM     18 CL   UNL     1       6.647   3.987  13.168  0.00  0.00    +0.000 Cl
ATOM     19  C   UNL     1       7.064   5.573  15.312  0.00  0.00    +0.000 A 
ATOM     20  C   UNL     1       6.872   5.950  16.646  0.00  0.00    +0.000 A 
ATOM     21 CL   UNL     1       7.711   7.354  17.202  0.00  0.00    +0.000 Cl
ENDBRANCH  13  14
ENDBRANCH   3  13
TORSDOF 3
ENDMDL
