MODEL 1
REMARK VINA RESULT:      -9.9      0.000      0.000
REMARK  Name = 
REMARK  5 active torsions:
REMARK  status: ('A' for Active; 'I' for Inactive)
REMARK    1  A    between atoms: C_1  and  C_2
REMARK    2  A    between atoms: C_5  and  N_6
REMARK    3  A    between atoms: C_8  and  C_9
REMARK    4  A    between atoms: C_9  and  N_10
REMARK    5  A    between atoms: C_11  and  C_12
REMARK                            x       y       z     vdW  Elec       q    Type
REMARK                         _______ _______ _______ _____ _____    ______ ____
ROOT
ATOM      1  N   UNL     1       4.371   5.636  18.173  0.00  0.00    +0.000 N 
ATOM      2  C   UNL     1       4.330   4.711  19.207  0.00  0.00    +0.000 A 
ATOM      3  N   UNL     1       5.537   4.587  19.739  0.00  0.00    +0.000 NA
ATOM      4  C   UNL     1       6.344   5.492  19.108  0.00  0.00    +0.000 A 
ATOM      5  C   UNL     1       7.673   5.844  19.381  0.00  0.00    +0.000 A 
ATOM      6  C   UNL     1       8.280   6.840  18.608  0.00  0.00    +0.000 A 
ATOM      7  C   UNL     1       7.596   7.431  17.546  0.00  0.00    +0.000 A 
ATOM      8  C   UNL     1       6.274   7.080  17.251  0.00  0.00    +0.000 A 
ATOM      9  C   UNL     1       5.663   6.129  18.081  0.00  0.00    +0.000 A 
ENDROOT
BRANCH   2  10
ATOM     10  C   UNL     1       3.170   3.952  19.708  0.00  0.00    +0.000 A 
ATOM     11  C   UNL     1       2.922   3.917  21.092  0.00  0.00    +0.000 A 
ATOM     12  C   UNL     1       1.797   3.262  21.617  0.00  0.00    +0.000 A 
ATOM     13  C   UNL     1       0.912   2.618  20.761  0.00  0.00    +0.000 A 
ATOM     14  C   UNL     1       1.138   2.666  19.395  0.00  0.00    +0.000 A 
ATOM     15  F   UNL     1       0.281   2.069  18.557  0.00  0.00    +0.000 F 
ATOM     16  C   UNL     1       2.230   3.347  18.867  0.00  0.00    +0.000 A 
ENDBRANCH   2  10
BRANCH   1  17
ATOM     17  C   UNL     1       3.266   6.188  17.412  0.00  0.00    +0.000 C 
BRANCH  17  20
ATOM     18  N   UNL     1       1.594   8.840  19.244  0.00  0.00    +0.000 N 
ATOM     19  C   UNL     1       2.016   7.532  19.188  0.00  0.00    +0.000 A 
ATOM     20  C   UNL     1       2.702   7.419  18.005  0.00  0.00    +0.000 A 
ATOM     21  N   UNL     1       2.679   8.619  17.360  0.00  0.00    +0.000 NA
ATOM     22  N   UNL     1       2.005   9.477  18.115  0.00  0.00    +0.000 NA
BRANCH  18  27
ATOM     23  C   UNL     1      -1.605  11.330  23.283  0.00  0.00    +0.000 C 
ATOM     24  C   UNL     1      -0.710  10.710  22.251  0.00  0.00    +0.000 A 
ATOM     25  C   UNL     1       0.200   9.697  22.580  0.00  0.00    +0.000 A 
ATOM     26  C   UNL     1       0.976   9.085  21.585  0.00  0.00    +0.000 A 
ATOM     27  C   UNL     1       0.846   9.488  20.250  0.00  0.00    +0.000 A 
ATOM     28  C   UNL     1      -0.040  10.522  19.936  0.00  0.00    +0.000 A 
ATOM     29  F   UNL     1      -0.210  10.964  18.684  0.00  0.00    +0.000 F 
ATOM     30  C   UNL     1      -0.812  11.125  20.922  0.00  0.00    +0.000 A 
ENDBRANCH  18  27
ENDBRANCH  17  20
ENDBRANCH   1  17
TORSDOF 4
ENDMDL
MODEL 2
REMARK VINA RESULT:      -9.9      0.861      1.231
REMARK  Name = 
REMARK  5 active torsions:
REMARK  status: ('A' for Active; 'I' for Inactive)
REMARK    1  A    between atoms: C_1  and  C_2
REMARK    2  A    between atoms: C_5  and  N_6
REMARK    3  A    between atoms: C_8  and  C_9
REMARK    4  A    between atoms: C_9  and  N_10
REMARK    5  A    between atoms: C_11  and  C_12
REMARK                            x       y       z     vdW  Elec       q    Type
REMARK                         _______ _______ _______ _____ _____    ______ ____
ROOT
ATOM      1  N   UNL     1       4.369   5.661  18.155  0.00  0.00    +0.000 N 
ATOM      2  C   UNL     1       4.327   4.735  19.189  0.00  0.00    +0.000 A 
ATOM      3  N   UNL     1       5.533   4.612  19.722  0.00  0.00    +0.000 NA
ATOM      4  C   UNL     1       6.341   5.518  19.092  0.00  0.00    +0.000 A 
ATOM      5  C   UNL     1       7.669   5.871  19.367  0.00  0.00    +0.000 A 
ATOM      6  C   UNL     1       8.277   6.867  18.595  0.00  0.00    +0.000 A 
ATOM      7  C   UNL     1       7.594   7.458  17.533  0.00  0.00    +0.000 A 
ATOM      8  C   UNL     1       6.273   7.106  17.235  0.00  0.00    +0.000 A 
ATOM      9  C   UNL     1       5.661   6.155  18.065  0.00  0.00    +0.000 A 
ENDROOT
BRANCH   2  10
ATOM     10  C   UNL     1       3.167   3.976  19.688  0.00  0.00    +0.000 A 
ATOM     11  C   UNL     1       2.857   4.024  21.059  0.00  0.00    +0.000 A 
ATOM     12  C   UNL     1       1.727   3.371  21.576  0.00  0.00    +0.000 A 
ATOM     13  C   UNL     1       0.901   2.645  20.728  0.00  0.00    +0.000 A 
ATOM     14  C   UNL     1       1.188   2.610  19.372  0.00  0.00    +0.000 A 
ATOM     15  F   UNL     1       0.387   1.933  18.540  0.00  0.00    +0.000 F 
ATOM     16  C   UNL     1       2.284   3.288  18.848  0.00  0.00    +0.000 A 
ENDBRANCH   2  10
BRANCH   1  17
ATOM     17  C   UNL     1       3.264   6.213  17.393  0.00  0.00    +0.000 C 
BRANCH  17  20
ATOM     18  N   UNL     1       1.559   8.871  19.182  0.00  0.00    +0.000 N 
ATOM     19  C   UNL     1       1.939   7.551  19.117  0.00  0.00    +0.000 A 
ATOM     20  C   UNL     1       2.703   7.447  17.982  0.00  0.00    +0.000 A 
ATOM     21  N   UNL     1       2.768   8.664  17.374  0.00  0.00    +0.000 NA
ATOM     22  N   UNL     1       2.071   9.525  18.106  0.00  0.00    +0.000 NA
BRANCH  18  27
ATOM     23  C   UNL     1      -1.494  11.626  23.163  0.00  0.00    +0.000 C 
ATOM     24  C   UNL     1      -0.754  10.875  22.095  0.00  0.00    +0.000 A 
ATOM     25  C   UNL     1      -0.842  11.238  20.745  0.00  0.00    +0.000 A 
ATOM     26  C   UNL     1      -0.086  10.564  19.775  0.00  0.00    +0.000 A 
ATOM     27  C   UNL     1       0.764   9.518  20.153  0.00  0.00    +0.000 A 
ATOM     28  C   UNL     1       0.821   9.141  21.497  0.00  0.00    +0.000 A 
ATOM     29  F   UNL     1       1.605   8.146  21.930  0.00  0.00    +0.000 F 
ATOM     30  C   UNL     1       0.074   9.812  22.459  0.00  0.00    +0.000 A 
ENDBRANCH  18  27
ENDBRANCH  17  20
ENDBRANCH   1  17
TORSDOF 4
ENDMDL
MODEL 3
REMARK VINA RESULT:      -9.8      0.773      1.169
REMARK  Name = 
REMARK  5 active torsions:
REMARK  status: ('A' for Active; 'I' for Inactive)
REMARK    1  A    between atoms: C_1  and  C_2
REMARK    2  A    between atoms: C_5  and  N_6
REMARK    3  A    between atoms: C_8  and  C_9
REMARK    4  A    between atoms: C_9  and  N_10
REMARK    5  A    between atoms: C_11  and  C_12
REMARK                            x       y       z     vdW  Elec       q    Type
REMARK                         _______ _______ _______ _____ _____    ______ ____
ROOT
ATOM      1  N   UNL     1       4.424   5.632  17.968  0.00  0.00    +0.000 N 
ATOM      2  C   UNL     1       4.331   4.611  18.904  0.00  0.00    +0.000 A 
ATOM      3  N   UNL     1       5.508   4.436  19.487  0.00  0.00    +0.000 NA
ATOM      4  C   UNL     1       6.344   5.398  18.992  0.00  0.00    +0.000 A 
ATOM      5  C   UNL     1       7.654   5.722  19.371  0.00  0.00    +0.000 A 
ATOM      6  C   UNL     1       8.297   6.789  18.733  0.00  0.00    +0.000 A 
ATOM      7  C   UNL     1       7.669   7.480  17.697  0.00  0.00    +0.000 A 
ATOM      8  C   UNL     1       6.368   7.159  17.296  0.00  0.00    +0.000 A 
ATOM      9  C   UNL     1       5.716   6.131  17.996  0.00  0.00    +0.000 A 
ENDROOT
BRANCH   2  10
ATOM     10  C   UNL     1       3.150   3.807  19.264  0.00  0.00    +0.000 A 
ATOM     11  C   UNL     1       2.525   3.029  18.274  0.00  0.00    +0.000 A 
ATOM     12  C   UNL     1       1.435   2.197  18.577  0.00  0.00    +0.000 A 
ATOM     13  C   UNL     1       0.945   2.148  19.876  0.00  0.00    +0.000 A 
ATOM     14  C   UNL     1       1.569   2.897  20.861  0.00  0.00    +0.000 A 
ATOM     15  F   UNL     1       1.121   2.841  22.122  0.00  0.00    +0.000 F 
ATOM     16  C   UNL     1       2.674   3.692  20.574  0.00  0.00    +0.000 A 
ENDBRANCH   2  10
BRANCH   1  17
ATOM     17  C   UNL     1       3.359   6.255  17.204  0.00  0.00    +0.000 C 
BRANCH  17  20
ATOM     18  N   UNL     1       1.690   8.824  19.152  0.00  0.00    +0.000 N 
ATOM     19  C   UNL     1       2.104   7.518  19.035  0.00  0.00    +0.000 A 
ATOM     20  C   UNL     1       2.799   7.459  17.853  0.00  0.00    +0.000 A 
ATOM     21  N   UNL     1       2.790   8.689  17.269  0.00  0.00    +0.000 NA
ATOM     22  N   UNL     1       2.115   9.514  18.060  0.00  0.00    +0.000 NA
BRANCH  18  27
ATOM     23  C   UNL     1      -1.523  11.126  23.292  0.00  0.00    +0.000 C 
ATOM     24  C   UNL     1      -0.624  10.556  22.233  0.00  0.00    +0.000 A 
ATOM     25  C   UNL     1       0.320   9.564  22.526  0.00  0.00    +0.000 A 
ATOM     26  C   UNL     1       1.100   8.999  21.507  0.00  0.00    +0.000 A 
ATOM     27  C   UNL     1       0.938   9.427  20.183  0.00  0.00    +0.000 A 
ATOM     28  C   UNL     1       0.017  10.440  19.905  0.00  0.00    +0.000 A 
ATOM     29  F   UNL     1      -0.185  10.904  18.666  0.00  0.00    +0.000 F 
ATOM     30  C   UNL     1      -0.758  10.998  20.915  0.00  0.00    +0.000 A 
ENDBRANCH  18  27
ENDBRANCH  17  20
ENDBRANCH   1  17
TORSDOF 4
ENDMDL
MODEL 4
REMARK VINA RESULT:      -9.8      1.177      1.702
REMARK  Name = 
REMARK  5 active torsions:
REMARK  status: ('A' for Active; 'I' for Inactive)
REMARK    1  A    between atoms: C_1  and  C_2
REMARK    2  A    between atoms: C_5  and  N_6
REMARK    3  A    between atoms: C_8  and  C_9
REMARK    4  A    between atoms: C_9  and  N_10
REMARK    5  A    between atoms: C_11  and  C_12
REMARK                            x       y       z     vdW  Elec       q    Type
REMARK                         _______ _______ _______ _____ _____    ______ ____
ROOT
ATOM      1  N   UNL     1       4.546   5.653  17.917  0.00  0.00    +0.000 N 
ATOM      2  C   UNL     1       4.436   4.636  18.856  0.00  0.00    +0.000 A 
ATOM      3  N   UNL     1       5.596   4.475  19.474  0.00  0.00    +0.000 NA
ATOM      4  C   UNL     1       6.438   5.441  18.997  0.00  0.00    +0.000 A 
ATOM      5  C   UNL     1       7.734   5.778  19.411  0.00  0.00    +0.000 A 
ATOM      6  C   UNL     1       8.387   6.846  18.785  0.00  0.00    +0.000 A 
ATOM      7  C   UNL     1       7.782   7.526  17.728  0.00  0.00    +0.000 A 
ATOM      8  C   UNL     1       6.495   7.192  17.292  0.00  0.00    +0.000 A 
ATOM      9  C   UNL     1       5.833   6.163  17.979  0.00  0.00    +0.000 A 
ENDROOT
BRANCH   2  10
ATOM     10  C   UNL     1       3.251   3.825  19.188  0.00  0.00    +0.000 A 
ATOM     11  C   UNL     1       2.682   3.008  18.194  0.00  0.00    +0.000 A 
ATOM     12  C   UNL     1       1.592   2.168  18.473  0.00  0.00    +0.000 A 
ATOM     13  C   UNL     1       1.045   2.149  19.750  0.00  0.00    +0.000 A 
ATOM     14  C   UNL     1       1.614   2.936  20.739  0.00  0.00    +0.000 A 
ATOM     15  F   UNL     1       1.111   2.909  21.980  0.00  0.00    +0.000 F 
ATOM     16  C   UNL     1       2.718   3.739  20.478  0.00  0.00    +0.000 A 
ENDBRANCH   2  10
BRANCH   1  17
ATOM     17  C   UNL     1       3.499   6.263  17.120  0.00  0.00    +0.000 C 
BRANCH  17  20
ATOM     18  N   UNL     1       1.693   8.757  19.044  0.00  0.00    +0.000 N 
ATOM     19  C   UNL     1       2.152   7.466  18.926  0.00  0.00    +0.000 A 
ATOM     20  C   UNL     1       2.882   7.442  17.764  0.00  0.00    +0.000 A 
ATOM     21  N   UNL     1       2.850   8.677  17.192  0.00  0.00    +0.000 NA
ATOM     22  N   UNL     1       2.127   9.471  17.972  0.00  0.00    +0.000 NA
BRANCH  18  27
ATOM     23  C   UNL     1      -1.368  11.146  23.248  0.00  0.00    +0.000 C 
ATOM     24  C   UNL     1      -0.626  10.508  22.111  0.00  0.00    +0.000 A 
ATOM     25  C   UNL     1      -0.484  11.149  20.874  0.00  0.00    +0.000 A 
ATOM     26  C   UNL     1       0.274  10.562  19.849  0.00  0.00    +0.000 A 
ATOM     27  C   UNL     1       0.893   9.324  20.059  0.00  0.00    +0.000 A 
ATOM     28  C   UNL     1       0.719   8.677  21.285  0.00  0.00    +0.000 A 
ATOM     29  F   UNL     1       1.274   7.489  21.553  0.00  0.00    +0.000 F 
ATOM     30  C   UNL     1      -0.029   9.260  22.301  0.00  0.00    +0.000 A 
ENDBRANCH  18  27
ENDBRANCH  17  20
ENDBRANCH   1  17
TORSDOF 4
ENDMDL
MODEL 5
REMARK VINA RESULT:      -9.5      1.563      2.024
REMARK  Name = 
REMARK  5 active torsions:
REMARK  status: ('A' for Active; 'I' for Inactive)
REMARK    1  A    between atoms: C_1  and  C_2
REMARK    2  A    between atoms: C_5  and  N_6
REMARK    3  A    between atoms: C_8  and  C_9
REMARK    4  A    between atoms: C_9  and  N_10
REMARK    5  A    between atoms: C_11  and  C_12
REMARK                            x       y       z     vdW  Elec       q    Type
REMARK                         _______ _______ _______ _____ _____    ______ ____
ROOT
ATOM      1  N   UNL     1       4.323   5.645  18.167  0.00  0.00    +0.000 N 
ATOM      2  C   UNL     1       4.307   4.700  19.184  0.00  0.00    +0.000 A 
ATOM      3  N   UNL     1       5.523   4.577  19.694  0.00  0.00    +0.000 NA
ATOM      4  C   UNL     1       6.312   5.501  19.068  0.00  0.00    +0.000 A 
ATOM      5  C   UNL     1       7.641   5.861  19.326  0.00  0.00    +0.000 A 
ATOM      6  C   UNL     1       8.227   6.878  18.563  0.00  0.00    +0.000 A 
ATOM      7  C   UNL     1       7.520   7.482  17.524  0.00  0.00    +0.000 A 
ATOM      8  C   UNL     1       6.198   7.124  17.243  0.00  0.00    +0.000 A 
ATOM      9  C   UNL     1       5.608   6.152  18.065  0.00  0.00    +0.000 A 
ENDROOT
BRANCH   2  10
ATOM     10  C   UNL     1       3.162   3.921  19.688  0.00  0.00    +0.000 A 
ATOM     11  C   UNL     1       2.854   3.968  21.059  0.00  0.00    +0.000 A 
ATOM     12  C   UNL     1       1.737   3.296  21.582  0.00  0.00    +0.000 A 
ATOM     13  C   UNL     1       0.923   2.551  20.738  0.00  0.00    +0.000 A 
ATOM     14  C   UNL     1       1.209   2.517  19.382  0.00  0.00    +0.000 A 
ATOM     15  F   UNL     1       0.419   1.822  18.554  0.00  0.00    +0.000 F 
ATOM     16  C   UNL     1       2.290   3.213  18.853  0.00  0.00    +0.000 A 
ENDBRANCH   2  10
BRANCH   1  17
ATOM     17  C   UNL     1       3.200   6.201  17.435  0.00  0.00    +0.000 C 
BRANCH  17  20
ATOM     18  N   UNL     1       1.707   9.266  18.682  0.00  0.00    +0.000 N 
ATOM     19  C   UNL     1       2.176   8.533  17.617  0.00  0.00    +0.000 A 
ATOM     20  C   UNL     1       2.533   7.315  18.140  0.00  0.00    +0.000 A 
ATOM     21  N   UNL     1       2.301   7.321  19.482  0.00  0.00    +0.000 NA
ATOM     22  N   UNL     1       1.800   8.507  19.806  0.00  0.00    +0.000 NA
BRANCH  18  27
ATOM     23  C   UNL     1      -0.278  14.626  18.970  0.00  0.00    +0.000 C 
ATOM     24  C   UNL     1       0.249  13.229  18.825  0.00  0.00    +0.000 A 
ATOM     25  C   UNL     1       1.597  12.977  18.536  0.00  0.00    +0.000 A 
ATOM     26  C   UNL     1       2.079  11.662  18.474  0.00  0.00    +0.000 A 
ATOM     27  C   UNL     1       1.210  10.587  18.699  0.00  0.00    +0.000 A 
ATOM     28  C   UNL     1      -0.139  10.846  18.953  0.00  0.00    +0.000 A 
ATOM     29  F   UNL     1      -1.028   9.869  19.170  0.00  0.00    +0.000 F 
ATOM     30  C   UNL     1      -0.616  12.150  19.019  0.00  0.00    +0.000 A 
ENDBRANCH  18  27
ENDBRANCH  17  20
ENDBRANCH   1  17
TORSDOF 4
ENDMDL
MODEL 6
REMARK VINA RESULT:      -9.4      1.433      1.881
REMARK  Name = 
REMARK  5 active torsions:
REMARK  status: ('A' for Active; 'I' for Inactive)
REMARK    1  A    between atoms: C_1  and  C_2
REMARK    2  A    between atoms: C_5  and  N_6
REMARK    3  A    between atoms: C_8  and  C_9
REMARK    4  A    between atoms: C_9  and  N_10
REMARK    5  A    between atoms: C_11  and  C_12
REMARK                            x       y       z     vdW  Elec       q    Type
REMARK                         _______ _______ _______ _____ _____    ______ ____
ROOT
ATOM      1  N   UNL     1       4.410   5.794  17.969  0.00  0.00    +0.000 N 
ATOM      2  C   UNL     1       4.355   4.696  18.817  0.00  0.00    +0.000 A 
ATOM      3  N   UNL     1       5.556   4.470  19.328  0.00  0.00    +0.000 NA
ATOM      4  C   UNL     1       6.374   5.470  18.879  0.00  0.00    +0.000 A 
ATOM      5  C   UNL     1       7.701   5.760  19.224  0.00  0.00    +0.000 A 
ATOM      6  C   UNL     1       8.320   6.876  18.651  0.00  0.00    +0.000 A 
ATOM      7  C   UNL     1       7.648   7.655  17.709  0.00  0.00    +0.000 A 
ATOM      8  C   UNL     1       6.328   7.371  17.342  0.00  0.00    +0.000 A 
ATOM      9  C   UNL     1       5.705   6.288  17.980  0.00  0.00    +0.000 A 
ENDROOT
BRANCH   2  10
ATOM     10  C   UNL     1       3.187   3.865  19.160  0.00  0.00    +0.000 A 
ATOM     11  C   UNL     1       2.546   3.134  18.145  0.00  0.00    +0.000 A 
ATOM     12  C   UNL     1       1.469   2.279  18.428  0.00  0.00    +0.000 A 
ATOM     13  C   UNL     1       1.008   2.159  19.733  0.00  0.00    +0.000 A 
ATOM     14  C   UNL     1       1.648   2.861  20.742  0.00  0.00    +0.000 A 
ATOM     15  F   UNL     1       1.229   2.737  22.008  0.00  0.00    +0.000 F 
ATOM     16  C   UNL     1       2.741   3.678  20.473  0.00  0.00    +0.000 A 
ENDBRANCH   2  10
BRANCH   1  17
ATOM     17  C   UNL     1       3.314   6.482  17.312  0.00  0.00    +0.000 C 
BRANCH  17  20
ATOM     18  N   UNL     1       1.406   8.993  19.109  0.00  0.00    +0.000 N 
ATOM     19  C   UNL     1       1.887   8.512  17.914  0.00  0.00    +0.000 A 
ATOM     20  C   UNL     1       2.528   7.338  18.224  0.00  0.00    +0.000 A 
ATOM     21  N   UNL     1       2.448   7.128  19.567  0.00  0.00    +0.000 NA
ATOM     22  N   UNL     1       1.767   8.135  20.100  0.00  0.00    +0.000 NA
BRANCH  18  27
ATOM     23  C   UNL     1      -1.720  13.651  20.243  0.00  0.00    +0.000 C 
ATOM     24  C   UNL     1      -0.848  12.472  19.923  0.00  0.00    +0.000 A 
ATOM     25  C   UNL     1       0.279  12.160  20.693  0.00  0.00    +0.000 A 
ATOM     26  C   UNL     1       1.037  11.013  20.416  0.00  0.00    +0.000 A 
ATOM     27  C   UNL     1       0.670  10.171  19.359  0.00  0.00    +0.000 A 
ATOM     28  C   UNL     1      -0.437  10.508  18.575  0.00  0.00    +0.000 A 
ATOM     29  F   UNL     1      -0.841   9.755  17.545  0.00  0.00    +0.000 F 
ATOM     30  C   UNL     1      -1.190  11.643  18.853  0.00  0.00    +0.000 A 
ENDBRANCH  18  27
ENDBRANCH  17  20
ENDBRANCH   1  17
TORSDOF 4
ENDMDL
MODEL 7
REMARK VINA RESULT:      -9.4      1.501      2.119
REMARK  Name = 
REMARK  5 active torsions:
REMARK  status: ('A' for Active; 'I' for Inactive)
REMARK    1  A    between atoms: C_1  and  C_2
REMARK    2  A    between atoms: C_5  and  N_6
REMARK    3  A    between atoms: C_8  and  C_9
REMARK    4  A    between atoms: C_9  and  N_10
REMARK    5  A    between atoms: C_11  and  C_12
REMARK                            x       y       z     vdW  Elec       q    Type
REMARK                         _______ _______ _______ _____ _____    ______ ____
ROOT
ATOM      1  N   UNL     1       4.325   5.726  17.995  0.00  0.00    +0.000 N 
ATOM      2  C   UNL     1       4.257   4.648  18.868  0.00  0.00    +0.000 A 
ATOM      3  N   UNL     1       5.456   4.419  19.384  0.00  0.00    +0.000 NA
ATOM      4  C   UNL     1       6.285   5.398  18.912  0.00  0.00    +0.000 A 
ATOM      5  C   UNL     1       7.617   5.678  19.248  0.00  0.00    +0.000 A 
ATOM      6  C   UNL     1       8.249   6.773  18.649  0.00  0.00    +0.000 A 
ATOM      7  C   UNL     1       7.587   7.538  17.690  0.00  0.00    +0.000 A 
ATOM      8  C   UNL     1       6.263   7.263  17.331  0.00  0.00    +0.000 A 
ATOM      9  C   UNL     1       5.626   6.203  17.994  0.00  0.00    +0.000 A 
ENDROOT
BRANCH   2  10
ATOM     10  C   UNL     1       3.078   3.841  19.232  0.00  0.00    +0.000 A 
ATOM     11  C   UNL     1       2.388   3.147  18.223  0.00  0.00    +0.000 A 
ATOM     12  C   UNL     1       1.298   2.314  18.523  0.00  0.00    +0.000 A 
ATOM     13  C   UNL     1       0.874   2.180  19.839  0.00  0.00    +0.000 A 
ATOM     14  C   UNL     1       1.563   2.846  20.841  0.00  0.00    +0.000 A 
ATOM     15  F   UNL     1       1.178   2.707  22.117  0.00  0.00    +0.000 F 
ATOM     16  C   UNL     1       2.668   3.640  20.554  0.00  0.00    +0.000 A 
ENDBRANCH   2  10
BRANCH   1  17
ATOM     17  C   UNL     1       3.238   6.412  17.323  0.00  0.00    +0.000 C 
BRANCH  17  20
ATOM     18  N   UNL     1       1.563   9.154  19.015  0.00  0.00    +0.000 N 
ATOM     19  C   UNL     1       2.033   8.602  17.846  0.00  0.00    +0.000 A 
ATOM     20  C   UNL     1       2.520   7.367  18.193  0.00  0.00    +0.000 A 
ATOM     21  N   UNL     1       2.363   7.187  19.534  0.00  0.00    +0.000 NA
ATOM     22  N   UNL     1       1.783   8.274  20.028  0.00  0.00    +0.000 NA
BRANCH  18  27
ATOM     23  C   UNL     1      -0.983  14.239  19.655  0.00  0.00    +0.000 C 
ATOM     24  C   UNL     1      -0.301  12.906  19.557  0.00  0.00    +0.000 A 
ATOM     25  C   UNL     1      -0.881  11.743  20.079  0.00  0.00    +0.000 A 
ATOM     26  C   UNL     1      -0.256  10.498  19.913  0.00  0.00    +0.000 A 
ATOM     27  C   UNL     1       0.959  10.412  19.222  0.00  0.00    +0.000 A 
ATOM     28  C   UNL     1       1.546  11.582  18.733  0.00  0.00    +0.000 A 
ATOM     29  F   UNL     1       2.709  11.577  18.070  0.00  0.00    +0.000 F 
ATOM     30  C   UNL     1       0.925  12.815  18.894  0.00  0.00    +0.000 A 
ENDBRANCH  18  27
ENDBRANCH  17  20
ENDBRANCH   1  17
TORSDOF 4
ENDMDL
MODEL 8
REMARK VINA RESULT:      -9.3      1.337      1.857
REMARK  Name = 
REMARK  5 active torsions:
REMARK  status: ('A' for Active; 'I' for Inactive)
REMARK    1  A    between atoms: C_1  and  C_2
REMARK    2  A    between atoms: C_5  and  N_6
REMARK    3  A    between atoms: C_8  and  C_9
REMARK    4  A    between atoms: C_9  and  N_10
REMARK    5  A    between atoms: C_11  and  C_12
REMARK                            x       y       z     vdW  Elec       q    Type
REMARK                         _______ _______ _______ _____ _____    ______ ____
ROOT
ATOM      1  N   UNL     1       4.307   5.708  18.185  0.00  0.00    +0.000 N 
ATOM      2  C   UNL     1       4.298   4.722  19.162  0.00  0.00    +0.000 A 
ATOM      3  N   UNL     1       5.523   4.561  19.641  0.00  0.00    +0.000 NA
ATOM      4  C   UNL     1       6.313   5.498  19.035  0.00  0.00    +0.000 A 
ATOM      5  C   UNL     1       7.653   5.827  19.279  0.00  0.00    +0.000 A 
ATOM      6  C   UNL     1       8.238   6.865  18.545  0.00  0.00    +0.000 A 
ATOM      7  C   UNL     1       7.519   7.522  17.547  0.00  0.00    +0.000 A 
ATOM      8  C   UNL     1       6.185   7.196  17.280  0.00  0.00    +0.000 A 
ATOM      9  C   UNL     1       5.598   6.199  18.075  0.00  0.00    +0.000 A 
ENDROOT
BRANCH   2  10
ATOM     10  C   UNL     1       3.152   3.940  19.659  0.00  0.00    +0.000 A 
ATOM     11  C   UNL     1       2.872   3.938  21.037  0.00  0.00    +0.000 A 
ATOM     12  C   UNL     1       1.756   3.262  21.556  0.00  0.00    +0.000 A 
ATOM     13  C   UNL     1       0.914   2.563  20.701  0.00  0.00    +0.000 A 
ATOM     14  C   UNL     1       1.172   2.577  19.339  0.00  0.00    +0.000 A 
ATOM     15  F   UNL     1       0.355   1.926  18.501  0.00  0.00    +0.000 F 
ATOM     16  C   UNL     1       2.253   3.279  18.816  0.00  0.00    +0.000 A 
ENDBRANCH   2  10
BRANCH   1  17
ATOM     17  C   UNL     1       3.178   6.310  17.500  0.00  0.00    +0.000 C 
BRANCH  17  20
ATOM     18  N   UNL     1       1.574   9.181  19.038  0.00  0.00    +0.000 N 
ATOM     19  C   UNL     1       2.062   8.571  17.906  0.00  0.00    +0.000 A 
ATOM     20  C   UNL     1       2.474   7.326  18.310  0.00  0.00    +0.000 A 
ATOM     21  N   UNL     1       2.256   7.197  19.648  0.00  0.00    +0.000 NA
ATOM     22  N   UNL     1       1.710   8.326  20.085  0.00  0.00    +0.000 NA
BRANCH  18  27
ATOM     23  C   UNL     1      -0.753  14.396  19.424  0.00  0.00    +0.000 C 
ATOM     24  C   UNL     1      -0.127  13.032  19.392  0.00  0.00    +0.000 A 
ATOM     25  C   UNL     1      -0.749  11.924  19.981  0.00  0.00    +0.000 A 
ATOM     26  C   UNL     1      -0.178  10.647  19.877  0.00  0.00    +0.000 A 
ATOM     27  C   UNL     1       1.025  10.473  19.181  0.00  0.00    +0.000 A 
ATOM     28  C   UNL     1       1.655  11.590  18.626  0.00  0.00    +0.000 A 
ATOM     29  F   UNL     1       2.810  11.500  17.955  0.00  0.00    +0.000 F 
ATOM     30  C   UNL     1       1.087  12.854  18.726  0.00  0.00    +0.000 A 
ENDBRANCH  18  27
ENDBRANCH  17  20
ENDBRANCH   1  17
TORSDOF 4
ENDMDL
MODEL 9
REMARK VINA RESULT:      -8.9      1.254      1.792
REMARK  Name = 
REMARK  5 active torsions:
REMARK  status: ('A' for Active; 'I' for Inactive)
REMARK    1  A    between atoms: C_1  and  C_2
REMARK    2  A    between atoms: C_5  and  N_6
REMARK    3  A    between atoms: C_8  and  C_9
REMARK    4  A    between atoms: C_9  and  N_10
REMARK    5  A    between atoms: C_11  and  C_12
REMARK                            x       y       z     vdW  Elec       q    Type
REMARK                         _______ _______ _______ _____ _____    ______ ____
ROOT
ATOM      1  N   UNL     1       4.316   5.717  18.186  0.00  0.00    +0.000 N 
ATOM      2  C   UNL     1       4.311   4.697  19.127  0.00  0.00    +0.000 A 
ATOM      3  N   UNL     1       5.541   4.508  19.582  0.00  0.00    +0.000 NA
ATOM      4  C   UNL     1       6.331   5.460  19.000  0.00  0.00    +0.000 A 
ATOM      5  C   UNL     1       7.677   5.769  19.237  0.00  0.00    +0.000 A 
ATOM      6  C   UNL     1       8.262   6.827  18.533  0.00  0.00    +0.000 A 
ATOM      7  C   UNL     1       7.535   7.526  17.569  0.00  0.00    +0.000 A 
ATOM      8  C   UNL     1       6.195   7.221  17.310  0.00  0.00    +0.000 A 
ATOM      9  C   UNL     1       5.610   6.201  18.075  0.00  0.00    +0.000 A 
ENDROOT
BRANCH   2  10
ATOM     10  C   UNL     1       3.165   3.907  19.612  0.00  0.00    +0.000 A 
ATOM     11  C   UNL     1       2.927   3.826  20.995  0.00  0.00    +0.000 A 
ATOM     12  C   UNL     1       1.814   3.140  21.507  0.00  0.00    +0.000 A 
ATOM     13  C   UNL     1       0.932   2.510  20.637  0.00  0.00    +0.000 A 
ATOM     14  C   UNL     1       1.149   2.604  19.272  0.00  0.00    +0.000 A 
ATOM     15  F   UNL     1       0.293   2.022  18.422  0.00  0.00    +0.000 F 
ATOM     16  C   UNL     1       2.228   3.316  18.758  0.00  0.00    +0.000 A 
ENDBRANCH   2  10
BRANCH   1  17
ATOM     17  C   UNL     1       3.183   6.353  17.539  0.00  0.00    +0.000 C 
BRANCH  17  20
ATOM     18  N   UNL     1       1.385   8.983  19.279  0.00  0.00    +0.000 N 
ATOM     19  C   UNL     1       1.851   8.459  18.096  0.00  0.00    +0.000 A 
ATOM     20  C   UNL     1       2.432   7.262  18.430  0.00  0.00    +0.000 A 
ATOM     21  N   UNL     1       2.335   7.079  19.776  0.00  0.00    +0.000 NA
ATOM     22  N   UNL     1       1.699   8.127  20.287  0.00  0.00    +0.000 NA
BRANCH  18  27
ATOM     23  C   UNL     1      -1.191  14.021  20.140  0.00  0.00    +0.000 C 
ATOM     24  C   UNL     1      -0.579  12.670  19.912  0.00  0.00    +0.000 A 
ATOM     25  C   UNL     1      -0.659  12.026  18.670  0.00  0.00    +0.000 A 
ATOM     26  C   UNL     1      -0.020  10.795  18.463  0.00  0.00    +0.000 A 
ATOM     27  C   UNL     1       0.704  10.199  19.503  0.00  0.00    +0.000 A 
ATOM     28  C   UNL     1       0.750  10.832  20.747  0.00  0.00    +0.000 A 
ATOM     29  F   UNL     1       1.416  10.317  21.789  0.00  0.00    +0.000 F 
ATOM     30  C   UNL     1       0.120  12.054  20.952  0.00  0.00    +0.000 A 
ENDBRANCH  18  27
ENDBRANCH  17  20
ENDBRANCH   1  17
TORSDOF 4
ENDMDL
