MODEL 1
REMARK VINA RESULT:      -8.4      0.000      0.000
REMARK  Name = 
REMARK  6 active torsions:
REMARK  status: ('A' for Active; 'I' for Inactive)
REMARK    1  A    between atoms: C_1  and  C_2
REMARK    2  A    between atoms: C_7  and  C_8
REMARK    3  A    between atoms: C_8  and  N_9
REMARK    4  A    between atoms: C_13  and  O_14
REMARK    5  A    between atoms: C_16  and  C_17
REMARK    6  A    between atoms: C_22  and  C_24
REMARK                            x       y       z     vdW  Elec       q    Type
REMARK                         _______ _______ _______ _____ _____    ______ ____
ROOT
ATOM      1  N   UNL     1       6.443   5.137  15.595  0.00  0.00    +0.000 N 
ATOM      2  N   UNL     1       7.514   5.946  15.793  0.00  0.00    +0.000 NA
ATOM      3  N   UNL     1       7.787   5.942  17.100  0.00  0.00    +0.000 NA
ATOM      4  C   UNL     1       6.870   5.137  17.720  0.00  0.00    +0.000 A 
ATOM      5  C   UNL     1       6.576   4.816  19.041  0.00  0.00    +0.000 A 
ATOM      6  N   UNL     1       5.542   3.994  19.329  0.00  0.00    +0.000 NA
ATOM      7  C   UNL     1       4.807   3.501  18.304  0.00  0.00    +0.000 A 
ATOM      8  N   UNL     1       5.021   3.744  16.994  0.00  0.00    +0.000 NA
ATOM      9  C   UNL     1       6.045   4.572  16.776  0.00  0.00    +0.000 A 
ENDROOT
BRANCH   7  10
ATOM     10  C   UNL     1       3.554   2.718  18.658  0.00  0.00    +0.000 C 
ATOM     11  C   UNL     1       2.606   2.495  17.463  0.00  0.00    +0.000 C 
ATOM     12  C   UNL     1       1.861   3.756  17.033  0.00  0.00    +0.000 C 
ATOM     13  C   UNL     1       1.267   4.524  18.205  0.00  0.00    +0.000 C 
ATOM     14  N   UNL     1       2.187   4.679  19.340  0.00  0.00    +0.000 N 
ATOM     15  C   UNL     1       2.621   5.888  19.926  0.00  0.00    +0.000 C 
ATOM     16  O   UNL     1       3.492   5.951  20.783  0.00  0.00    +0.000 OA
ATOM     17  C   UNL     1       2.816   3.437  19.800  0.00  0.00    +0.000 C 
BRANCH  15  18
ATOM     18  C   UNL     1       2.054   7.173  19.431  0.00  0.00    +0.000 A 
ATOM     19  C   UNL     1       2.305   7.639  18.137  0.00  0.00    +0.000 A 
ATOM     20  C   UNL     1       2.001   8.956  17.798  0.00  0.00    +0.000 A 
ATOM     21  C   UNL     1       1.326   9.756  18.715  0.00  0.00    +0.000 A 
ATOM     22  F   UNL     1       1.052  11.026  18.397  0.00  0.00    +0.000 F 
ATOM     23  C   UNL     1       0.938   9.257  19.952  0.00  0.00    +0.000 A 
ATOM     24  C   UNL     1       1.301   7.958  20.318  0.00  0.00    +0.000 A 
ENDBRANCH  15  18
ENDBRANCH   7  10
BRANCH   5  25
ATOM     25  O   UNL     1       7.254   5.343  20.112  0.00  0.00    +0.000 OA
ATOM     26  H   UNL     1       6.942   4.854  20.892  0.00  0.00    +0.000 HD
ENDBRANCH   5  25
BRANCH   1  27
ATOM     27  C   UNL     1       5.640   5.222  14.383  0.00  0.00    +0.000 C 
BRANCH  27  34
ATOM     28  C   UNL     1       8.175   5.565  12.663  0.00  0.00    +0.000 C 
ATOM     29  C   UNL     1       7.187   4.442  12.479  0.00  0.00    +0.000 A 
ATOM     30  C   UNL     1       7.406   3.569  11.397  0.00  0.00    +0.000 A 
ATOM     31  C   UNL     1       6.538   2.511  11.134  0.00  0.00    +0.000 A 
ATOM     32  C   UNL     1       5.425   2.318  11.937  0.00  0.00    +0.000 A 
ATOM     33  C   UNL     1       5.174   3.189  12.994  0.00  0.00    +0.000 A 
ATOM     34  C   UNL     1       6.042   4.260  13.288  0.00  0.00    +0.000 A 
ENDBRANCH  27  34
ENDBRANCH   1  27
TORSDOF 5
ENDMDL
MODEL 2
REMARK VINA RESULT:      -8.4      0.897      1.496
REMARK  Name = 
REMARK  6 active torsions:
REMARK  status: ('A' for Active; 'I' for Inactive)
REMARK    1  A    between atoms: C_1  and  C_2
REMARK    2  A    between atoms: C_7  and  C_8
REMARK    3  A    between atoms: C_8  and  N_9
REMARK    4  A    between atoms: C_13  and  O_14
REMARK    5  A    between atoms: C_16  and  C_17
REMARK    6  A    between atoms: C_22  and  C_24
REMARK                            x       y       z     vdW  Elec       q    Type
REMARK                         _______ _______ _______ _____ _____    ______ ____
ROOT
ATOM      1  N   UNL     1       6.171   4.623  14.625  0.00  0.00    +0.000 N 
ATOM      2  N   UNL     1       7.177   5.531  14.546  0.00  0.00    +0.000 NA
ATOM      3  N   UNL     1       7.590   5.783  15.791  0.00  0.00    +0.000 NA
ATOM      4  C   UNL     1       6.825   5.039  16.649  0.00  0.00    +0.000 A 
ATOM      5  C   UNL     1       6.709   4.942  18.031  0.00  0.00    +0.000 A 
ATOM      6  N   UNL     1       5.793   4.113  18.582  0.00  0.00    +0.000 NA
ATOM      7  C   UNL     1       5.001   3.390  17.756  0.00  0.00    +0.000 A 
ATOM      8  N   UNL     1       5.047   3.406  16.407  0.00  0.00    +0.000 NA
ATOM      9  C   UNL     1       5.959   4.254  15.924  0.00  0.00    +0.000 A 
ENDROOT
BRANCH   7  10
ATOM     10  C   UNL     1       3.873   2.595  18.391  0.00  0.00    +0.000 C 
ATOM     11  C   UNL     1       2.709   2.293  17.425  0.00  0.00    +0.000 C 
ATOM     12  C   UNL     1       1.851   3.515  17.107  0.00  0.00    +0.000 C 
ATOM     13  C   UNL     1       1.483   4.322  18.343  0.00  0.00    +0.000 C 
ATOM     14  N   UNL     1       2.610   4.552  19.258  0.00  0.00    +0.000 N 
ATOM     15  C   UNL     1       3.114   5.797  19.692  0.00  0.00    +0.000 C 
ATOM     16  O   UNL     1       4.139   5.921  20.349  0.00  0.00    +0.000 OA
ATOM     17  C   UNL     1       3.361   3.348  19.629  0.00  0.00    +0.000 C 
BRANCH  15  18
ATOM     18  C   UNL     1       2.417   7.043  19.272  0.00  0.00    +0.000 A 
ATOM     19  C   UNL     1       2.551   7.564  17.982  0.00  0.00    +0.000 A 
ATOM     20  C   UNL     1       2.121   8.860  17.703  0.00  0.00    +0.000 A 
ATOM     21  C   UNL     1       1.439   9.575  18.682  0.00  0.00    +0.000 A 
ATOM     22  F   UNL     1       1.044  10.827  18.423  0.00  0.00    +0.000 F 
ATOM     23  C   UNL     1       1.167   9.012  19.923  0.00  0.00    +0.000 A 
ATOM     24  C   UNL     1       1.656   7.738  20.225  0.00  0.00    +0.000 A 
ENDBRANCH  15  18
ENDBRANCH   7  10
BRANCH   5  25
ATOM     25  O   UNL     1       7.447   5.703  18.904  0.00  0.00    +0.000 OA
ATOM     26  H   UNL     1       7.349   6.622  18.604  0.00  0.00    +0.000 HD
ENDBRANCH   5  25
BRANCH   1  27
ATOM     27  C   UNL     1       5.236   4.428  13.524  0.00  0.00    +0.000 C 
BRANCH  27  34
ATOM     28  C   UNL     1       3.348   3.123  11.467  0.00  0.00    +0.000 C 
ATOM     29  C   UNL     1       4.824   2.834  11.546  0.00  0.00    +0.000 A 
ATOM     30  C   UNL     1       5.329   1.842  10.685  0.00  0.00    +0.000 A 
ATOM     31  C   UNL     1       6.677   1.491  10.695  0.00  0.00    +0.000 A 
ATOM     32  C   UNL     1       7.543   2.114  11.580  0.00  0.00    +0.000 A 
ATOM     33  C   UNL     1       7.058   3.076  12.462  0.00  0.00    +0.000 A 
ATOM     34  C   UNL     1       5.701   3.457  12.464  0.00  0.00    +0.000 A 
ENDBRANCH  27  34
ENDBRANCH   1  27
TORSDOF 5
ENDMDL
MODEL 3
REMARK VINA RESULT:      -8.0      4.872      8.124
REMARK  Name = 
REMARK  6 active torsions:
REMARK  status: ('A' for Active; 'I' for Inactive)
REMARK    1  A    between atoms: C_1  and  C_2
REMARK    2  A    between atoms: C_7  and  C_8
REMARK    3  A    between atoms: C_8  and  N_9
REMARK    4  A    between atoms: C_13  and  O_14
REMARK    5  A    between atoms: C_16  and  C_17
REMARK    6  A    between atoms: C_22  and  C_24
REMARK                            x       y       z     vdW  Elec       q    Type
REMARK                         _______ _______ _______ _____ _____    ______ ____
ROOT
ATOM      1  N   UNL     1       1.880   7.733  19.244  0.00  0.00    +0.000 N 
ATOM      2  N   UNL     1       1.836   6.843  20.267  0.00  0.00    +0.000 NA
ATOM      3  N   UNL     1       1.416   7.497  21.352  0.00  0.00    +0.000 NA
ATOM      4  C   UNL     1       1.214   8.806  21.005  0.00  0.00    +0.000 A 
ATOM      5  C   UNL     1       0.882   9.967  21.694  0.00  0.00    +0.000 A 
ATOM      6  N   UNL     1       0.801  11.148  21.041  0.00  0.00    +0.000 NA
ATOM      7  C   UNL     1       1.052  11.166  19.710  0.00  0.00    +0.000 A 
ATOM      8  N   UNL     1       1.368  10.094  18.955  0.00  0.00    +0.000 NA
ATOM      9  C   UNL     1       1.448   8.962  19.659  0.00  0.00    +0.000 A 
ENDROOT
BRANCH   7  10
ATOM     10  C   UNL     1       1.119  12.524  19.032  0.00  0.00    +0.000 C 
ATOM     11  C   UNL     1       1.753  13.623  19.908  0.00  0.00    +0.000 C 
ATOM     12  C   UNL     1       0.851  14.086  21.049  0.00  0.00    +0.000 C 
ATOM     13  C   UNL     1      -0.582  14.346  20.607  0.00  0.00    +0.000 C 
ATOM     14  N   UNL     1      -1.135  13.297  19.740  0.00  0.00    +0.000 N 
ATOM     15  C   UNL     1      -2.293  12.524  19.971  0.00  0.00    +0.000 C 
ATOM     16  O   UNL     1      -2.624  11.575  19.273  0.00  0.00    +0.000 OA
ATOM     17  C   UNL     1      -0.295  12.937  18.592  0.00  0.00    +0.000 C 
BRANCH  15  18
ATOM     18  C   UNL     1      -3.128  12.817  21.168  0.00  0.00    +0.000 A 
ATOM     19  C   UNL     1      -2.718  12.464  22.456  0.00  0.00    +0.000 A 
ATOM     20  C   UNL     1      -3.627  12.495  23.512  0.00  0.00    +0.000 A 
ATOM     21  C   UNL     1      -4.903  13.006  23.296  0.00  0.00    +0.000 A 
ATOM     22  F   UNL     1      -5.783  13.018  24.304  0.00  0.00    +0.000 F 
ATOM     23  C   UNL     1      -5.277  13.499  22.052  0.00  0.00    +0.000 A 
ATOM     24  C   UNL     1      -4.387  13.408  20.977  0.00  0.00    +0.000 A 
ENDBRANCH  15  18
ENDBRANCH   7  10
BRANCH   5  25
ATOM     25  O   UNL     1       0.683  10.006  23.052  0.00  0.00    +0.000 OA
ATOM     26  H   UNL     1      -0.034  10.646  23.198  0.00  0.00    +0.000 HD
ENDBRANCH   5  25
BRANCH   1  27
ATOM     27  C   UNL     1       2.659   7.469  18.041  0.00  0.00    +0.000 C 
BRANCH  27  34
ATOM     28  C   UNL     1       5.522   6.493  17.449  0.00  0.00    +0.000 C 
ATOM     29  C   UNL     1       4.326   5.579  17.518  0.00  0.00    +0.000 A 
ATOM     30  C   UNL     1       4.537   4.225  17.200  0.00  0.00    +0.000 A 
ATOM     31  C   UNL     1       3.490   3.305  17.218  0.00  0.00    +0.000 A 
ATOM     32  C   UNL     1       2.209   3.727  17.537  0.00  0.00    +0.000 A 
ATOM     33  C   UNL     1       1.974   5.069  17.825  0.00  0.00    +0.000 A 
ATOM     34  C   UNL     1       3.018   6.017  17.825  0.00  0.00    +0.000 A 
ENDBRANCH  27  34
ENDBRANCH   1  27
TORSDOF 5
ENDMDL
MODEL 4
REMARK VINA RESULT:      -7.7      8.618     13.336
REMARK  Name = 
REMARK  6 active torsions:
REMARK  status: ('A' for Active; 'I' for Inactive)
REMARK    1  A    between atoms: C_1  and  C_2
REMARK    2  A    between atoms: C_7  and  C_8
REMARK    3  A    between atoms: C_8  and  N_9
REMARK    4  A    between atoms: C_13  and  O_14
REMARK    5  A    between atoms: C_16  and  C_17
REMARK    6  A    between atoms: C_22  and  C_24
REMARK                            x       y       z     vdW  Elec       q    Type
REMARK                         _______ _______ _______ _____ _____    ______ ____
ROOT
ATOM      1  N   UNL     1      -3.550  13.872  23.245  0.00  0.00    +0.000 N 
ATOM      2  N   UNL     1      -4.311  12.984  23.933  0.00  0.00    +0.000 NA
ATOM      3  N   UNL     1      -3.603  11.859  24.059  0.00  0.00    +0.000 NA
ATOM      4  C   UNL     1      -2.400  12.044  23.431  0.00  0.00    +0.000 A 
ATOM      5  C   UNL     1      -1.306  11.236  23.142  0.00  0.00    +0.000 A 
ATOM      6  N   UNL     1      -0.259  11.730  22.444  0.00  0.00    +0.000 NA
ATOM      7  C   UNL     1      -0.308  13.021  22.038  0.00  0.00    +0.000 A 
ATOM      8  N   UNL     1      -1.317  13.884  22.280  0.00  0.00    +0.000 NA
ATOM      9  C   UNL     1      -2.326  13.333  22.959  0.00  0.00    +0.000 A 
ENDROOT
BRANCH   7  10
ATOM     10  C   UNL     1       0.798  13.504  21.116  0.00  0.00    +0.000 C 
ATOM     11  C   UNL     1       0.444  14.792  20.346  0.00  0.00    +0.000 C 
ATOM     12  C   UNL     1      -0.575  14.573  19.231  0.00  0.00    +0.000 C 
ATOM     13  C   UNL     1      -0.260  13.360  18.367  0.00  0.00    +0.000 C 
ATOM     14  N   UNL     1       0.114  12.166  19.137  0.00  0.00    +0.000 N 
ATOM     15  C   UNL     1      -0.516  10.903  19.109  0.00  0.00    +0.000 C 
ATOM     16  O   UNL     1      -0.237   9.989  19.874  0.00  0.00    +0.000 OA
ATOM     17  C   UNL     1       1.167  12.378  20.136  0.00  0.00    +0.000 C 
BRANCH  15  18
ATOM     18  C   UNL     1      -1.637  10.678  18.156  0.00  0.00    +0.000 A 
ATOM     19  C   UNL     1      -1.498   9.850  17.038  0.00  0.00    +0.000 A 
ATOM     20  C   UNL     1      -2.455   9.878  16.025  0.00  0.00    +0.000 A 
ATOM     21  C   UNL     1      -3.610  10.633  16.201  0.00  0.00    +0.000 A 
ATOM     22  F   UNL     1      -4.520  10.676  15.221  0.00  0.00    +0.000 F 
ATOM     23  C   UNL     1      -3.830  11.345  17.374  0.00  0.00    +0.000 A 
ATOM     24  C   UNL     1      -2.841  11.370  18.362  0.00  0.00    +0.000 A 
ENDBRANCH  15  18
ENDBRANCH   7  10
BRANCH   5  25
ATOM     25  O   UNL     1      -1.243   9.906  23.479  0.00  0.00    +0.000 OA
ATOM     26  H   UNL     1      -1.815   9.801  24.257  0.00  0.00    +0.000 HD
ENDBRANCH   5  25
BRANCH   1  27
ATOM     27  C   UNL     1      -4.142  15.030  22.588  0.00  0.00    +0.000 C 
BRANCH  27  34
ATOM     28  C   UNL     1      -2.282  17.285  21.609  0.00  0.00    +0.000 C 
ATOM     29  C   UNL     1      -3.075  17.353  22.888  0.00  0.00    +0.000 A 
ATOM     30  C   UNL     1      -2.868  18.477  23.710  0.00  0.00    +0.000 A 
ATOM     31  C   UNL     1      -3.541  18.622  24.921  0.00  0.00    +0.000 A 
ATOM     32  C   UNL     1      -4.422  17.637  25.341  0.00  0.00    +0.000 A 
ATOM     33  C   UNL     1      -4.617  16.503  24.558  0.00  0.00    +0.000 A 
ATOM     34  C   UNL     1      -3.957  16.337  23.323  0.00  0.00    +0.000 A 
ENDBRANCH  27  34
ENDBRANCH   1  27
TORSDOF 5
ENDMDL
MODEL 5
REMARK VINA RESULT:      -7.7      4.840      8.309
REMARK  Name = 
REMARK  6 active torsions:
REMARK  status: ('A' for Active; 'I' for Inactive)
REMARK    1  A    between atoms: C_1  and  C_2
REMARK    2  A    between atoms: C_7  and  C_8
REMARK    3  A    between atoms: C_8  and  N_9
REMARK    4  A    between atoms: C_13  and  O_14
REMARK    5  A    between atoms: C_16  and  C_17
REMARK    6  A    between atoms: C_22  and  C_24
REMARK                            x       y       z     vdW  Elec       q    Type
REMARK                         _______ _______ _______ _____ _____    ______ ____
ROOT
ATOM      1  N   UNL     1       1.831   7.602  19.341  0.00  0.00    +0.000 N 
ATOM      2  N   UNL     1       1.753   6.771  20.411  0.00  0.00    +0.000 NA
ATOM      3  N   UNL     1       1.315   7.488  21.448  0.00  0.00    +0.000 NA
ATOM      4  C   UNL     1       1.135   8.777  21.024  0.00  0.00    +0.000 A 
ATOM      5  C   UNL     1       0.799   9.978  21.640  0.00  0.00    +0.000 A 
ATOM      6  N   UNL     1       0.745  11.122  20.921  0.00  0.00    +0.000 NA
ATOM      7  C   UNL     1       1.028  11.064  19.598  0.00  0.00    +0.000 A 
ATOM      8  N   UNL     1       1.350   9.948  18.910  0.00  0.00    +0.000 NA
ATOM      9  C   UNL     1       1.402   8.856  19.677  0.00  0.00    +0.000 A 
ENDROOT
BRANCH   7  10
ATOM     10  C   UNL     1       1.124  12.381  18.847  0.00  0.00    +0.000 C 
ATOM     11  C   UNL     1       1.800  13.506  19.656  0.00  0.00    +0.000 C 
ATOM     12  C   UNL     1       0.926  14.055  20.782  0.00  0.00    +0.000 C 
ATOM     13  C   UNL     1      -0.504  14.333  20.342  0.00  0.00    +0.000 C 
ATOM     14  N   UNL     1      -1.097  13.256  19.538  0.00  0.00    +0.000 N 
ATOM     15  C   UNL     1      -2.274  12.530  19.823  0.00  0.00    +0.000 C 
ATOM     16  O   UNL     1      -2.641  11.555  19.181  0.00  0.00    +0.000 OA
ATOM     17  C   UNL     1      -0.283  12.812  18.402  0.00  0.00    +0.000 C 
BRANCH  15  18
ATOM     18  C   UNL     1      -3.085  12.910  21.013  0.00  0.00    +0.000 A 
ATOM     19  C   UNL     1      -2.756  12.474  22.299  0.00  0.00    +0.000 A 
ATOM     20  C   UNL     1      -3.674  12.608  23.339  0.00  0.00    +0.000 A 
ATOM     21  C   UNL     1      -4.861  13.299  23.113  0.00  0.00    +0.000 A 
ATOM     22  F   UNL     1      -5.751  13.410  24.105  0.00  0.00    +0.000 F 
ATOM     23  C   UNL     1      -5.135  13.868  21.875  0.00  0.00    +0.000 A 
ATOM     24  C   UNL     1      -4.245  13.676  20.815  0.00  0.00    +0.000 A 
ENDBRANCH  15  18
ENDBRANCH   7  10
BRANCH   5  25
ATOM     25  O   UNL     1       0.567  10.093  22.988  0.00  0.00    +0.000 OA
ATOM     26  H   UNL     1      -0.001   9.342  23.226  0.00  0.00    +0.000 HD
ENDBRANCH   5  25
BRANCH   1  27
ATOM     27  C   UNL     1       2.636   7.266  18.174  0.00  0.00    +0.000 C 
BRANCH  27  34
ATOM     28  C   UNL     1       1.468   4.471  17.600  0.00  0.00    +0.000 C 
ATOM     29  C   UNL     1       2.880   4.706  18.072  0.00  0.00    +0.000 A 
ATOM     30  C   UNL     1       3.660   3.567  18.347  0.00  0.00    +0.000 A 
ATOM     31  C   UNL     1       4.970   3.680  18.805  0.00  0.00    +0.000 A 
ATOM     32  C   UNL     1       5.521   4.935  19.013  0.00  0.00    +0.000 A 
ATOM     33  C   UNL     1       4.756   6.074  18.776  0.00  0.00    +0.000 A 
ATOM     34  C   UNL     1       3.431   5.987  18.301  0.00  0.00    +0.000 A 
ENDBRANCH  27  34
ENDBRANCH   1  27
TORSDOF 5
ENDMDL
MODEL 6
REMARK VINA RESULT:      -7.7      6.805     12.524
REMARK  Name = 
REMARK  6 active torsions:
REMARK  status: ('A' for Active; 'I' for Inactive)
REMARK    1  A    between atoms: C_1  and  C_2
REMARK    2  A    between atoms: C_7  and  C_8
REMARK    3  A    between atoms: C_8  and  N_9
REMARK    4  A    between atoms: C_13  and  O_14
REMARK    5  A    between atoms: C_16  and  C_17
REMARK    6  A    between atoms: C_22  and  C_24
REMARK                            x       y       z     vdW  Elec       q    Type
REMARK                         _______ _______ _______ _____ _____    ______ ____
ROOT
ATOM      1  N   UNL     1      -5.667  12.319  18.907  0.00  0.00    +0.000 N 
ATOM      2  N   UNL     1      -6.094  11.668  17.796  0.00  0.00    +0.000 NA
ATOM      3  N   UNL     1      -5.018  11.174  17.180  0.00  0.00    +0.000 NA
ATOM      4  C   UNL     1      -3.914  11.536  17.903  0.00  0.00    +0.000 A 
ATOM      5  C   UNL     1      -2.539  11.411  17.730  0.00  0.00    +0.000 A 
ATOM      6  N   UNL     1      -1.687  11.933  18.641  0.00  0.00    +0.000 NA
ATOM      7  C   UNL     1      -2.207  12.575  19.714  0.00  0.00    +0.000 A 
ATOM      8  N   UNL     1      -3.521  12.736  19.975  0.00  0.00    +0.000 NA
ATOM      9  C   UNL     1      -4.310  12.213  19.032  0.00  0.00    +0.000 A 
ENDROOT
BRANCH   7  10
ATOM     10  C   UNL     1      -1.235  13.295  20.633  0.00  0.00    +0.000 C 
ATOM     11  C   UNL     1      -0.186  14.142  19.884  0.00  0.00    +0.000 C 
ATOM     12  C   UNL     1       0.883  13.306  19.184  0.00  0.00    +0.000 C 
ATOM     13  C   UNL     1       1.443  12.199  20.065  0.00  0.00    +0.000 C 
ATOM     14  N   UNL     1       0.416  11.444  20.794  0.00  0.00    +0.000 N 
ATOM     15  C   UNL     1       0.180  10.053  20.737  0.00  0.00    +0.000 C 
ATOM     16  O   UNL     1      -0.778   9.505  21.267  0.00  0.00    +0.000 OA
ATOM     17  C   UNL     1      -0.543  12.265  21.541  0.00  0.00    +0.000 C 
BRANCH  15  18
ATOM     18  C   UNL     1       1.093   9.200  19.927  0.00  0.00    +0.000 A 
ATOM     19  C   UNL     1       1.367   9.480  18.586  0.00  0.00    +0.000 A 
ATOM     20  C   UNL     1       1.991   8.525  17.786  0.00  0.00    +0.000 A 
ATOM     21  C   UNL     1       2.456   7.350  18.367  0.00  0.00    +0.000 A 
ATOM     22  F   UNL     1       3.037   6.423  17.597  0.00  0.00    +0.000 F 
ATOM     23  C   UNL     1       2.322   7.123  19.732  0.00  0.00    +0.000 A 
ATOM     24  C   UNL     1       1.638   8.051  20.522  0.00  0.00    +0.000 A 
ENDBRANCH  15  18
ENDBRANCH   7  10
BRANCH   5  25
ATOM     25  O   UNL     1      -1.970  10.825  16.627  0.00  0.00    +0.000 OA
ATOM     26  H   UNL     1      -2.445   9.987  16.495  0.00  0.00    +0.000 HD
ENDBRANCH   5  25
BRANCH   1  27
ATOM     27  C   UNL     1      -6.507  13.300  19.583  0.00  0.00    +0.000 C 
BRANCH  27  34
ATOM     28  C   UNL     1      -7.917  10.832  20.777  0.00  0.00    +0.000 C 
ATOM     29  C   UNL     1      -7.355  11.957  21.608  0.00  0.00    +0.000 A 
ATOM     30  C   UNL     1      -7.580  11.900  22.996  0.00  0.00    +0.000 A 
ATOM     31  C   UNL     1      -7.116  12.902  23.846  0.00  0.00    +0.000 A 
ATOM     32  C   UNL     1      -6.432  13.988  23.322  0.00  0.00    +0.000 A 
ATOM     33  C   UNL     1      -6.226  14.078  21.948  0.00  0.00    +0.000 A 
ATOM     34  C   UNL     1      -6.676  13.072  21.067  0.00  0.00    +0.000 A 
ENDBRANCH  27  34
ENDBRANCH   1  27
TORSDOF 5
ENDMDL
MODEL 7
REMARK VINA RESULT:      -7.7      8.389     11.033
REMARK  Name = 
REMARK  6 active torsions:
REMARK  status: ('A' for Active; 'I' for Inactive)
REMARK    1  A    between atoms: C_1  and  C_2
REMARK    2  A    between atoms: C_7  and  C_8
REMARK    3  A    between atoms: C_8  and  N_9
REMARK    4  A    between atoms: C_13  and  O_14
REMARK    5  A    between atoms: C_16  and  C_17
REMARK    6  A    between atoms: C_22  and  C_24
REMARK                            x       y       z     vdW  Elec       q    Type
REMARK                         _______ _______ _______ _____ _____    ______ ____
ROOT
ATOM      1  N   UNL     1      -0.904  10.925  19.109  0.00  0.00    +0.000 N 
ATOM      2  N   UNL     1       0.074  10.091  18.674  0.00  0.00    +0.000 NA
ATOM      3  N   UNL     1       0.716   9.629  19.750  0.00  0.00    +0.000 NA
ATOM      4  C   UNL     1       0.145  10.193  20.858  0.00  0.00    +0.000 A 
ATOM      5  C   UNL     1       0.422  10.184  22.221  0.00  0.00    +0.000 A 
ATOM      6  N   UNL     1      -0.337  10.906  23.076  0.00  0.00    +0.000 NA
ATOM      7  C   UNL     1      -1.363  11.632  22.571  0.00  0.00    +0.000 A 
ATOM      8  N   UNL     1      -1.717  11.694  21.270  0.00  0.00    +0.000 NA
ATOM      9  C   UNL     1      -0.921  10.973  20.475  0.00  0.00    +0.000 A 
ENDROOT
BRANCH   7  10
ATOM     10  C   UNL     1      -2.094  12.562  23.523  0.00  0.00    +0.000 C 
ATOM     11  C   UNL     1      -3.508  12.949  23.045  0.00  0.00    +0.000 C 
ATOM     12  C   UNL     1      -3.507  13.928  21.873  0.00  0.00    +0.000 C 
ATOM     13  C   UNL     1      -2.542  15.088  22.068  0.00  0.00    +0.000 C 
ATOM     14  N   UNL     1      -1.220  14.682  22.565  0.00  0.00    +0.000 N 
ATOM     15  C   UNL     1       0.029  14.915  21.949  0.00  0.00    +0.000 C 
ATOM     16  O   UNL     1       1.081  14.434  22.348  0.00  0.00    +0.000 OA
ATOM     17  C   UNL     1      -1.242  13.821  23.752  0.00  0.00    +0.000 C 
BRANCH  15  18
ATOM     18  C   UNL     1       0.077  15.726  20.701  0.00  0.00    +0.000 A 
ATOM     19  C   UNL     1       0.185  17.118  20.731  0.00  0.00    +0.000 A 
ATOM     20  C   UNL     1      -0.052  17.862  19.576  0.00  0.00    +0.000 A 
ATOM     21  C   UNL     1      -0.262  17.199  18.371  0.00  0.00    +0.000 A 
ATOM     22  F   UNL     1      -0.509  17.912  17.266  0.00  0.00    +0.000 F 
ATOM     23  C   UNL     1      -0.223  15.812  18.300  0.00  0.00    +0.000 A 
ATOM     24  C   UNL     1      -0.052  15.065  19.469  0.00  0.00    +0.000 A 
ENDBRANCH  15  18
ENDBRANCH   7  10
BRANCH   5  25
ATOM     25  O   UNL     1       1.489   9.515  22.768  0.00  0.00    +0.000 OA
ATOM     26  H   UNL     1       2.253  10.108  22.672  0.00  0.00    +0.000 HD
ENDBRANCH   5  25
BRANCH   1  27
ATOM     27  C   UNL     1      -1.523  11.899  18.219  0.00  0.00    +0.000 C 
BRANCH  27  34
ATOM     28  C   UNL     1      -2.657  10.696  15.617  0.00  0.00    +0.000 C 
ATOM     29  C   UNL     1      -3.515  11.164  16.763  0.00  0.00    +0.000 A 
ATOM     30  C   UNL     1      -4.910  11.127  16.576  0.00  0.00    +0.000 A 
ATOM     31  C   UNL     1      -5.786  11.555  17.571  0.00  0.00    +0.000 A 
ATOM     32  C   UNL     1      -5.283  12.045  18.766  0.00  0.00    +0.000 A 
ATOM     33  C   UNL     1      -3.907  12.120  18.959  0.00  0.00    +0.000 A 
ATOM     34  C   UNL     1      -2.999  11.683  17.973  0.00  0.00    +0.000 A 
ENDBRANCH  27  34
ENDBRANCH   1  27
TORSDOF 5
ENDMDL
MODEL 8
REMARK VINA RESULT:      -7.6      4.724      7.982
REMARK  Name = 
REMARK  6 active torsions:
REMARK  status: ('A' for Active; 'I' for Inactive)
REMARK    1  A    between atoms: C_1  and  C_2
REMARK    2  A    between atoms: C_7  and  C_8
REMARK    3  A    between atoms: C_8  and  N_9
REMARK    4  A    between atoms: C_13  and  O_14
REMARK    5  A    between atoms: C_16  and  C_17
REMARK    6  A    between atoms: C_22  and  C_24
REMARK                            x       y       z     vdW  Elec       q    Type
REMARK                         _______ _______ _______ _____ _____    ______ ____
ROOT
ATOM      1  N   UNL     1       1.771   7.849  19.478  0.00  0.00    +0.000 N 
ATOM      2  N   UNL     1       1.673   6.851  20.392  0.00  0.00    +0.000 NA
ATOM      3  N   UNL     1       1.232   7.389  21.531  0.00  0.00    +0.000 NA
ATOM      4  C   UNL     1       1.070   8.733  21.329  0.00  0.00    +0.000 A 
ATOM      5  C   UNL     1       0.741   9.818  22.135  0.00  0.00    +0.000 A 
ATOM      6  N   UNL     1       0.708  11.066  21.618  0.00  0.00    +0.000 NA
ATOM      7  C   UNL     1       1.003  11.228  20.306  0.00  0.00    +0.000 A 
ATOM      8  N   UNL     1       1.321  10.240  19.444  0.00  0.00    +0.000 NA
ATOM      9  C   UNL     1       1.352   9.034  20.017  0.00  0.00    +0.000 A 
ENDROOT
BRANCH   7  10
ATOM     10  C   UNL     1       1.122  12.651  19.789  0.00  0.00    +0.000 C 
ATOM     11  C   UNL     1       0.735  13.722  20.829  0.00  0.00    +0.000 C 
ATOM     12  C   UNL     1      -0.767  13.799  21.092  0.00  0.00    +0.000 C 
ATOM     13  C   UNL     1      -1.595  13.796  19.816  0.00  0.00    +0.000 C 
ATOM     14  N   UNL     1      -1.168  12.790  18.834  0.00  0.00    +0.000 N 
ATOM     15  C   UNL     1      -1.951  11.753  18.282  0.00  0.00    +0.000 C 
ATOM     16  O   UNL     1      -1.498  10.867  17.569  0.00  0.00    +0.000 OA
ATOM     17  C   UNL     1       0.264  12.800  18.521  0.00  0.00    +0.000 C 
BRANCH  15  18
ATOM     18  C   UNL     1      -3.395  11.672  18.637  0.00  0.00    +0.000 A 
ATOM     19  C   UNL     1      -4.324  11.041  17.806  0.00  0.00    +0.000 A 
ATOM     20  C   UNL     1      -5.689  11.221  18.021  0.00  0.00    +0.000 A 
ATOM     21  C   UNL     1      -6.114  11.923  19.144  0.00  0.00    +0.000 A 
ATOM     22  F   UNL     1      -7.424  12.114  19.340  0.00  0.00    +0.000 F 
ATOM     23  C   UNL     1      -5.201  12.430  20.061  0.00  0.00    +0.000 A 
ATOM     24  C   UNL     1      -3.831  12.306  19.811  0.00  0.00    +0.000 A 
ENDBRANCH  15  18
ENDBRANCH   7  10
BRANCH   5  25
ATOM     25  O   UNL     1       0.497   9.707  23.482  0.00  0.00    +0.000 OA
ATOM     26  H   UNL     1       0.591   8.764  23.693  0.00  0.00    +0.000 HD
ENDBRANCH   5  25
BRANCH   1  27
ATOM     27  C   UNL     1       2.584   7.703  18.278  0.00  0.00    +0.000 C 
BRANCH  27  34
ATOM     28  C   UNL     1       5.384   6.871  17.292  0.00  0.00    +0.000 C 
ATOM     29  C   UNL     1       4.235   5.910  17.452  0.00  0.00    +0.000 A 
ATOM     30  C   UNL     1       4.448   4.583  17.033  0.00  0.00    +0.000 A 
ATOM     31  C   UNL     1       3.442   3.624  17.123  0.00  0.00    +0.000 A 
ATOM     32  C   UNL     1       2.196   3.979  17.618  0.00  0.00    +0.000 A 
ATOM     33  C   UNL     1       1.955   5.293  18.008  0.00  0.00    +0.000 A 
ATOM     34  C   UNL     1       2.960   6.280  17.938  0.00  0.00    +0.000 A 
ENDBRANCH  27  34
ENDBRANCH   1  27
TORSDOF 5
ENDMDL
MODEL 9
REMARK VINA RESULT:      -7.6      4.671      7.858
REMARK  Name = 
REMARK  6 active torsions:
REMARK  status: ('A' for Active; 'I' for Inactive)
REMARK    1  A    between atoms: C_1  and  C_2
REMARK    2  A    between atoms: C_7  and  C_8
REMARK    3  A    between atoms: C_8  and  N_9
REMARK    4  A    between atoms: C_13  and  O_14
REMARK    5  A    between atoms: C_16  and  C_17
REMARK    6  A    between atoms: C_22  and  C_24
REMARK                            x       y       z     vdW  Elec       q    Type
REMARK                         _______ _______ _______ _____ _____    ______ ____
ROOT
ATOM      1  N   UNL     1       2.272   7.045  19.539  0.00  0.00    +0.000 N 
ATOM      2  N   UNL     1       3.198   6.833  18.570  0.00  0.00    +0.000 NA
ATOM      3  N   UNL     1       3.333   7.972  17.887  0.00  0.00    +0.000 NA
ATOM      4  C   UNL     1       2.474   8.892  18.425  0.00  0.00    +0.000 A 
ATOM      5  C   UNL     1       2.092  10.190  18.100  0.00  0.00    +0.000 A 
ATOM      6  N   UNL     1       1.154  10.828  18.835  0.00  0.00    +0.000 NA
ATOM      7  C   UNL     1       0.602  10.173  19.884  0.00  0.00    +0.000 A 
ATOM      8  N   UNL     1       0.915   8.922  20.283  0.00  0.00    +0.000 NA
ATOM      9  C   UNL     1       1.835   8.340  19.510  0.00  0.00    +0.000 A 
ENDROOT
BRANCH   7  10
ATOM     10  C   UNL     1      -0.564  10.844  20.590  0.00  0.00    +0.000 C 
ATOM     11  C   UNL     1      -1.680  11.311  19.635  0.00  0.00    +0.000 C 
ATOM     12  C   UNL     1      -1.299  12.536  18.807  0.00  0.00    +0.000 C 
ATOM     13  C   UNL     1      -0.645  13.633  19.635  0.00  0.00    +0.000 C 
ATOM     14  N   UNL     1       0.383  13.142  20.563  0.00  0.00    +0.000 N 
ATOM     15  C   UNL     1       1.739  13.531  20.614  0.00  0.00    +0.000 C 
ATOM     16  O   UNL     1       2.574  12.986  21.324  0.00  0.00    +0.000 OA
ATOM     17  C   UNL     1      -0.037  12.028  21.419  0.00  0.00    +0.000 C 
BRANCH  15  18
ATOM     18  C   UNL     1       2.214  14.611  19.706  0.00  0.00    +0.000 A 
ATOM     19  C   UNL     1       1.884  15.952  19.920  0.00  0.00    +0.000 A 
ATOM     20  C   UNL     1       2.101  16.894  18.916  0.00  0.00    +0.000 A 
ATOM     21  C   UNL     1       2.771  16.511  17.758  0.00  0.00    +0.000 A 
ATOM     22  F   UNL     1       2.963  17.409  16.785  0.00  0.00    +0.000 F 
ATOM     23  C   UNL     1       3.238  15.212  17.596  0.00  0.00    +0.000 A 
ATOM     24  C   UNL     1       2.961  14.252  18.573  0.00  0.00    +0.000 A 
ENDBRANCH  15  18
ENDBRANCH   7  10
BRANCH   5  25
ATOM     25  O   UNL     1       2.578  10.867  17.009  0.00  0.00    +0.000 OA
ATOM     26  H   UNL     1       2.467  11.811  17.211  0.00  0.00    +0.000 HD
ENDBRANCH   5  25
BRANCH   1  27
ATOM     27  C   UNL     1       1.594   5.936  20.197  0.00  0.00    +0.000 C 
BRANCH  27  34
ATOM     28  C   UNL     1       2.105   3.301  21.714  0.00  0.00    +0.000 C 
ATOM     29  C   UNL     1       2.030   3.399  20.212  0.00  0.00    +0.000 A 
ATOM     30  C   UNL     1       2.304   2.228  19.481  0.00  0.00    +0.000 A 
ATOM     31  C   UNL     1       2.277   2.222  18.088  0.00  0.00    +0.000 A 
ATOM     32  C   UNL     1       1.994   3.391  17.399  0.00  0.00    +0.000 A 
ATOM     33  C   UNL     1       1.750   4.567  18.104  0.00  0.00    +0.000 A 
ATOM     34  C   UNL     1       1.760   4.598  19.514  0.00  0.00    +0.000 A 
ENDBRANCH  27  34
ENDBRANCH   1  27
TORSDOF 5
ENDMDL
