MODEL 1
REMARK VINA RESULT:      -5.8      0.000      0.000
REMARK  Name = 
REMARK  4 active torsions:
REMARK  status: ('A' for Active; 'I' for Inactive)
REMARK    1  A    between atoms: C_1  and  N_2
REMARK    2  A    between atoms: N_4  and  C_5
REMARK    3  A    between atoms: N_7  and  C_8
REMARK    4  A    between atoms: C_11  and  C_12
REMARK                            x       y       z     vdW  Elec       q    Type
REMARK                         _______ _______ _______ _____ _____    ______ ____
ROOT
ATOM      1  C   UNL     1       2.444   2.668  21.135  0.00  0.00    +0.000 C 
ATOM      2  N   UNL     1       2.996   3.648  20.216  0.00  0.00    +0.000 NA
ATOM      3  C   UNL     1       4.111   3.445  19.599  0.00  0.00    +0.000 C 
ATOM      4  N   UNL     1       5.008   2.405  19.651  0.00  0.00    +0.000 N 
ATOM      5  N   UNL     1       4.511   4.480  18.782  0.00  0.00    +0.000 N 
ATOM      6  H   UNL     1       5.857   2.572  19.133  0.00  0.00    +0.000 HD
ATOM      7  H   UNL     1       4.064   5.363  19.004  0.00  0.00    +0.000 HD
ENDROOT
BRANCH   5   8
ATOM      8  C   UNL     1       5.284   4.472  17.608  0.00  0.00    +0.000 A 
ATOM      9  C   UNL     1       6.634   4.848  17.587  0.00  0.00    +0.000 A 
ATOM     10  C   UNL     1       7.311   5.036  16.376  0.00  0.00    +0.000 A 
ATOM     11  C   UNL     1       6.651   4.829  15.162  0.00  0.00    +0.000 A 
ATOM     12  C   UNL     1       5.324   4.389  15.171  0.00  0.00    +0.000 A 
ATOM     13  C   UNL     1       4.651   4.207  16.385  0.00  0.00    +0.000 A 
BRANCH  11  14
ATOM     14  C   UNL     1       7.323   5.092  13.923  0.00  0.00    +0.000 C 
ATOM     15  N   UNL     1       7.881   5.325  12.932  0.00  0.00    +0.000 NA
ENDBRANCH  11  14
ENDBRANCH   5   8
BRANCH   4  16
ATOM     16  C   UNL     1       5.230   1.647  20.865  0.00  0.00    +0.000 C 
ATOM     17  N   UNL     1       5.338   0.995  21.810  0.00  0.00    +0.000 NA
ENDBRANCH   4  16
TORSDOF 3
ENDMDL
MODEL 2
REMARK VINA RESULT:      -5.7      0.693      1.369
REMARK  Name = 
REMARK  4 active torsions:
REMARK  status: ('A' for Active; 'I' for Inactive)
REMARK    1  A    between atoms: C_1  and  N_2
REMARK    2  A    between atoms: N_4  and  C_5
REMARK    3  A    between atoms: N_7  and  C_8
REMARK    4  A    between atoms: C_11  and  C_12
REMARK                            x       y       z     vdW  Elec       q    Type
REMARK                         _______ _______ _______ _____ _____    ______ ____
ROOT
ATOM      1  C   UNL     1       2.333   2.521  21.417  0.00  0.00    +0.000 C 
ATOM      2  N   UNL     1       2.727   3.660  20.606  0.00  0.00    +0.000 NA
ATOM      3  C   UNL     1       3.784   3.631  19.867  0.00  0.00    +0.000 C 
ATOM      4  N   UNL     1       4.743   2.664  19.682  0.00  0.00    +0.000 N 
ATOM      5  N   UNL     1       4.035   4.798  19.178  0.00  0.00    +0.000 N 
ATOM      6  H   UNL     1       5.524   2.966  19.118  0.00  0.00    +0.000 HD
ATOM      7  H   UNL     1       3.560   5.604  19.569  0.00  0.00    +0.000 HD
ENDROOT
BRANCH   5   8
ATOM      8  C   UNL     1       4.684   5.014  17.951  0.00  0.00    +0.000 A 
ATOM      9  C   UNL     1       4.352   4.312  16.784  0.00  0.00    +0.000 A 
ATOM     10  C   UNL     1       5.155   4.394  15.639  0.00  0.00    +0.000 A 
ATOM     11  C   UNL     1       6.294   5.203  15.637  0.00  0.00    +0.000 A 
ATOM     12  C   UNL     1       6.598   5.961  16.772  0.00  0.00    +0.000 A 
ATOM     13  C   UNL     1       5.794   5.870  17.915  0.00  0.00    +0.000 A 
BRANCH  11  14
ATOM     14  C   UNL     1       7.155   5.230  14.491  0.00  0.00    +0.000 C 
ATOM     15  N   UNL     1       7.863   5.275  13.572  0.00  0.00    +0.000 NA
ENDBRANCH  11  14
ENDBRANCH   5   8
BRANCH   4  16
ATOM     16  C   UNL     1       5.134   1.761  20.745  0.00  0.00    +0.000 C 
ATOM     17  N   UNL     1       5.445   1.112  21.646  0.00  0.00    +0.000 NA
ENDBRANCH   4  16
TORSDOF 3
ENDMDL
MODEL 3
REMARK VINA RESULT:      -5.6      2.741      3.677
REMARK  Name = 
REMARK  4 active torsions:
REMARK  status: ('A' for Active; 'I' for Inactive)
REMARK    1  A    between atoms: C_1  and  N_2
REMARK    2  A    between atoms: N_4  and  C_5
REMARK    3  A    between atoms: N_7  and  C_8
REMARK    4  A    between atoms: C_11  and  C_12
REMARK                            x       y       z     vdW  Elec       q    Type
REMARK                         _______ _______ _______ _____ _____    ______ ____
ROOT
ATOM      1  C   UNL     1       3.681   2.137  20.701  0.00  0.00    +0.000 C 
ATOM      2  N   UNL     1       4.714   2.573  19.779  0.00  0.00    +0.000 NA
ATOM      3  C   UNL     1       4.797   3.799  19.386  0.00  0.00    +0.000 C 
ATOM      4  N   UNL     1       4.016   4.899  19.652  0.00  0.00    +0.000 N 
ATOM      5  N   UNL     1       5.816   4.048  18.492  0.00  0.00    +0.000 N 
ATOM      6  H   UNL     1       4.262   5.714  19.111  0.00  0.00    +0.000 HD
ATOM      7  H   UNL     1       6.156   3.212  18.029  0.00  0.00    +0.000 HD
ENDROOT
BRANCH   5   8
ATOM      8  C   UNL     1       6.561   5.216  18.255  0.00  0.00    +0.000 A 
ATOM      9  C   UNL     1       7.671   5.577  19.031  0.00  0.00    +0.000 A 
ATOM     10  C   UNL     1       8.255   6.844  18.909  0.00  0.00    +0.000 A 
ATOM     11  C   UNL     1       7.749   7.765  17.988  0.00  0.00    +0.000 A 
ATOM     12  C   UNL     1       6.685   7.393  17.162  0.00  0.00    +0.000 A 
ATOM     13  C   UNL     1       6.102   6.126  17.292  0.00  0.00    +0.000 A 
BRANCH  11  14
ATOM     14  C   UNL     1       8.300   9.086  17.915  0.00  0.00    +0.000 C 
ATOM     15  N   UNL     1       8.722  10.165  17.847  0.00  0.00    +0.000 NA
ENDBRANCH  11  14
ENDBRANCH   5   8
BRANCH   4  16
ATOM     16  C   UNL     1       2.591   4.787  19.884  0.00  0.00    +0.000 C 
ATOM     17  N   UNL     1       1.454   4.638  20.004  0.00  0.00    +0.000 NA
ENDBRANCH   4  16
TORSDOF 3
ENDMDL
MODEL 4
REMARK VINA RESULT:      -5.6      3.480      6.236
REMARK  Name = 
REMARK  4 active torsions:
REMARK  status: ('A' for Active; 'I' for Inactive)
REMARK    1  A    between atoms: C_1  and  N_2
REMARK    2  A    between atoms: N_4  and  C_5
REMARK    3  A    between atoms: N_7  and  C_8
REMARK    4  A    between atoms: C_11  and  C_12
REMARK                            x       y       z     vdW  Elec       q    Type
REMARK                         _______ _______ _______ _____ _____    ______ ____
ROOT
ATOM      1  C   UNL     1       6.184   4.040  15.202  0.00  0.00    +0.000 C 
ATOM      2  N   UNL     1       4.885   4.130  15.844  0.00  0.00    +0.000 NA
ATOM      3  C   UNL     1       4.737   4.694  16.995  0.00  0.00    +0.000 C 
ATOM      4  N   UNL     1       5.644   5.262  17.858  0.00  0.00    +0.000 N 
ATOM      5  N   UNL     1       3.448   4.677  17.481  0.00  0.00    +0.000 N 
ATOM      6  H   UNL     1       5.249   5.531  18.747  0.00  0.00    +0.000 HD
ATOM      7  H   UNL     1       2.863   3.974  17.042  0.00  0.00    +0.000 HD
ENDROOT
BRANCH   5   8
ATOM      8  C   UNL     1       2.780   5.571  18.336  0.00  0.00    +0.000 A 
ATOM      9  C   UNL     1       2.673   6.942  18.065  0.00  0.00    +0.000 A 
ATOM     10  C   UNL     1       2.195   7.833  19.034  0.00  0.00    +0.000 A 
ATOM     11  C   UNL     1       1.793   7.361  20.286  0.00  0.00    +0.000 A 
ATOM     12  C   UNL     1       1.832   5.988  20.544  0.00  0.00    +0.000 A 
ATOM     13  C   UNL     1       2.315   5.102  19.573  0.00  0.00    +0.000 A 
BRANCH  11  14
ATOM     14  C   UNL     1       1.373   8.282  21.302  0.00  0.00    +0.000 C 
ATOM     15  N   UNL     1       1.059   9.029  22.132  0.00  0.00    +0.000 NA
ENDBRANCH  11  14
ENDBRANCH   5   8
BRANCH   4  16
ATOM     16  C   UNL     1       7.002   4.771  17.973  0.00  0.00    +0.000 C 
ATOM     17  N   UNL     1       8.108   4.447  18.014  0.00  0.00    +0.000 NA
ENDBRANCH   4  16
TORSDOF 3
ENDMDL
MODEL 5
REMARK VINA RESULT:      -5.5      1.342      2.508
REMARK  Name = 
REMARK  4 active torsions:
REMARK  status: ('A' for Active; 'I' for Inactive)
REMARK    1  A    between atoms: C_1  and  N_2
REMARK    2  A    between atoms: N_4  and  C_5
REMARK    3  A    between atoms: N_7  and  C_8
REMARK    4  A    between atoms: C_11  and  C_12
REMARK                            x       y       z     vdW  Elec       q    Type
REMARK                         _______ _______ _______ _____ _____    ______ ____
ROOT
ATOM      1  C   UNL     1       2.206   2.982  21.568  0.00  0.00    +0.000 C 
ATOM      2  N   UNL     1       3.476   3.038  20.866  0.00  0.00    +0.000 NA
ATOM      3  C   UNL     1       3.536   3.208  19.588  0.00  0.00    +0.000 C 
ATOM      4  N   UNL     1       2.553   3.329  18.635  0.00  0.00    +0.000 N 
ATOM      5  N   UNL     1       4.812   3.214  19.069  0.00  0.00    +0.000 N 
ATOM      6  H   UNL     1       2.902   3.343  17.688  0.00  0.00    +0.000 HD
ATOM      7  H   UNL     1       5.497   2.783  19.682  0.00  0.00    +0.000 HD
ENDROOT
BRANCH   5   8
ATOM      8  C   UNL     1       5.337   3.862  17.938  0.00  0.00    +0.000 A 
ATOM      9  C   UNL     1       4.728   3.800  16.677  0.00  0.00    +0.000 A 
ATOM     10  C   UNL     1       5.386   4.271  15.534  0.00  0.00    +0.000 A 
ATOM     11  C   UNL     1       6.659   4.836  15.639  0.00  0.00    +0.000 A 
ATOM     12  C   UNL     1       7.249   4.966  16.900  0.00  0.00    +0.000 A 
ATOM     13  C   UNL     1       6.588   4.488  18.039  0.00  0.00    +0.000 A 
BRANCH  11  14
ATOM     14  C   UNL     1       7.361   5.252  14.460  0.00  0.00    +0.000 C 
ATOM     15  N   UNL     1       7.953   5.585  13.519  0.00  0.00    +0.000 NA
ENDBRANCH  11  14
ENDBRANCH   5   8
BRANCH   4  16
ATOM     16  C   UNL     1       1.283   2.642  18.755  0.00  0.00    +0.000 C 
ATOM     17  N   UNL     1       0.259   2.111  18.766  0.00  0.00    +0.000 NA
ENDBRANCH   4  16
TORSDOF 3
ENDMDL
MODEL 6
REMARK VINA RESULT:      -5.5      2.243      6.423
REMARK  Name = 
REMARK  4 active torsions:
REMARK  status: ('A' for Active; 'I' for Inactive)
REMARK    1  A    between atoms: C_1  and  N_2
REMARK    2  A    between atoms: N_4  and  C_5
REMARK    3  A    between atoms: N_7  and  C_8
REMARK    4  A    between atoms: C_11  and  C_12
REMARK                            x       y       z     vdW  Elec       q    Type
REMARK                         _______ _______ _______ _____ _____    ______ ____
ROOT
ATOM      1  C   UNL     1       6.754   4.914  14.182  0.00  0.00    +0.000 C 
ATOM      2  N   UNL     1       6.130   3.930  15.047  0.00  0.00    +0.000 NA
ATOM      3  C   UNL     1       5.731   4.230  16.236  0.00  0.00    +0.000 C 
ATOM      4  N   UNL     1       5.804   5.398  16.957  0.00  0.00    +0.000 N 
ATOM      5  N   UNL     1       5.183   3.180  16.940  0.00  0.00    +0.000 N 
ATOM      6  H   UNL     1       5.502   5.306  17.916  0.00  0.00    +0.000 HD
ATOM      7  H   UNL     1       5.443   2.271  16.572  0.00  0.00    +0.000 HD
ENDROOT
BRANCH   5   8
ATOM      8  C   UNL     1       4.205   3.166  17.949  0.00  0.00    +0.000 A 
ATOM      9  C   UNL     1       4.159   4.120  18.974  0.00  0.00    +0.000 A 
ATOM     10  C   UNL     1       3.312   3.955  20.077  0.00  0.00    +0.000 A 
ATOM     11  C   UNL     1       2.477   2.838  20.160  0.00  0.00    +0.000 A 
ATOM     12  C   UNL     1       2.464   1.914  19.112  0.00  0.00    +0.000 A 
ATOM     13  C   UNL     1       3.317   2.082  18.014  0.00  0.00    +0.000 A 
BRANCH  11  14
ATOM     14  C   UNL     1       1.664   2.632  21.323  0.00  0.00    +0.000 C 
ATOM     15  N   UNL     1       1.024   2.479  22.279  0.00  0.00    +0.000 NA
ENDBRANCH  11  14
ENDBRANCH   5   8
BRANCH   4  16
ATOM     16  C   UNL     1       6.906   6.325  16.802  0.00  0.00    +0.000 C 
ATOM     17  N   UNL     1       7.738   7.120  16.726  0.00  0.00    +0.000 NA
ENDBRANCH   4  16
TORSDOF 3
ENDMDL
MODEL 7
REMARK VINA RESULT:      -5.5      3.258      5.624
REMARK  Name = 
REMARK  4 active torsions:
REMARK  status: ('A' for Active; 'I' for Inactive)
REMARK    1  A    between atoms: C_1  and  N_2
REMARK    2  A    between atoms: N_4  and  C_5
REMARK    3  A    between atoms: N_7  and  C_8
REMARK    4  A    between atoms: C_11  and  C_12
REMARK                            x       y       z     vdW  Elec       q    Type
REMARK                         _______ _______ _______ _____ _____    ______ ____
ROOT
ATOM      1  C   UNL     1       7.934   8.092  17.791  0.00  0.00    +0.000 C 
ATOM      2  N   UNL     1       6.883   7.399  17.069  0.00  0.00    +0.000 NA
ATOM      3  C   UNL     1       6.273   6.380  17.574  0.00  0.00    +0.000 C 
ATOM      4  N   UNL     1       6.440   5.712  18.764  0.00  0.00    +0.000 N 
ATOM      5  N   UNL     1       5.318   5.818  16.754  0.00  0.00    +0.000 N 
ATOM      6  H   UNL     1       5.885   4.873  18.843  0.00  0.00    +0.000 HD
ATOM      7  H   UNL     1       5.433   6.065  15.777  0.00  0.00    +0.000 HD
ENDROOT
BRANCH   5   8
ATOM      8  C   UNL     1       4.138   5.122  17.067  0.00  0.00    +0.000 A 
ATOM      9  C   UNL     1       3.070   5.712  17.758  0.00  0.00    +0.000 A 
ATOM     10  C   UNL     1       2.008   4.938  18.241  0.00  0.00    +0.000 A 
ATOM     11  C   UNL     1       1.986   3.559  18.019  0.00  0.00    +0.000 A 
ATOM     12  C   UNL     1       3.010   2.969  17.274  0.00  0.00    +0.000 A 
ATOM     13  C   UNL     1       4.073   3.748  16.797  0.00  0.00    +0.000 A 
BRANCH  11  14
ATOM     14  C   UNL     1       0.936   2.757  18.577  0.00  0.00    +0.000 C 
ATOM     15  N   UNL     1       0.077   2.130  19.041  0.00  0.00    +0.000 NA
ENDBRANCH  11  14
ENDBRANCH   5   8
BRANCH   4  16
ATOM     16  C   UNL     1       7.737   5.589  19.395  0.00  0.00    +0.000 C 
ATOM     17  N   UNL     1       8.735   5.525  19.970  0.00  0.00    +0.000 NA
ENDBRANCH   4  16
TORSDOF 3
ENDMDL
MODEL 8
REMARK VINA RESULT:      -5.4      3.613      6.374
REMARK  Name = 
REMARK  4 active torsions:
REMARK  status: ('A' for Active; 'I' for Inactive)
REMARK    1  A    between atoms: C_1  and  N_2
REMARK    2  A    between atoms: N_4  and  C_5
REMARK    3  A    between atoms: N_7  and  C_8
REMARK    4  A    between atoms: C_11  and  C_12
REMARK                            x       y       z     vdW  Elec       q    Type
REMARK                         _______ _______ _______ _____ _____    ______ ____
ROOT
ATOM      1  C   UNL     1       6.586   4.856  14.896  0.00  0.00    +0.000 C 
ATOM      2  N   UNL     1       5.279   5.011  15.508  0.00  0.00    +0.000 NA
ATOM      3  C   UNL     1       5.146   5.268  16.765  0.00  0.00    +0.000 C 
ATOM      4  N   UNL     1       6.072   5.411  17.772  0.00  0.00    +0.000 N 
ATOM      5  N   UNL     1       3.841   5.361  17.198  0.00  0.00    +0.000 N 
ATOM      6  H   UNL     1       5.665   5.503  18.691  0.00  0.00    +0.000 HD
ATOM      7  H   UNL     1       3.178   4.918  16.571  0.00  0.00    +0.000 HD
ENDROOT
BRANCH   5   8
ATOM      8  C   UNL     1       3.276   6.104  18.249  0.00  0.00    +0.000 A 
ATOM      9  C   UNL     1       2.910   5.528  19.473  0.00  0.00    +0.000 A 
ATOM     10  C   UNL     1       2.156   6.245  20.411  0.00  0.00    +0.000 A 
ATOM     11  C   UNL     1       1.776   7.563  20.146  0.00  0.00    +0.000 A 
ATOM     12  C   UNL     1       2.192   8.170  18.958  0.00  0.00    +0.000 A 
ATOM     13  C   UNL     1       2.942   7.446  18.022  0.00  0.00    +0.000 A 
BRANCH  11  14
ATOM     14  C   UNL     1       0.943   8.272  21.073  0.00  0.00    +0.000 C 
ATOM     15  N   UNL     1       0.285   8.867  21.821  0.00  0.00    +0.000 NA
ENDBRANCH  11  14
ENDBRANCH   5   8
BRANCH   4  16
ATOM     16  C   UNL     1       7.314   4.666  17.779  0.00  0.00    +0.000 C 
ATOM     17  N   UNL     1       8.345   4.148  17.771  0.00  0.00    +0.000 NA
ENDBRANCH   4  16
TORSDOF 3
ENDMDL
MODEL 9
REMARK VINA RESULT:      -5.4      1.578      1.861
REMARK  Name = 
REMARK  4 active torsions:
REMARK  status: ('A' for Active; 'I' for Inactive)
REMARK    1  A    between atoms: C_1  and  N_2
REMARK    2  A    between atoms: N_4  and  C_5
REMARK    3  A    between atoms: N_7  and  C_8
REMARK    4  A    between atoms: C_11  and  C_12
REMARK                            x       y       z     vdW  Elec       q    Type
REMARK                         _______ _______ _______ _____ _____    ______ ____
ROOT
ATOM      1  C   UNL     1       0.428   2.740  19.607  0.00  0.00    +0.000 C 
ATOM      2  N   UNL     1       1.065   3.719  18.746  0.00  0.00    +0.000 NA
ATOM      3  C   UNL     1       2.347   3.863  18.717  0.00  0.00    +0.000 C 
ATOM      4  N   UNL     1       3.352   3.248  19.424  0.00  0.00    +0.000 N 
ATOM      5  N   UNL     1       2.795   4.851  17.867  0.00  0.00    +0.000 N 
ATOM      6  H   UNL     1       4.266   3.646  19.266  0.00  0.00    +0.000 HD
ATOM      7  H   UNL     1       2.078   5.526  17.623  0.00  0.00    +0.000 HD
ENDROOT
BRANCH   5   8
ATOM      8  C   UNL     1       4.003   4.972  17.159  0.00  0.00    +0.000 A 
ATOM      9  C   UNL     1       4.634   6.204  16.940  0.00  0.00    +0.000 A 
ATOM     10  C   UNL     1       5.713   6.315  16.054  0.00  0.00    +0.000 A 
ATOM     11  C   UNL     1       6.193   5.185  15.388  0.00  0.00    +0.000 A 
ATOM     12  C   UNL     1       5.617   3.939  15.649  0.00  0.00    +0.000 A 
ATOM     13  C   UNL     1       4.535   3.835  16.533  0.00  0.00    +0.000 A 
BRANCH  11  14
ATOM     14  C   UNL     1       7.250   5.311  14.426  0.00  0.00    +0.000 C 
ATOM     15  N   UNL     1       8.111   5.437  13.659  0.00  0.00    +0.000 NA
ENDBRANCH  11  14
ENDBRANCH   5   8
BRANCH   4  16
ATOM     16  C   UNL     1       3.163   2.800  20.788  0.00  0.00    +0.000 C 
ATOM     17  N   UNL     1       2.926   2.448  21.861  0.00  0.00    +0.000 NA
ENDBRANCH   4  16
TORSDOF 3
ENDMDL
