MODEL 1
REMARK VINA RESULT:      -7.2      0.000      0.000
REMARK  Name = 
REMARK  22 active torsions:
REMARK  status: ('A' for Active; 'I' for Inactive)
REMARK    1  A    between atoms: C_2  and  C_3
REMARK    2  A    between atoms: C_3  and  C_4
REMARK    3  A    between atoms: C_3  and  O_19
REMARK    4  A    between atoms: C_5  and  C_6
REMARK    5  A    between atoms: C_7  and  C_8
REMARK    6  A    between atoms: C_8  and  O_9
REMARK    7  A    between atoms: C_8  and  C_10
REMARK    8  A    between atoms: C_11  and  C_12
REMARK    9  A    between atoms: C_12  and  C_13
REMARK   10  A    between atoms: C_13  and  C_14
REMARK   11  A    between atoms: C_14  and  C_15
REMARK   12  A    between atoms: C_15  and  C_16
REMARK   13  A    between atoms: C_16  and  C_17
REMARK   14  A    between atoms: C_17  and  C_18
REMARK   15  A    between atoms: O_19  and  C_20
REMARK   16  A    between atoms: C_20  and  C_21
REMARK   17  A    between atoms: C_24  and  O_25
REMARK   18  A    between atoms: C_26  and  C_27
REMARK   19  A    between atoms: C_30  and  C_31
REMARK   20  A    between atoms: C_31  and  C_32
REMARK   21  A    between atoms: C_31  and  C_33
REMARK   22  A    between atoms: C_34  and  O_35
REMARK                            x       y       z     vdW  Elec       q    Type
REMARK                         _______ _______ _______ _____ _____    ______ ____
ROOT
ATOM      1  O   UNL     1       8.827  12.396  19.617  0.00  0.00    +0.000 OA
ENDROOT
BRANCH   1   2
ATOM      2  C   UNL     1       9.026  13.094  20.896  0.00  0.00    +0.000 C 
ATOM      3  C   UNL     1      10.434  13.726  20.900  0.00  0.00    +0.000 C 
ATOM      4  C   UNL     1       8.847  12.068  22.050  0.00  0.00    +0.000 C 
ATOM      5  C   UNL     1       8.485  12.596  23.434  0.00  0.00    +0.000 C 
ATOM      6  C   UNL     1       7.375  13.641  23.414  0.00  0.00    +0.000 C 
ATOM      7  C   UNL     1       7.675  14.802  22.430  0.00  0.00    +0.000 C 
ATOM      8  C   UNL     1       8.922  15.591  22.906  0.00  0.00    +0.000 C 
ATOM      9  C   UNL     1       6.485  15.808  22.472  0.00  0.00    +0.000 C 
ATOM     10  C   UNL     1       6.469  16.816  21.325  0.00  0.00    +0.000 C 
ATOM     11  C   UNL     1       6.565  16.165  19.932  0.00  0.00    +0.000 C 
ATOM     12  C   UNL     1       7.854  15.282  19.906  0.00  0.00    +0.000 C 
ATOM     13  C   UNL     1       7.852  14.170  20.996  0.00  0.00    +0.000 C 
BRANCH  11  14
ATOM     14  C   UNL     1       5.223  15.475  19.492  0.00  0.00    +0.000 C 
ATOM     15  C   UNL     1       3.993  16.361  19.782  0.00  0.00    +0.000 C 
ATOM     16  C   UNL     1       5.185  15.132  17.998  0.00  0.00    +0.000 C 
ENDBRANCH  11  14
BRANCH  12  17
ATOM     17  O   UNL     1       8.089  14.794  18.593  0.00  0.00    +0.000 OA
ATOM     18  H   UNL     1       8.917  14.274  18.601  0.00  0.00    +0.000 HD
ENDBRANCH  12  17
BRANCH   6  19
ATOM     19  O   UNL     1       7.161  14.121  24.739  0.00  0.00    +0.000 OA
ATOM     20  H   UNL     1       6.350  13.717  25.089  0.00  0.00    +0.000 HD
ENDBRANCH   6  19
ENDBRANCH   1   2
BRANCH   1  21
ATOM     21  C   UNL     1       9.785  11.392  19.215  0.00  0.00    +0.000 C 
BRANCH  21  22
ATOM     22  C   UNL     1       9.170  10.127  18.820  0.00  0.00    +0.000 C 
ATOM     23  C   UNL     1       8.613   9.146  18.405  0.00  0.00    +0.000 C 
BRANCH  23  24
ATOM     24  C   UNL     1       7.869   7.968  17.803  0.00  0.00    +0.000 C 
ATOM     25  C   UNL     1       7.315   7.054  17.265  0.00  0.00    +0.000 C 
BRANCH  25  26
ATOM     26  C   UNL     1       6.702   5.923  16.567  0.00  0.00    +0.000 C 
BRANCH  26  27
ATOM     27  O   UNL     1       7.514   5.525  15.471  0.00  0.00    +0.000 OA
ATOM     28  H   UNL     1       6.980   5.649  14.674  0.00  0.00    +0.000 HD
ENDBRANCH  26  27
BRANCH  26  29
ATOM     29  C   UNL     1       6.537   4.751  17.491  0.00  0.00    +0.000 C 
ATOM     30  C   UNL     1       5.442   3.976  17.585  0.00  0.00    +0.000 C 
BRANCH  30  31
ATOM     31  C   UNL     1       4.206   4.218  16.757  0.00  0.00    +0.000 C 
BRANCH  31  32
ATOM     32  C   UNL     1       2.952   4.465  17.582  0.00  0.00    +0.000 C 
BRANCH  32  33
ATOM     33  C   UNL     1       2.915   5.932  18.010  0.00  0.00    +0.000 C 
BRANCH  33  34
ATOM     34  C   UNL     1       2.733   6.082  19.512  0.00  0.00    +0.000 C 
BRANCH  34  35
ATOM     35  C   UNL     1       2.758   4.717  20.197  0.00  0.00    +0.000 C 
BRANCH  35  36
ATOM     36  C   UNL     1       1.403   4.393  20.820  0.00  0.00    +0.000 C 
ATOM     37  C   UNL     1       1.224   2.895  20.998  0.00  0.00    +0.000 C 
ENDBRANCH  35  36
ENDBRANCH  34  35
ENDBRANCH  33  34
ENDBRANCH  32  33
ENDBRANCH  31  32
ENDBRANCH  30  31
ENDBRANCH  26  29
ENDBRANCH  25  26
ENDBRANCH  23  24
ENDBRANCH  21  22
BRANCH  21  39
ATOM     38  C   UNL     1      11.828  11.996  17.865  0.00  0.00    +0.000 C 
ATOM     39  C   UNL     1      10.497  11.868  17.977  0.00  0.00    +0.000 C 
ENDBRANCH  21  39
ENDBRANCH   1  21
TORSDOF 17
ENDMDL
MODEL 2
REMARK VINA RESULT:      -6.9      1.634      2.665
REMARK  Name = 
REMARK  22 active torsions:
REMARK  status: ('A' for Active; 'I' for Inactive)
REMARK    1  A    between atoms: C_2  and  C_3
REMARK    2  A    between atoms: C_3  and  C_4
REMARK    3  A    between atoms: C_3  and  O_19
REMARK    4  A    between atoms: C_5  and  C_6
REMARK    5  A    between atoms: C_7  and  C_8
REMARK    6  A    between atoms: C_8  and  O_9
REMARK    7  A    between atoms: C_8  and  C_10
REMARK    8  A    between atoms: C_11  and  C_12
REMARK    9  A    between atoms: C_12  and  C_13
REMARK   10  A    between atoms: C_13  and  C_14
REMARK   11  A    between atoms: C_14  and  C_15
REMARK   12  A    between atoms: C_15  and  C_16
REMARK   13  A    between atoms: C_16  and  C_17
REMARK   14  A    between atoms: C_17  and  C_18
REMARK   15  A    between atoms: O_19  and  C_20
REMARK   16  A    between atoms: C_20  and  C_21
REMARK   17  A    between atoms: C_24  and  O_25
REMARK   18  A    between atoms: C_26  and  C_27
REMARK   19  A    between atoms: C_30  and  C_31
REMARK   20  A    between atoms: C_31  and  C_32
REMARK   21  A    between atoms: C_31  and  C_33
REMARK   22  A    between atoms: C_34  and  O_35
REMARK                            x       y       z     vdW  Elec       q    Type
REMARK                         _______ _______ _______ _____ _____    ______ ____
ROOT
ATOM      1  O   UNL     1       9.507  13.643  18.828  0.00  0.00    +0.000 OA
ENDROOT
BRANCH   1   2
ATOM      2  C   UNL     1       9.682  14.841  19.664  0.00  0.00    +0.000 C 
ATOM      3  C   UNL     1      10.672  15.794  18.960  0.00  0.00    +0.000 C 
ATOM      4  C   UNL     1      10.200  14.395  21.061  0.00  0.00    +0.000 C 
ATOM      5  C   UNL     1       9.972  15.327  22.245  0.00  0.00    +0.000 C 
ATOM      6  C   UNL     1       8.558  15.895  22.308  0.00  0.00    +0.000 C 
ATOM      7  C   UNL     1       8.130  16.563  20.975  0.00  0.00    +0.000 C 
ATOM      8  C   UNL     1       9.017  17.804  20.697  0.00  0.00    +0.000 C 
ATOM      9  C   UNL     1       6.675  17.100  21.134  0.00  0.00    +0.000 C 
ATOM     10  C   UNL     1       5.993  17.476  19.820  0.00  0.00    +0.000 C 
ATOM     11  C   UNL     1       6.035  16.357  18.763  0.00  0.00    +0.000 C 
ATOM     12  C   UNL     1       7.530  15.962  18.544  0.00  0.00    +0.000 C 
ATOM     13  C   UNL     1       8.226  15.467  19.846  0.00  0.00    +0.000 C 
BRANCH  11  14
ATOM     14  C   UNL     1       5.030  15.190  19.077  0.00  0.00    +0.000 C 
ATOM     15  C   UNL     1       3.955  15.609  20.100  0.00  0.00    +0.000 C 
ATOM     16  C   UNL     1       4.291  14.682  17.833  0.00  0.00    +0.000 C 
ENDBRANCH  11  14
BRANCH  12  17
ATOM     17  O   UNL     1       7.646  15.057  17.456  0.00  0.00    +0.000 OA
ATOM     18  H   UNL     1       6.807  14.561  17.376  0.00  0.00    +0.000 HD
ENDBRANCH  12  17
BRANCH   6  19
ATOM     19  O   UNL     1       8.467  16.804  23.402  0.00  0.00    +0.000 OA
ATOM     20  H   UNL     1       8.548  16.303  24.231  0.00  0.00    +0.000 HD
ENDBRANCH   6  19
ENDBRANCH   1   2
BRANCH   1  21
ATOM     21  C   UNL     1      10.390  12.519  19.029  0.00  0.00    +0.000 C 
BRANCH  21  22
ATOM     22  C   UNL     1       9.728  11.225  18.877  0.00  0.00    +0.000 C 
ATOM     23  C   UNL     1       9.158  10.194  18.640  0.00  0.00    +0.000 C 
BRANCH  23  24
ATOM     24  C   UNL     1       8.420   8.928  18.242  0.00  0.00    +0.000 C 
ATOM     25  C   UNL     1       7.814   7.966  17.869  0.00  0.00    +0.000 C 
BRANCH  25  26
ATOM     26  C   UNL     1       7.093   6.807  17.341  0.00  0.00    +0.000 C 
BRANCH  26  27
ATOM     27  O   UNL     1       7.665   6.395  16.107  0.00  0.00    +0.000 OA
ATOM     28  H   UNL     1       8.484   6.899  16.002  0.00  0.00    +0.000 HD
ENDBRANCH  26  27
BRANCH  26  29
ATOM     29  C   UNL     1       7.150   5.658  18.305  0.00  0.00    +0.000 C 
ATOM     30  C   UNL     1       6.159   5.279  19.131  0.00  0.00    +0.000 C 
BRANCH  30  31
ATOM     31  C   UNL     1       4.840   6.003  19.198  0.00  0.00    +0.000 C 
BRANCH  31  32
ATOM     32  C   UNL     1       3.629   5.080  19.172  0.00  0.00    +0.000 C 
BRANCH  32  33
ATOM     33  C   UNL     1       3.123   4.959  17.735  0.00  0.00    +0.000 C 
BRANCH  33  34
ATOM     34  C   UNL     1       3.216   3.534  17.216  0.00  0.00    +0.000 C 
BRANCH  34  35
ATOM     35  C   UNL     1       4.579   3.283  16.573  0.00  0.00    +0.000 C 
BRANCH  35  36
ATOM     36  C   UNL     1       4.923   4.384  15.574  0.00  0.00    +0.000 C 
ATOM     37  C   UNL     1       6.024   3.943  14.626  0.00  0.00    +0.000 C 
ENDBRANCH  35  36
ENDBRANCH  34  35
ENDBRANCH  33  34
ENDBRANCH  32  33
ENDBRANCH  31  32
ENDBRANCH  30  31
ENDBRANCH  26  29
ENDBRANCH  25  26
ENDBRANCH  23  24
ENDBRANCH  21  22
BRANCH  21  39
ATOM     38  C   UNL     1      11.267  13.022  16.718  0.00  0.00    +0.000 C 
ATOM     39  C   UNL     1      11.444  12.530  17.954  0.00  0.00    +0.000 C 
ENDBRANCH  21  39
ENDBRANCH   1  21
TORSDOF 17
ENDMDL
MODEL 3
REMARK VINA RESULT:      -6.8      5.220      7.581
REMARK  Name = 
REMARK  22 active torsions:
REMARK  status: ('A' for Active; 'I' for Inactive)
REMARK    1  A    between atoms: C_2  and  C_3
REMARK    2  A    between atoms: C_3  and  C_4
REMARK    3  A    between atoms: C_3  and  O_19
REMARK    4  A    between atoms: C_5  and  C_6
REMARK    5  A    between atoms: C_7  and  C_8
REMARK    6  A    between atoms: C_8  and  O_9
REMARK    7  A    between atoms: C_8  and  C_10
REMARK    8  A    between atoms: C_11  and  C_12
REMARK    9  A    between atoms: C_12  and  C_13
REMARK   10  A    between atoms: C_13  and  C_14
REMARK   11  A    between atoms: C_14  and  C_15
REMARK   12  A    between atoms: C_15  and  C_16
REMARK   13  A    between atoms: C_16  and  C_17
REMARK   14  A    between atoms: C_17  and  C_18
REMARK   15  A    between atoms: O_19  and  C_20
REMARK   16  A    between atoms: C_20  and  C_21
REMARK   17  A    between atoms: C_24  and  O_25
REMARK   18  A    between atoms: C_26  and  C_27
REMARK   19  A    between atoms: C_30  and  C_31
REMARK   20  A    between atoms: C_31  and  C_32
REMARK   21  A    between atoms: C_31  and  C_33
REMARK   22  A    between atoms: C_34  and  O_35
REMARK                            x       y       z     vdW  Elec       q    Type
REMARK                         _______ _______ _______ _____ _____    ______ ____
ROOT
ATOM      1  O   UNL     1      -0.350  11.560  19.715  0.00  0.00    +0.000 OA
ENDROOT
BRANCH   1   2
ATOM      2  C   UNL     1       0.274  12.890  19.783  0.00  0.00    +0.000 C 
ATOM      3  C   UNL     1       0.164  13.559  18.397  0.00  0.00    +0.000 C 
ATOM      4  C   UNL     1       1.754  12.716  20.228  0.00  0.00    +0.000 C 
ATOM      5  C   UNL     1       2.458  13.907  20.870  0.00  0.00    +0.000 C 
ATOM      6  C   UNL     1       1.616  14.612  21.928  0.00  0.00    +0.000 C 
ATOM      7  C   UNL     1       0.212  15.006  21.399  0.00  0.00    +0.000 C 
ATOM      8  C   UNL     1       0.348  16.059  20.270  0.00  0.00    +0.000 C 
ATOM      9  C   UNL     1      -0.573  15.706  22.550  0.00  0.00    +0.000 C 
ATOM     10  C   UNL     1      -2.073  15.847  22.298  0.00  0.00    +0.000 C 
ATOM     11  C   UNL     1      -2.759  14.522  21.916  0.00  0.00    +0.000 C 
ATOM     12  C   UNL     1      -2.017  13.941  20.670  0.00  0.00    +0.000 C 
ATOM     13  C   UNL     1      -0.503  13.682  20.929  0.00  0.00    +0.000 C 
BRANCH  11  14
ATOM     14  C   UNL     1      -2.944  13.559  23.145  0.00  0.00    +0.000 C 
ATOM     15  C   UNL     1      -3.017  14.329  24.480  0.00  0.00    +0.000 C 
ATOM     16  C   UNL     1      -4.212  12.703  23.052  0.00  0.00    +0.000 C 
ENDBRANCH  11  14
BRANCH  12  17
ATOM     17  O   UNL     1      -2.712  12.810  20.166  0.00  0.00    +0.000 OA
ATOM     18  H   UNL     1      -2.057  12.182  19.802  0.00  0.00    +0.000 HD
ENDBRANCH  12  17
BRANCH   6  19
ATOM     19  O   UNL     1       2.330  15.746  22.414  0.00  0.00    +0.000 OA
ATOM     20  H   UNL     1       2.155  15.840  23.364  0.00  0.00    +0.000 HD
ENDBRANCH   6  19
ENDBRANCH   1   2
BRANCH   1  21
ATOM     21  C   UNL     1      -0.449  10.902  18.433  0.00  0.00    +0.000 C 
BRANCH  21  22
ATOM     22  C   UNL     1       0.682  10.023  18.141  0.00  0.00    +0.000 C 
ATOM     23  C   UNL     1       1.556   9.218  17.967  0.00  0.00    +0.000 C 
BRANCH  23  24
ATOM     24  C   UNL     1       2.604   8.131  17.805  0.00  0.00    +0.000 C 
ATOM     25  C   UNL     1       3.475   7.325  17.652  0.00  0.00    +0.000 C 
BRANCH  25  26
ATOM     26  C   UNL     1       4.590   6.392  17.486  0.00  0.00    +0.000 C 
BRANCH  26  27
ATOM     27  O   UNL     1       5.765   7.097  17.106  0.00  0.00    +0.000 OA
ATOM     28  H   UNL     1       6.210   7.352  17.926  0.00  0.00    +0.000 HD
ENDBRANCH  26  27
BRANCH  26  29
ATOM     29  C   UNL     1       4.866   5.657  18.766  0.00  0.00    +0.000 C 
ATOM     30  C   UNL     1       4.684   4.339  18.966  0.00  0.00    +0.000 C 
BRANCH  30  31
ATOM     31  C   UNL     1       4.147   3.424  17.896  0.00  0.00    +0.000 C 
BRANCH  31  32
ATOM     32  C   UNL     1       2.683   3.668  17.557  0.00  0.00    +0.000 C 
BRANCH  32  33
ATOM     33  C   UNL     1       1.848   2.494  18.066  0.00  0.00    +0.000 C 
BRANCH  33  34
ATOM     34  C   UNL     1       2.113   2.201  19.534  0.00  0.00    +0.000 C 
BRANCH  34  35
ATOM     35  C   UNL     1       1.152   2.990  20.422  0.00  0.00    +0.000 C 
BRANCH  35  36
ATOM     36  C   UNL     1       1.897   4.050  21.228  0.00  0.00    +0.000 C 
ATOM     37  C   UNL     1       1.658   5.439  20.663  0.00  0.00    +0.000 C 
ENDBRANCH  35  36
ENDBRANCH  34  35
ENDBRANCH  33  34
ENDBRANCH  32  33
ENDBRANCH  31  32
ENDBRANCH  30  31
ENDBRANCH  26  29
ENDBRANCH  25  26
ENDBRANCH  23  24
ENDBRANCH  21  22
BRANCH  21  39
ATOM     38  C   UNL     1      -2.625   9.998  17.533  0.00  0.00    +0.000 C 
ATOM     39  C   UNL     1      -1.644   9.985  18.448  0.00  0.00    +0.000 C 
ENDBRANCH  21  39
ENDBRANCH   1  21
TORSDOF 17
ENDMDL
MODEL 4
REMARK VINA RESULT:      -6.7      5.348      7.222
REMARK  Name = 
REMARK  22 active torsions:
REMARK  status: ('A' for Active; 'I' for Inactive)
REMARK    1  A    between atoms: C_2  and  C_3
REMARK    2  A    between atoms: C_3  and  C_4
REMARK    3  A    between atoms: C_3  and  O_19
REMARK    4  A    between atoms: C_5  and  C_6
REMARK    5  A    between atoms: C_7  and  C_8
REMARK    6  A    between atoms: C_8  and  O_9
REMARK    7  A    between atoms: C_8  and  C_10
REMARK    8  A    between atoms: C_11  and  C_12
REMARK    9  A    between atoms: C_12  and  C_13
REMARK   10  A    between atoms: C_13  and  C_14
REMARK   11  A    between atoms: C_14  and  C_15
REMARK   12  A    between atoms: C_15  and  C_16
REMARK   13  A    between atoms: C_16  and  C_17
REMARK   14  A    between atoms: C_17  and  C_18
REMARK   15  A    between atoms: O_19  and  C_20
REMARK   16  A    between atoms: C_20  and  C_21
REMARK   17  A    between atoms: C_24  and  O_25
REMARK   18  A    between atoms: C_26  and  C_27
REMARK   19  A    between atoms: C_30  and  C_31
REMARK   20  A    between atoms: C_31  and  C_32
REMARK   21  A    between atoms: C_31  and  C_33
REMARK   22  A    between atoms: C_34  and  O_35
REMARK                            x       y       z     vdW  Elec       q    Type
REMARK                         _______ _______ _______ _____ _____    ______ ____
ROOT
ATOM      1  O   UNL     1       0.652  11.801  20.616  0.00  0.00    +0.000 OA
ENDROOT
BRANCH   1   2
ATOM      2  C   UNL     1       0.636  12.892  19.630  0.00  0.00    +0.000 C 
ATOM      3  C   UNL     1      -0.410  12.562  18.543  0.00  0.00    +0.000 C 
ATOM      4  C   UNL     1       2.065  13.039  19.035  0.00  0.00    +0.000 C 
ATOM      5  C   UNL     1       2.453  14.375  18.412  0.00  0.00    +0.000 C 
ATOM      6  C   UNL     1       2.055  15.579  19.259  0.00  0.00    +0.000 C 
ATOM      7  C   UNL     1       0.553  15.555  19.651  0.00  0.00    +0.000 C 
ATOM      8  C   UNL     1      -0.327  15.686  18.381  0.00  0.00    +0.000 C 
ATOM      9  C   UNL     1       0.247  16.811  20.520  0.00  0.00    +0.000 C 
ATOM     10  C   UNL     1      -1.088  16.758  21.260  0.00  0.00    +0.000 C 
ATOM     11  C   UNL     1      -1.279  15.477  22.093  0.00  0.00    +0.000 C 
ATOM     12  C   UNL     1      -1.100  14.255  21.136  0.00  0.00    +0.000 C 
ATOM     13  C   UNL     1       0.296  14.219  20.448  0.00  0.00    +0.000 C 
BRANCH  11  14
ATOM     14  C   UNL     1      -0.422  15.478  23.411  0.00  0.00    +0.000 C 
ATOM     15  C   UNL     1       0.075  16.891  23.779  0.00  0.00    +0.000 C 
ATOM     16  C   UNL     1      -1.189  14.943  24.627  0.00  0.00    +0.000 C 
ENDBRANCH  11  14
BRANCH  12  17
ATOM     17  O   UNL     1      -1.436  13.050  21.810  0.00  0.00    +0.000 OA
ATOM     18  H   UNL     1      -1.290  13.180  22.768  0.00  0.00    +0.000 HD
ENDBRANCH  12  17
BRANCH   6  19
ATOM     19  O   UNL     1       2.395  16.774  18.562  0.00  0.00    +0.000 OA
ATOM     20  H   UNL     1       2.359  16.599  17.608  0.00  0.00    +0.000 HD
ENDBRANCH   6  19
ENDBRANCH   1   2
BRANCH   1  21
ATOM     21  C   UNL     1      -0.009  10.559  20.290  0.00  0.00    +0.000 C 
BRANCH  21  22
ATOM     22  C   UNL     1       0.805   9.664  19.470  0.00  0.00    +0.000 C 
ATOM     23  C   UNL     1       1.551   8.926  18.886  0.00  0.00    +0.000 C 
BRANCH  23  24
ATOM     24  C   UNL     1       2.559   7.995  18.235  0.00  0.00    +0.000 C 
ATOM     25  C   UNL     1       3.401   7.283  17.771  0.00  0.00    +0.000 C 
BRANCH  25  26
ATOM     26  C   UNL     1       4.456   6.398  17.275  0.00  0.00    +0.000 C 
BRANCH  26  27
ATOM     27  O   UNL     1       5.650   7.137  17.053  0.00  0.00    +0.000 OA
ATOM     28  H   UNL     1       5.538   7.593  16.207  0.00  0.00    +0.000 HD
ENDBRANCH  26  27
BRANCH  26  29
ATOM     29  C   UNL     1       4.744   5.305  18.263  0.00  0.00    +0.000 C 
ATOM     30  C   UNL     1       4.258   4.053  18.209  0.00  0.00    +0.000 C 
BRANCH  30  31
ATOM     31  C   UNL     1       3.320   3.595  17.122  0.00  0.00    +0.000 C 
BRANCH  31  32
ATOM     32  C   UNL     1       1.848   3.708  17.492  0.00  0.00    +0.000 C 
BRANCH  32  33
ATOM     33  C   UNL     1       1.486   2.579  18.457  0.00  0.00    +0.000 C 
BRANCH  33  34
ATOM     34  C   UNL     1       0.777   3.095  19.698  0.00  0.00    +0.000 C 
BRANCH  34  35
ATOM     35  C   UNL     1       1.624   2.845  20.945  0.00  0.00    +0.000 C 
BRANCH  35  36
ATOM     36  C   UNL     1       2.241   4.143  21.457  0.00  0.00    +0.000 C 
ATOM     37  C   UNL     1       1.735   5.340  20.671  0.00  0.00    +0.000 C 
ENDBRANCH  35  36
ENDBRANCH  34  35
ENDBRANCH  33  34
ENDBRANCH  32  33
ENDBRANCH  31  32
ENDBRANCH  30  31
ENDBRANCH  26  29
ENDBRANCH  25  26
ENDBRANCH  23  24
ENDBRANCH  21  22
BRANCH  21  39
ATOM     38  C   UNL     1      -0.424   8.460  21.626  0.00  0.00    +0.000 C 
ATOM     39  C   UNL     1      -0.250   9.789  21.562  0.00  0.00    +0.000 C 
ENDBRANCH  21  39
ENDBRANCH   1  21
TORSDOF 17
ENDMDL
MODEL 5
REMARK VINA RESULT:      -6.7      1.203      1.417
REMARK  Name = 
REMARK  22 active torsions:
REMARK  status: ('A' for Active; 'I' for Inactive)
REMARK    1  A    between atoms: C_2  and  C_3
REMARK    2  A    between atoms: C_3  and  C_4
REMARK    3  A    between atoms: C_3  and  O_19
REMARK    4  A    between atoms: C_5  and  C_6
REMARK    5  A    between atoms: C_7  and  C_8
REMARK    6  A    between atoms: C_8  and  O_9
REMARK    7  A    between atoms: C_8  and  C_10
REMARK    8  A    between atoms: C_11  and  C_12
REMARK    9  A    between atoms: C_12  and  C_13
REMARK   10  A    between atoms: C_13  and  C_14
REMARK   11  A    between atoms: C_14  and  C_15
REMARK   12  A    between atoms: C_15  and  C_16
REMARK   13  A    between atoms: C_16  and  C_17
REMARK   14  A    between atoms: C_17  and  C_18
REMARK   15  A    between atoms: O_19  and  C_20
REMARK   16  A    between atoms: C_20  and  C_21
REMARK   17  A    between atoms: C_24  and  O_25
REMARK   18  A    between atoms: C_26  and  C_27
REMARK   19  A    between atoms: C_30  and  C_31
REMARK   20  A    between atoms: C_31  and  C_32
REMARK   21  A    between atoms: C_31  and  C_33
REMARK   22  A    between atoms: C_34  and  O_35
REMARK                            x       y       z     vdW  Elec       q    Type
REMARK                         _______ _______ _______ _____ _____    ______ ____
ROOT
ATOM      1  O   UNL     1       9.034  12.500  20.088  0.00  0.00    +0.000 OA
ENDROOT
BRANCH   1   2
ATOM      2  C   UNL     1       8.688  12.929  21.453  0.00  0.00    +0.000 C 
ATOM      3  C   UNL     1       9.832  13.812  21.997  0.00  0.00    +0.000 C 
ATOM      4  C   UNL     1       8.467  11.662  22.326  0.00  0.00    +0.000 C 
ATOM      5  C   UNL     1       7.616  11.794  23.584  0.00  0.00    +0.000 C 
ATOM      6  C   UNL     1       6.326  12.577  23.366  0.00  0.00    +0.000 C 
ATOM      7  C   UNL     1       6.579  13.960  22.711  0.00  0.00    +0.000 C 
ATOM      8  C   UNL     1       7.402  14.858  23.669  0.00  0.00    +0.000 C 
ATOM      9  C   UNL     1       5.208  14.676  22.519  0.00  0.00    +0.000 C 
ATOM     10  C   UNL     1       5.251  15.886  21.587  0.00  0.00    +0.000 C 
ATOM     11  C   UNL     1       5.889  15.585  20.219  0.00  0.00    +0.000 C 
ATOM     12  C   UNL     1       7.316  15.003  20.474  0.00  0.00    +0.000 C 
ATOM     13  C   UNL     1       7.298  13.703  21.331  0.00  0.00    +0.000 C 
BRANCH  11  14
ATOM     14  C   UNL     1       4.941  14.755  19.278  0.00  0.00    +0.000 C 
ATOM     15  C   UNL     1       3.453  15.081  19.519  0.00  0.00    +0.000 C 
ATOM     16  C   UNL     1       5.215  14.993  17.788  0.00  0.00    +0.000 C 
ENDBRANCH  11  14
BRANCH  12  17
ATOM     17  O   UNL     1       8.019  14.869  19.248  0.00  0.00    +0.000 OA
ATOM     18  H   UNL     1       8.204  15.763  18.898  0.00  0.00    +0.000 HD
ENDBRANCH  12  17
BRANCH   6  19
ATOM     19  O   UNL     1       5.641  12.704  24.610  0.00  0.00    +0.000 OA
ATOM     20  H   UNL     1       5.486  13.647  24.784  0.00  0.00    +0.000 HD
ENDBRANCH   6  19
ENDBRANCH   1   2
BRANCH   1  21
ATOM     21  C   UNL     1       9.799  11.289  19.912  0.00  0.00    +0.000 C 
BRANCH  21  22
ATOM     22  C   UNL     1       9.108  10.274  19.121  0.00  0.00    +0.000 C 
ATOM     23  C   UNL     1       8.608   9.358  18.525  0.00  0.00    +0.000 C 
BRANCH  23  24
ATOM     24  C   UNL     1       8.040   8.135  17.827  0.00  0.00    +0.000 C 
ATOM     25  C   UNL     1       7.592   7.209  17.215  0.00  0.00    +0.000 C 
BRANCH  25  26
ATOM     26  C   UNL     1       7.089   6.097  16.408  0.00  0.00    +0.000 C 
BRANCH  26  27
ATOM     27  O   UNL     1       7.452   4.858  17.002  0.00  0.00    +0.000 OA
ATOM     28  H   UNL     1       6.915   4.178  16.570  0.00  0.00    +0.000 HD
ENDBRANCH  26  27
BRANCH  26  29
ATOM     29  C   UNL     1       5.593   6.154  16.294  0.00  0.00    +0.000 C 
ATOM     30  C   UNL     1       4.723   5.441  17.031  0.00  0.00    +0.000 C 
BRANCH  30  31
ATOM     31  C   UNL     1       5.170   4.455  18.080  0.00  0.00    +0.000 C 
BRANCH  31  32
ATOM     32  C   UNL     1       4.966   4.941  19.508  0.00  0.00    +0.000 C 
BRANCH  32  33
ATOM     33  C   UNL     1       3.538   5.463  19.661  0.00  0.00    +0.000 C 
BRANCH  33  34
ATOM     34  C   UNL     1       2.634   4.455  20.350  0.00  0.00    +0.000 C 
BRANCH  34  35
ATOM     35  C   UNL     1       1.311   4.317  19.599  0.00  0.00    +0.000 C 
BRANCH  35  36
ATOM     36  C   UNL     1       1.367   3.165  18.600  0.00  0.00    +0.000 C 
ATOM     37  C   UNL     1       2.301   2.067  19.078  0.00  0.00    +0.000 C 
ENDBRANCH  35  36
ENDBRANCH  34  35
ENDBRANCH  33  34
ENDBRANCH  32  33
ENDBRANCH  31  32
ENDBRANCH  30  31
ENDBRANCH  26  29
ENDBRANCH  25  26
ENDBRANCH  23  24
ENDBRANCH  21  22
BRANCH  21  39
ATOM     38  C   UNL     1      11.062  12.386  18.024  0.00  0.00    +0.000 C 
ATOM     39  C   UNL     1      11.038  11.607  19.117  0.00  0.00    +0.000 C 
ENDBRANCH  21  39
ENDBRANCH   1  21
TORSDOF 17
ENDMDL
MODEL 6
REMARK VINA RESULT:      -6.7      0.917      1.160
REMARK  Name = 
REMARK  22 active torsions:
REMARK  status: ('A' for Active; 'I' for Inactive)
REMARK    1  A    between atoms: C_2  and  C_3
REMARK    2  A    between atoms: C_3  and  C_4
REMARK    3  A    between atoms: C_3  and  O_19
REMARK    4  A    between atoms: C_5  and  C_6
REMARK    5  A    between atoms: C_7  and  C_8
REMARK    6  A    between atoms: C_8  and  O_9
REMARK    7  A    between atoms: C_8  and  C_10
REMARK    8  A    between atoms: C_11  and  C_12
REMARK    9  A    between atoms: C_12  and  C_13
REMARK   10  A    between atoms: C_13  and  C_14
REMARK   11  A    between atoms: C_14  and  C_15
REMARK   12  A    between atoms: C_15  and  C_16
REMARK   13  A    between atoms: C_16  and  C_17
REMARK   14  A    between atoms: C_17  and  C_18
REMARK   15  A    between atoms: O_19  and  C_20
REMARK   16  A    between atoms: C_20  and  C_21
REMARK   17  A    between atoms: C_24  and  O_25
REMARK   18  A    between atoms: C_26  and  C_27
REMARK   19  A    between atoms: C_30  and  C_31
REMARK   20  A    between atoms: C_31  and  C_32
REMARK   21  A    between atoms: C_31  and  C_33
REMARK   22  A    between atoms: C_34  and  O_35
REMARK                            x       y       z     vdW  Elec       q    Type
REMARK                         _______ _______ _______ _____ _____    ______ ____
ROOT
ATOM      1  O   UNL     1       9.003  12.436  19.594  0.00  0.00    +0.000 OA
ENDROOT
BRANCH   1   2
ATOM      2  C   UNL     1       9.087  13.173  20.864  0.00  0.00    +0.000 C 
ATOM      3  C   UNL     1      10.396  13.991  20.875  0.00  0.00    +0.000 C 
ATOM      4  C   UNL     1       9.032  12.149  22.033  0.00  0.00    +0.000 C 
ATOM      5  C   UNL     1       8.582  12.643  23.403  0.00  0.00    +0.000 C 
ATOM      6  C   UNL     1       7.341  13.527  23.353  0.00  0.00    +0.000 C 
ATOM      7  C   UNL     1       7.495  14.704  22.353  0.00  0.00    +0.000 C 
ATOM      8  C   UNL     1       8.615  15.662  22.832  0.00  0.00    +0.000 C 
ATOM      9  C   UNL     1       6.179  15.539  22.364  0.00  0.00    +0.000 C 
ATOM     10  C   UNL     1       6.042  16.519  21.201  0.00  0.00    +0.000 C 
ATOM     11  C   UNL     1       6.246  15.867  19.821  0.00  0.00    +0.000 C 
ATOM     12  C   UNL     1       7.643  15.167  19.824  0.00  0.00    +0.000 C 
ATOM     13  C   UNL     1       7.776  14.081  20.932  0.00  0.00    +0.000 C 
BRANCH  11  14
ATOM     14  C   UNL     1       5.016  14.994  19.375  0.00  0.00    +0.000 C 
ATOM     15  C   UNL     1       3.745  15.327  20.184  0.00  0.00    +0.000 C 
ATOM     16  C   UNL     1       4.661  15.168  17.893  0.00  0.00    +0.000 C 
ENDBRANCH  11  14
BRANCH  12  17
ATOM     17  O   UNL     1       7.961  14.697  18.523  0.00  0.00    +0.000 OA
ATOM     18  H   UNL     1       7.132  14.423  18.082  0.00  0.00    +0.000 HD
ENDBRANCH  12  17
BRANCH   6  19
ATOM     19  O   UNL     1       7.045  13.992  24.667  0.00  0.00    +0.000 OA
ATOM     20  H   UNL     1       6.123  14.297  24.689  0.00  0.00    +0.000 HD
ENDBRANCH   6  19
ENDBRANCH   1   2
BRANCH   1  21
ATOM     21  C   UNL     1       9.831  11.267  19.412  0.00  0.00    +0.000 C 
BRANCH  21  22
ATOM     22  C   UNL     1       9.093  10.100  18.935  0.00  0.00    +0.000 C 
ATOM     23  C   UNL     1       8.589   9.101  18.496  0.00  0.00    +0.000 C 
BRANCH  23  24
ATOM     24  C   UNL     1       8.048   7.811  17.905  0.00  0.00    +0.000 C 
ATOM     25  C   UNL     1       7.565   6.833  17.415  0.00  0.00    +0.000 C 
BRANCH  25  26
ATOM     26  C   UNL     1       6.950   5.679  16.757  0.00  0.00    +0.000 C 
BRANCH  26  27
ATOM     27  O   UNL     1       6.687   4.656  17.708  0.00  0.00    +0.000 OA
ATOM     28  H   UNL     1       6.460   5.103  18.536  0.00  0.00    +0.000 HD
ENDBRANCH  26  27
BRANCH  26  29
ATOM     29  C   UNL     1       5.658   6.066  16.098  0.00  0.00    +0.000 C 
ATOM     30  C   UNL     1       4.428   5.815  16.579  0.00  0.00    +0.000 C 
BRANCH  30  31
ATOM     31  C   UNL     1       4.200   5.073  17.871  0.00  0.00    +0.000 C 
BRANCH  31  32
ATOM     32  C   UNL     1       3.703   3.646  17.681  0.00  0.00    +0.000 C 
BRANCH  32  33
ATOM     33  C   UNL     1       2.179   3.657  17.576  0.00  0.00    +0.000 C 
BRANCH  33  34
ATOM     34  C   UNL     1       1.522   4.136  18.860  0.00  0.00    +0.000 C 
BRANCH  34  35
ATOM     35  C   UNL     1       0.787   2.988  19.550  0.00  0.00    +0.000 C 
BRANCH  35  36
ATOM     36  C   UNL     1       1.153   2.914  21.030  0.00  0.00    +0.000 C 
ATOM     37  C   UNL     1       2.205   3.950  21.389  0.00  0.00    +0.000 C 
ENDBRANCH  35  36
ENDBRANCH  34  35
ENDBRANCH  33  34
ENDBRANCH  32  33
ENDBRANCH  31  32
ENDBRANCH  30  31
ENDBRANCH  26  29
ENDBRANCH  25  26
ENDBRANCH  23  24
ENDBRANCH  21  22
BRANCH  21  39
ATOM     38  C   UNL     1      10.719  12.526  17.414  0.00  0.00    +0.000 C 
ATOM     39  C   UNL     1      10.835  11.547  18.324  0.00  0.00    +0.000 C 
ENDBRANCH  21  39
ENDBRANCH   1  21
TORSDOF 17
ENDMDL
MODEL 7
REMARK VINA RESULT:      -6.7      1.009      1.363
REMARK  Name = 
REMARK  22 active torsions:
REMARK  status: ('A' for Active; 'I' for Inactive)
REMARK    1  A    between atoms: C_2  and  C_3
REMARK    2  A    between atoms: C_3  and  C_4
REMARK    3  A    between atoms: C_3  and  O_19
REMARK    4  A    between atoms: C_5  and  C_6
REMARK    5  A    between atoms: C_7  and  C_8
REMARK    6  A    between atoms: C_8  and  O_9
REMARK    7  A    between atoms: C_8  and  C_10
REMARK    8  A    between atoms: C_11  and  C_12
REMARK    9  A    between atoms: C_12  and  C_13
REMARK   10  A    between atoms: C_13  and  C_14
REMARK   11  A    between atoms: C_14  and  C_15
REMARK   12  A    between atoms: C_15  and  C_16
REMARK   13  A    between atoms: C_16  and  C_17
REMARK   14  A    between atoms: C_17  and  C_18
REMARK   15  A    between atoms: O_19  and  C_20
REMARK   16  A    between atoms: C_20  and  C_21
REMARK   17  A    between atoms: C_24  and  O_25
REMARK   18  A    between atoms: C_26  and  C_27
REMARK   19  A    between atoms: C_30  and  C_31
REMARK   20  A    between atoms: C_31  and  C_32
REMARK   21  A    between atoms: C_31  and  C_33
REMARK   22  A    between atoms: C_34  and  O_35
REMARK                            x       y       z     vdW  Elec       q    Type
REMARK                         _______ _______ _______ _____ _____    ______ ____
ROOT
ATOM      1  O   UNL     1       9.036  12.543  19.273  0.00  0.00    +0.000 OA
ENDROOT
BRANCH   1   2
ATOM      2  C   UNL     1       9.136  13.113  20.625  0.00  0.00    +0.000 C 
ATOM      3  C   UNL     1      10.554  13.692  20.814  0.00  0.00    +0.000 C 
ATOM      4  C   UNL     1       8.824  11.991  21.656  0.00  0.00    +0.000 C 
ATOM      5  C   UNL     1       8.351  12.401  23.046  0.00  0.00    +0.000 C 
ATOM      6  C   UNL     1       7.276  13.482  23.028  0.00  0.00    +0.000 C 
ATOM      7  C   UNL     1       7.696  14.718  22.190  0.00  0.00    +0.000 C 
ATOM      8  C   UNL     1       8.914  15.415  22.848  0.00  0.00    +0.000 C 
ATOM      9  C   UNL     1       6.535  15.757  22.221  0.00  0.00    +0.000 C 
ATOM     10  C   UNL     1       6.650  16.867  21.179  0.00  0.00    +0.000 C 
ATOM     11  C   UNL     1       6.856  16.344  19.745  0.00  0.00    +0.000 C 
ATOM     12  C   UNL     1       8.118  15.423  19.749  0.00  0.00    +0.000 C 
ATOM     13  C   UNL     1       7.987  14.216  20.723  0.00  0.00    +0.000 C 
BRANCH  11  14
ATOM     14  C   UNL     1       5.542  15.746  19.124  0.00  0.00    +0.000 C 
ATOM     15  C   UNL     1       5.838  14.786  17.954  0.00  0.00    +0.000 C 
ATOM     16  C   UNL     1       4.697  14.967  20.139  0.00  0.00    +0.000 C 
ENDBRANCH  11  14
BRANCH  12  17
ATOM     17  O   UNL     1       8.459  15.051  18.422  0.00  0.00    +0.000 OA
ATOM     18  H   UNL     1       9.425  14.901  18.381  0.00  0.00    +0.000 HD
ENDBRANCH  12  17
BRANCH   6  19
ATOM     19  O   UNL     1       6.955  13.844  24.369  0.00  0.00    +0.000 OA
ATOM     20  H   UNL     1       7.760  14.164  24.807  0.00  0.00    +0.000 HD
ENDBRANCH   6  19
ENDBRANCH   1   2
BRANCH   1  21
ATOM     21  C   UNL     1       9.836  11.388  18.943  0.00  0.00    +0.000 C 
BRANCH  21  22
ATOM     22  C   UNL     1       9.044  10.201  18.630  0.00  0.00    +0.000 C 
ATOM     23  C   UNL     1       8.468   9.205  18.282  0.00  0.00    +0.000 C 
BRANCH  23  24
ATOM     24  C   UNL     1       7.815   7.936  17.766  0.00  0.00    +0.000 C 
ATOM     25  C   UNL     1       7.337   6.898  17.409  0.00  0.00    +0.000 C 
BRANCH  25  26
ATOM     26  C   UNL     1       6.752   5.607  17.046  0.00  0.00    +0.000 C 
BRANCH  26  27
ATOM     27  O   UNL     1       7.730   4.784  16.422  0.00  0.00    +0.000 OA
ATOM     28  H   UNL     1       7.782   5.071  15.500  0.00  0.00    +0.000 HD
ENDBRANCH  26  27
BRANCH  26  29
ATOM     29  C   UNL     1       6.232   4.896  18.261  0.00  0.00    +0.000 C 
ATOM     30  C   UNL     1       5.025   5.087  18.823  0.00  0.00    +0.000 C 
BRANCH  30  31
ATOM     31  C   UNL     1       4.033   6.087  18.289  0.00  0.00    +0.000 C 
BRANCH  31  32
ATOM     32  C   UNL     1       2.747   5.460  17.769  0.00  0.00    +0.000 C 
BRANCH  32  33
ATOM     33  C   UNL     1       2.028   4.762  18.923  0.00  0.00    +0.000 C 
BRANCH  33  34
ATOM     34  C   UNL     1       1.378   3.460  18.485  0.00  0.00    +0.000 C 
BRANCH  34  35
ATOM     35  C   UNL     1       2.213   2.263  18.937  0.00  0.00    +0.000 C 
BRANCH  35  36
ATOM     36  C   UNL     1       2.913   2.554  20.261  0.00  0.00    +0.000 C 
ATOM     37  C   UNL     1       4.344   2.043  20.251  0.00  0.00    +0.000 C 
ENDBRANCH  35  36
ENDBRANCH  34  35
ENDBRANCH  33  34
ENDBRANCH  32  33
ENDBRANCH  31  32
ENDBRANCH  30  31
ENDBRANCH  26  29
ENDBRANCH  25  26
ENDBRANCH  23  24
ENDBRANCH  21  22
BRANCH  21  39
ATOM     38  C   UNL     1      11.793  12.293  17.633  0.00  0.00    +0.000 C 
ATOM     39  C   UNL     1      10.604  11.672  17.679  0.00  0.00    +0.000 C 
ENDBRANCH  21  39
ENDBRANCH   1  21
TORSDOF 17
ENDMDL
MODEL 8
REMARK VINA RESULT:      -6.6      7.156      9.477
REMARK  Name = 
REMARK  22 active torsions:
REMARK  status: ('A' for Active; 'I' for Inactive)
REMARK    1  A    between atoms: C_2  and  C_3
REMARK    2  A    between atoms: C_3  and  C_4
REMARK    3  A    between atoms: C_3  and  O_19
REMARK    4  A    between atoms: C_5  and  C_6
REMARK    5  A    between atoms: C_7  and  C_8
REMARK    6  A    between atoms: C_8  and  O_9
REMARK    7  A    between atoms: C_8  and  C_10
REMARK    8  A    between atoms: C_11  and  C_12
REMARK    9  A    between atoms: C_12  and  C_13
REMARK   10  A    between atoms: C_13  and  C_14
REMARK   11  A    between atoms: C_14  and  C_15
REMARK   12  A    between atoms: C_15  and  C_16
REMARK   13  A    between atoms: C_16  and  C_17
REMARK   14  A    between atoms: C_17  and  C_18
REMARK   15  A    between atoms: O_19  and  C_20
REMARK   16  A    between atoms: C_20  and  C_21
REMARK   17  A    between atoms: C_24  and  O_25
REMARK   18  A    between atoms: C_26  and  C_27
REMARK   19  A    between atoms: C_30  and  C_31
REMARK   20  A    between atoms: C_31  and  C_32
REMARK   21  A    between atoms: C_31  and  C_33
REMARK   22  A    between atoms: C_34  and  O_35
REMARK                            x       y       z     vdW  Elec       q    Type
REMARK                         _______ _______ _______ _____ _____    ______ ____
ROOT
ATOM      1  O   UNL     1      -1.975  11.200  19.394  0.00  0.00    +0.000 OA
ENDROOT
BRANCH   1   2
ATOM      2  C   UNL     1      -1.921  12.245  20.428  0.00  0.00    +0.000 C 
ATOM      3  C   UNL     1      -1.317  13.523  19.808  0.00  0.00    +0.000 C 
ATOM      4  C   UNL     1      -1.069  11.717  21.617  0.00  0.00    +0.000 C 
ATOM      5  C   UNL     1      -1.278  12.348  22.989  0.00  0.00    +0.000 C 
ATOM      6  C   UNL     1      -2.747  12.518  23.362  0.00  0.00    +0.000 C 
ATOM      7  C   UNL     1      -3.551  13.269  22.269  0.00  0.00    +0.000 C 
ATOM      8  C   UNL     1      -3.031  14.723  22.135  0.00  0.00    +0.000 C 
ATOM      9  C   UNL     1      -5.035  13.382  22.734  0.00  0.00    +0.000 C 
ATOM     10  C   UNL     1      -6.013  13.788  21.633  0.00  0.00    +0.000 C 
ATOM     11  C   UNL     1      -5.917  12.910  20.371  0.00  0.00    +0.000 C 
ATOM     12  C   UNL     1      -4.438  12.952  19.872  0.00  0.00    +0.000 C 
ATOM     13  C   UNL     1      -3.422  12.439  20.935  0.00  0.00    +0.000 C 
BRANCH  11  14
ATOM     14  C   UNL     1      -6.560  11.490  20.572  0.00  0.00    +0.000 C 
ATOM     15  C   UNL     1      -7.803  11.538  21.483  0.00  0.00    +0.000 C 
ATOM     16  C   UNL     1      -6.995  10.836  19.254  0.00  0.00    +0.000 C 
ENDBRANCH  11  14
BRANCH  12  17
ATOM     17  O   UNL     1      -4.325  12.303  18.614  0.00  0.00    +0.000 OA
ATOM     18  H   UNL     1      -5.137  11.779  18.462  0.00  0.00    +0.000 HD
ENDBRANCH  12  17
BRANCH   6  19
ATOM     19  O   UNL     1      -2.836  13.176  24.623  0.00  0.00    +0.000 OA
ATOM     20  H   UNL     1      -2.293  12.692  25.266  0.00  0.00    +0.000 HD
ENDBRANCH   6  19
ENDBRANCH   1   2
BRANCH   1  21
ATOM     21  C   UNL     1      -1.053  11.270  18.285  0.00  0.00    +0.000 C 
BRANCH  21  22
ATOM     22  C   UNL     1      -0.017  10.241  18.323  0.00  0.00    +0.000 C 
ATOM     23  C   UNL     1       0.841   9.404  18.236  0.00  0.00    +0.000 C 
BRANCH  23  24
ATOM     24  C   UNL     1       1.925   8.362  18.020  0.00  0.00    +0.000 C 
ATOM     25  C   UNL     1       2.808   7.562  17.914  0.00  0.00    +0.000 C 
BRANCH  25  26
ATOM     26  C   UNL     1       3.882   6.570  17.859  0.00  0.00    +0.000 C 
BRANCH  26  27
ATOM     27  O   UNL     1       5.035   7.131  17.245  0.00  0.00    +0.000 OA
ATOM     28  H   UNL     1       5.578   6.387  16.949  0.00  0.00    +0.000 HD
ENDBRANCH  26  27
BRANCH  26  29
ATOM     29  C   UNL     1       4.251   6.105  19.238  0.00  0.00    +0.000 C 
ATOM     30  C   UNL     1       4.869   4.948  19.535  0.00  0.00    +0.000 C 
BRANCH  30  31
ATOM     31  C   UNL     1       5.256   3.944  18.481  0.00  0.00    +0.000 C 
BRANCH  31  32
ATOM     32  C   UNL     1       4.089   3.464  17.630  0.00  0.00    +0.000 C 
BRANCH  32  33
ATOM     33  C   UNL     1       3.489   2.209  18.263  0.00  0.00    +0.000 C 
BRANCH  33  34
ATOM     34  C   UNL     1       2.061   1.966  17.804  0.00  0.00    +0.000 C 
BRANCH  34  35
ATOM     35  C   UNL     1       1.067   2.477  18.845  0.00  0.00    +0.000 C 
BRANCH  35  36
ATOM     36  C   UNL     1       1.775   2.839  20.147  0.00  0.00    +0.000 C 
ATOM     37  C   UNL     1       1.361   4.216  20.636  0.00  0.00    +0.000 C 
ENDBRANCH  35  36
ENDBRANCH  34  35
ENDBRANCH  33  34
ENDBRANCH  32  33
ENDBRANCH  31  32
ENDBRANCH  30  31
ENDBRANCH  26  29
ENDBRANCH  25  26
ENDBRANCH  23  24
ENDBRANCH  21  22
BRANCH  21  39
ATOM     38  C   UNL     1      -2.507   9.883  16.761  0.00  0.00    +0.000 C 
ATOM     39  C   UNL     1      -1.805  10.999  17.009  0.00  0.00    +0.000 C 
ENDBRANCH  21  39
ENDBRANCH   1  21
TORSDOF 17
ENDMDL
MODEL 9
REMARK VINA RESULT:      -6.6      6.691      9.141
REMARK  Name = 
REMARK  22 active torsions:
REMARK  status: ('A' for Active; 'I' for Inactive)
REMARK    1  A    between atoms: C_2  and  C_3
REMARK    2  A    between atoms: C_3  and  C_4
REMARK    3  A    between atoms: C_3  and  O_19
REMARK    4  A    between atoms: C_5  and  C_6
REMARK    5  A    between atoms: C_7  and  C_8
REMARK    6  A    between atoms: C_8  and  O_9
REMARK    7  A    between atoms: C_8  and  C_10
REMARK    8  A    between atoms: C_11  and  C_12
REMARK    9  A    between atoms: C_12  and  C_13
REMARK   10  A    between atoms: C_13  and  C_14
REMARK   11  A    between atoms: C_14  and  C_15
REMARK   12  A    between atoms: C_15  and  C_16
REMARK   13  A    between atoms: C_16  and  C_17
REMARK   14  A    between atoms: C_17  and  C_18
REMARK   15  A    between atoms: O_19  and  C_20
REMARK   16  A    between atoms: C_20  and  C_21
REMARK   17  A    between atoms: C_24  and  O_25
REMARK   18  A    between atoms: C_26  and  C_27
REMARK   19  A    between atoms: C_30  and  C_31
REMARK   20  A    between atoms: C_31  and  C_32
REMARK   21  A    between atoms: C_31  and  C_33
REMARK   22  A    between atoms: C_34  and  O_35
REMARK                            x       y       z     vdW  Elec       q    Type
REMARK                         _______ _______ _______ _____ _____    ______ ____
ROOT
ATOM      1  O   UNL     1      -0.662  10.731  20.056  0.00  0.00    +0.000 OA
ENDROOT
BRANCH   1   2
ATOM      2  C   UNL     1      -1.005  11.757  21.053  0.00  0.00    +0.000 C 
ATOM      3  C   UNL     1      -0.090  12.982  20.837  0.00  0.00    +0.000 C 
ATOM      4  C   UNL     1      -0.829  11.144  22.471  0.00  0.00    +0.000 C 
ATOM      5  C   UNL     1      -1.590  11.778  23.630  0.00  0.00    +0.000 C 
ATOM      6  C   UNL     1      -3.050  12.076  23.307  0.00  0.00    +0.000 C 
ATOM      7  C   UNL     1      -3.210  12.907  22.007  0.00  0.00    +0.000 C 
ATOM      8  C   UNL     1      -2.577  14.309  22.194  0.00  0.00    +0.000 C 
ATOM      9  C   UNL     1      -4.730  13.149  21.757  0.00  0.00    +0.000 C 
ATOM     10  C   UNL     1      -5.068  13.651  20.355  0.00  0.00    +0.000 C 
ATOM     11  C   UNL     1      -4.476  12.781  19.231  0.00  0.00    +0.000 C 
ATOM     12  C   UNL     1      -2.932  12.693  19.456  0.00  0.00    +0.000 C 
ATOM     13  C   UNL     1      -2.553  12.081  20.836  0.00  0.00    +0.000 C 
BRANCH  11  14
ATOM     14  C   UNL     1      -5.245  11.421  19.049  0.00  0.00    +0.000 C 
ATOM     15  C   UNL     1      -6.729  11.537  19.452  0.00  0.00    +0.000 C 
ATOM     16  C   UNL     1      -5.211  10.900  17.607  0.00  0.00    +0.000 C 
ENDBRANCH  11  14
BRANCH  12  17
ATOM     17  O   UNL     1      -2.310  12.048  18.354  0.00  0.00    +0.000 OA
ATOM     18  H   UNL     1      -2.043  12.731  17.707  0.00  0.00    +0.000 HD
ENDBRANCH  12  17
BRANCH   6  19
ATOM     19  O   UNL     1      -3.652  12.728  24.423  0.00  0.00    +0.000 OA
ATOM     20  H   UNL     1      -4.578  12.924  24.207  0.00  0.00    +0.000 HD
ENDBRANCH   6  19
ENDBRANCH   1   2
BRANCH   1  21
ATOM     21  C   UNL     1       0.720  10.345  19.902  0.00  0.00    +0.000 C 
BRANCH  21  22
ATOM     22  C   UNL     1       0.989   8.969  20.314  0.00  0.00    +0.000 C 
ATOM     23  C   UNL     1       1.238   7.815  20.538  0.00  0.00    +0.000 C 
BRANCH  23  24
ATOM     24  C   UNL     1       1.576   6.346  20.718  0.00  0.00    +0.000 C 
ATOM     25  C   UNL     1       1.802   5.174  20.801  0.00  0.00    +0.000 C 
BRANCH  25  26
ATOM     26  C   UNL     1       2.084   3.738  20.825  0.00  0.00    +0.000 C 
BRANCH  26  27
ATOM     27  O   UNL     1       2.105   3.266  22.166  0.00  0.00    +0.000 OA
ATOM     28  H   UNL     1       1.337   2.687  22.266  0.00  0.00    +0.000 HD
ENDBRANCH  26  27
BRANCH  26  29
ATOM     29  C   UNL     1       1.037   2.976  20.066  0.00  0.00    +0.000 C 
ATOM     30  C   UNL     1       1.066   2.705  18.748  0.00  0.00    +0.000 C 
BRANCH  30  31
ATOM     31  C   UNL     1       2.185   3.170  17.852  0.00  0.00    +0.000 C 
BRANCH  31  32
ATOM     32  C   UNL     1       3.552   2.628  18.243  0.00  0.00    +0.000 C 
BRANCH  32  33
ATOM     33  C   UNL     1       4.568   3.769  18.226  0.00  0.00    +0.000 C 
BRANCH  33  34
ATOM     34  C   UNL     1       4.274   4.777  17.127  0.00  0.00    +0.000 C 
BRANCH  34  35
ATOM     35  C   UNL     1       5.531   5.059  16.305  0.00  0.00    +0.000 C 
BRANCH  35  36
ATOM     36  C   UNL     1       5.555   4.213  15.035  0.00  0.00    +0.000 C 
ATOM     37  C   UNL     1       6.688   4.634  14.115  0.00  0.00    +0.000 C 
ENDBRANCH  35  36
ENDBRANCH  34  35
ENDBRANCH  33  34
ENDBRANCH  32  33
ENDBRANCH  31  32
ENDBRANCH  30  31
ENDBRANCH  26  29
ENDBRANCH  25  26
ENDBRANCH  23  24
ENDBRANCH  21  22
BRANCH  21  39
ATOM     38  C   UNL     1       2.226  10.852  17.942  0.00  0.00    +0.000 C 
ATOM     39  C   UNL     1       1.073  10.375  18.438  0.00  0.00    +0.000 C 
ENDBRANCH  21  39
ENDBRANCH   1  21
TORSDOF 17
ENDMDL
