MODEL 1
REMARK VINA RESULT:      -7.9      0.000      0.000
REMARK  Name = 
REMARK  10 active torsions:
REMARK  status: ('A' for Active; 'I' for Inactive)
REMARK    1  A    between atoms: C_1  and  C_2
REMARK    2  A    between atoms: C_2  and  C_3
REMARK    3  A    between atoms: C_2  and  C_4
REMARK    4  A    between atoms: C_2  and  C_5
REMARK    5  A    between atoms: C_5  and  C_6
REMARK    6  A    between atoms: C_10  and  S_11
REMARK    7  A    between atoms: S_11  and  C_14
REMARK    8  A    between atoms: C_14  and  C_15
REMARK    9  A    between atoms: N_24  and  C_25
REMARK   10  A    between atoms: C_25  and  C_26
REMARK                            x       y       z     vdW  Elec       q    Type
REMARK                         _______ _______ _______ _____ _____    ______ ____
ROOT
ATOM      1  C   UNL     1       2.820   5.394  19.912  0.00  0.00    +0.000 A 
ATOM      2  N   UNL     1       2.265   6.233  20.764  0.00  0.00    +0.000 NA
ATOM      3  C   UNL     1       2.002   7.376  20.069  0.00  0.00    +0.000 A 
ATOM      4  C   UNL     1       1.312   8.521  20.494  0.00  0.00    +0.000 A 
ATOM      5  C   UNL     1       1.178   9.582  19.594  0.00  0.00    +0.000 A 
ATOM      6  C   UNL     1       1.759   9.530  18.321  0.00  0.00    +0.000 A 
ATOM      7  C   UNL     1       2.424   8.374  17.880  0.00  0.00    +0.000 A 
ATOM      8  C   UNL     1       2.505   7.296  18.774  0.00  0.00    +0.000 A 
ATOM      9  N   UNL     1       2.987   5.999  18.675  0.00  0.00    +0.000 N 
ENDROOT
BRANCH   5  10
ATOM     10  S   UNL     1       0.320  11.063  20.115  0.00  0.00    +0.000 S 
ATOM     11  O   UNL     1      -0.846  10.631  20.869  0.00  0.00    +0.000 OA
ATOM     12  O   UNL     1       1.336  11.908  20.715  0.00  0.00    +0.000 OA
BRANCH  10  13
ATOM     13  C   UNL     1      -0.246  11.803  18.582  0.00  0.00    +0.000 C 
BRANCH  13  14
ATOM     14  C   UNL     1      -1.645  11.322  18.265  0.00  0.00    +0.000 A 
ATOM     15  C   UNL     1      -1.849  10.152  17.517  0.00  0.00    +0.000 A 
ATOM     16  C   UNL     1      -3.142   9.709  17.223  0.00  0.00    +0.000 A 
ATOM     17  C   UNL     1      -4.247  10.427  17.671  0.00  0.00    +0.000 A 
ATOM     18  C   UNL     1      -4.060  11.591  18.413  0.00  0.00    +0.000 A 
ATOM     19  C   UNL     1      -2.767  12.037  18.708  0.00  0.00    +0.000 A 
ENDBRANCH  13  14
ENDBRANCH  10  13
ENDBRANCH   5  10
BRANCH   1  20
ATOM     20  C   UNL     1       3.178   3.975  20.255  0.00  0.00    +0.000 C 
BRANCH  20  22
ATOM     21  C   UNL     1       2.286   1.804  19.250  0.00  0.00    +0.000 C 
ATOM     22  C   UNL     1       1.979   2.981  20.192  0.00  0.00    +0.000 C 
ATOM     23  C   UNL     1       0.675   3.666  19.739  0.00  0.00    +0.000 C 
ATOM     24  C   UNL     1       1.735   2.418  21.607  0.00  0.00    +0.000 C 
ENDBRANCH  20  22
ENDBRANCH   1  20
BRANCH   9  25
ATOM     25  C   UNL     1       3.302   5.314  17.424  0.00  0.00    +0.000 C 
BRANCH  25  26
ATOM     26  C   UNL     1       4.737   5.287  16.985  0.00  0.00    +0.000 C 
ATOM     27  C   UNL     1       5.161   4.454  15.798  0.00  0.00    +0.000 C 
ATOM     28  C   UNL     1       5.290   5.950  15.746  0.00  0.00    +0.000 C 
ENDBRANCH  25  26
ENDBRANCH   9  25
TORSDOF 7
ENDMDL
MODEL 2
REMARK VINA RESULT:      -7.9      0.810      3.515
REMARK  Name = 
REMARK  10 active torsions:
REMARK  status: ('A' for Active; 'I' for Inactive)
REMARK    1  A    between atoms: C_1  and  C_2
REMARK    2  A    between atoms: C_2  and  C_3
REMARK    3  A    between atoms: C_2  and  C_4
REMARK    4  A    between atoms: C_2  and  C_5
REMARK    5  A    between atoms: C_5  and  C_6
REMARK    6  A    between atoms: C_10  and  S_11
REMARK    7  A    between atoms: S_11  and  C_14
REMARK    8  A    between atoms: C_14  and  C_15
REMARK    9  A    between atoms: N_24  and  C_25
REMARK   10  A    between atoms: C_25  and  C_26
REMARK                            x       y       z     vdW  Elec       q    Type
REMARK                         _______ _______ _______ _____ _____    ______ ____
ROOT
ATOM      1  C   UNL     1       3.219   5.855  18.069  0.00  0.00    +0.000 A 
ATOM      2  N   UNL     1       2.824   7.064  17.724  0.00  0.00    +0.000 NA
ATOM      3  C   UNL     1       2.214   7.600  18.818  0.00  0.00    +0.000 A 
ATOM      4  C   UNL     1       1.728   8.903  18.999  0.00  0.00    +0.000 A 
ATOM      5  C   UNL     1       1.123   9.219  20.219  0.00  0.00    +0.000 A 
ATOM      6  C   UNL     1       0.959   8.250  21.217  0.00  0.00    +0.000 A 
ATOM      7  C   UNL     1       1.471   6.952  21.053  0.00  0.00    +0.000 A 
ATOM      8  C   UNL     1       2.122   6.664  19.844  0.00  0.00    +0.000 A 
ATOM      9  N   UNL     1       2.814   5.563  19.363  0.00  0.00    +0.000 N 
ENDROOT
BRANCH   5  10
ATOM     10  S   UNL     1       0.477  10.867  20.472  0.00  0.00    +0.000 S 
ATOM     11  O   UNL     1      -0.795  10.721  21.159  0.00  0.00    +0.000 OA
ATOM     12  O   UNL     1       1.569  11.625  21.057  0.00  0.00    +0.000 OA
BRANCH  10  13
ATOM     13  C   UNL     1       0.152  11.469  18.813  0.00  0.00    +0.000 C 
BRANCH  13  14
ATOM     14  C   UNL     1      -1.271  11.143  18.418  0.00  0.00    +0.000 A 
ATOM     15  C   UNL     1      -1.567   9.973  17.702  0.00  0.00    +0.000 A 
ATOM     16  C   UNL     1      -2.882   9.673  17.336  0.00  0.00    +0.000 A 
ATOM     17  C   UNL     1      -3.919  10.537  17.679  0.00  0.00    +0.000 A 
ATOM     18  C   UNL     1      -3.640  11.702  18.388  0.00  0.00    +0.000 A 
ATOM     19  C   UNL     1      -2.324  12.006  18.755  0.00  0.00    +0.000 A 
ENDBRANCH  13  14
ENDBRANCH  10  13
ENDBRANCH   5  10
BRANCH   1  20
ATOM     20  C   UNL     1       4.025   4.955  17.174  0.00  0.00    +0.000 C 
BRANCH  20  22
ATOM     21  C   UNL     1       6.101   6.229  17.938  0.00  0.00    +0.000 C 
ATOM     22  C   UNL     1       5.404   5.544  16.750  0.00  0.00    +0.000 C 
ATOM     23  C   UNL     1       5.278   6.550  15.588  0.00  0.00    +0.000 C 
ATOM     24  C   UNL     1       6.301   4.388  16.262  0.00  0.00    +0.000 C 
ENDBRANCH  20  22
ENDBRANCH   1  20
BRANCH   9  25
ATOM     25  C   UNL     1       3.296   4.453  20.181  0.00  0.00    +0.000 C 
BRANCH  25  26
ATOM     26  C   UNL     1       2.425   3.236  20.290  0.00  0.00    +0.000 C 
ATOM     27  C   UNL     1       1.527   3.039  21.488  0.00  0.00    +0.000 C 
ATOM     28  C   UNL     1       0.924   3.212  20.123  0.00  0.00    +0.000 C 
ENDBRANCH  25  26
ENDBRANCH   9  25
TORSDOF 7
ENDMDL
MODEL 3
REMARK VINA RESULT:      -7.8      1.451      3.836
REMARK  Name = 
REMARK  10 active torsions:
REMARK  status: ('A' for Active; 'I' for Inactive)
REMARK    1  A    between atoms: C_1  and  C_2
REMARK    2  A    between atoms: C_2  and  C_3
REMARK    3  A    between atoms: C_2  and  C_4
REMARK    4  A    between atoms: C_2  and  C_5
REMARK    5  A    between atoms: C_5  and  C_6
REMARK    6  A    between atoms: C_10  and  S_11
REMARK    7  A    between atoms: S_11  and  C_14
REMARK    8  A    between atoms: C_14  and  C_15
REMARK    9  A    between atoms: N_24  and  C_25
REMARK   10  A    between atoms: C_25  and  C_26
REMARK                            x       y       z     vdW  Elec       q    Type
REMARK                         _______ _______ _______ _____ _____    ______ ____
ROOT
ATOM      1  C   UNL     1       4.055   5.450  17.559  0.00  0.00    +0.000 A 
ATOM      2  N   UNL     1       3.576   6.677  17.529  0.00  0.00    +0.000 NA
ATOM      3  C   UNL     1       2.857   6.842  18.675  0.00  0.00    +0.000 A 
ATOM      4  C   UNL     1       2.248   8.006  19.168  0.00  0.00    +0.000 A 
ATOM      5  C   UNL     1       1.547   7.924  20.374  0.00  0.00    +0.000 A 
ATOM      6  C   UNL     1       1.409   6.705  21.049  0.00  0.00    +0.000 A 
ATOM      7  C   UNL     1       2.042   5.543  20.577  0.00  0.00    +0.000 A 
ATOM      8  C   UNL     1       2.787   5.652  19.393  0.00  0.00    +0.000 A 
ATOM      9  N   UNL     1       3.601   4.779  18.685  0.00  0.00    +0.000 N 
ENDROOT
BRANCH   5  10
ATOM     10  S   UNL     1       0.744   9.387  21.017  0.00  0.00    +0.000 S 
ATOM     11  O   UNL     1      -0.661   9.057  21.188  0.00  0.00    +0.000 OA
ATOM     12  O   UNL     1       1.561   9.815  22.139  0.00  0.00    +0.000 OA
BRANCH  10  13
ATOM     13  C   UNL     1       0.882  10.583  19.686  0.00  0.00    +0.000 C 
BRANCH  13  14
ATOM     14  C   UNL     1      -0.433  10.680  18.946  0.00  0.00    +0.000 A 
ATOM     15  C   UNL     1      -1.420  11.592  19.353  0.00  0.00    +0.000 A 
ATOM     16  C   UNL     1      -2.636  11.680  18.669  0.00  0.00    +0.000 A 
ATOM     17  C   UNL     1      -2.884  10.860  17.572  0.00  0.00    +0.000 A 
ATOM     18  C   UNL     1      -1.915   9.949  17.158  0.00  0.00    +0.000 A 
ATOM     19  C   UNL     1      -0.698   9.858  17.841  0.00  0.00    +0.000 A 
ENDBRANCH  13  14
ENDBRANCH  10  13
ENDBRANCH   5  10
BRANCH   1  20
ATOM     20  C   UNL     1       4.988   4.895  16.520  0.00  0.00    +0.000 C 
BRANCH  20  22
ATOM     21  C   UNL     1       7.220   4.547  17.710  0.00  0.00    +0.000 C 
ATOM     22  C   UNL     1       6.463   5.380  16.661  0.00  0.00    +0.000 C 
ATOM     23  C   UNL     1       6.553   6.872  17.036  0.00  0.00    +0.000 C 
ATOM     24  C   UNL     1       7.169   5.204  15.301  0.00  0.00    +0.000 C 
ENDBRANCH  20  22
ENDBRANCH   1  20
BRANCH   9  25
ATOM     25  C   UNL     1       4.129   3.520  19.202  0.00  0.00    +0.000 C 
BRANCH  25  26
ATOM     26  C   UNL     1       3.464   2.249  18.759  0.00  0.00    +0.000 C 
ATOM     27  C   UNL     1       2.055   1.926  19.197  0.00  0.00    +0.000 C 
ATOM     28  C   UNL     1       2.353   2.148  17.741  0.00  0.00    +0.000 C 
ENDBRANCH  25  26
ENDBRANCH   9  25
TORSDOF 7
ENDMDL
MODEL 4
REMARK VINA RESULT:      -7.8      0.912      1.092
REMARK  Name = 
REMARK  10 active torsions:
REMARK  status: ('A' for Active; 'I' for Inactive)
REMARK    1  A    between atoms: C_1  and  C_2
REMARK    2  A    between atoms: C_2  and  C_3
REMARK    3  A    between atoms: C_2  and  C_4
REMARK    4  A    between atoms: C_2  and  C_5
REMARK    5  A    between atoms: C_5  and  C_6
REMARK    6  A    between atoms: C_10  and  S_11
REMARK    7  A    between atoms: S_11  and  C_14
REMARK    8  A    between atoms: C_14  and  C_15
REMARK    9  A    between atoms: N_24  and  C_25
REMARK   10  A    between atoms: C_25  and  C_26
REMARK                            x       y       z     vdW  Elec       q    Type
REMARK                         _______ _______ _______ _____ _____    ______ ____
ROOT
ATOM      1  C   UNL     1       2.715   5.662  20.022  0.00  0.00    +0.000 A 
ATOM      2  N   UNL     1       2.089   6.572  20.740  0.00  0.00    +0.000 NA
ATOM      3  C   UNL     1       1.879   7.639  19.918  0.00  0.00    +0.000 A 
ATOM      4  C   UNL     1       1.152   8.811  20.173  0.00  0.00    +0.000 A 
ATOM      5  C   UNL     1       1.087   9.779  19.166  0.00  0.00    +0.000 A 
ATOM      6  C   UNL     1       1.771   9.610  17.955  0.00  0.00    +0.000 A 
ATOM      7  C   UNL     1       2.474   8.425  17.684  0.00  0.00    +0.000 A 
ATOM      8  C   UNL     1       2.487   7.440  18.682  0.00  0.00    +0.000 A 
ATOM      9  N   UNL     1       2.980   6.145  18.750  0.00  0.00    +0.000 N 
ENDROOT
BRANCH   5  10
ATOM     10  S   UNL     1       0.183  11.292  19.469  0.00  0.00    +0.000 S 
ATOM     11  O   UNL     1       0.681  11.838  20.721  0.00  0.00    +0.000 OA
ATOM     12  O   UNL     1       0.266  12.047  18.231  0.00  0.00    +0.000 OA
BRANCH  10  13
ATOM     13  C   UNL     1      -1.507  10.748  19.727  0.00  0.00    +0.000 C 
BRANCH  13  14
ATOM     14  C   UNL     1      -2.253  10.749  18.411  0.00  0.00    +0.000 A 
ATOM     15  C   UNL     1      -1.857   9.905  17.361  0.00  0.00    +0.000 A 
ATOM     16  C   UNL     1      -2.545   9.907  16.145  0.00  0.00    +0.000 A 
ATOM     17  C   UNL     1      -3.637  10.751  15.959  0.00  0.00    +0.000 A 
ATOM     18  C   UNL     1      -4.040  11.595  16.991  0.00  0.00    +0.000 A 
ATOM     19  C   UNL     1      -3.353  11.596  18.210  0.00  0.00    +0.000 A 
ENDBRANCH  13  14
ENDBRANCH  10  13
ENDBRANCH   5  10
BRANCH   1  20
ATOM     20  C   UNL     1       3.050   4.287  20.530  0.00  0.00    +0.000 C 
BRANCH  20  22
ATOM     21  C   UNL     1       2.395   2.139  19.314  0.00  0.00    +0.000 C 
ATOM     22  C   UNL     1       1.929   3.229  20.295  0.00  0.00    +0.000 C 
ATOM     23  C   UNL     1       0.627   3.864  19.767  0.00  0.00    +0.000 C 
ATOM     24  C   UNL     1       1.599   2.558  21.644  0.00  0.00    +0.000 C 
ENDBRANCH  20  22
ENDBRANCH   1  20
BRANCH   9  25
ATOM     25  C   UNL     1       3.399   5.347  17.601  0.00  0.00    +0.000 C 
BRANCH  25  26
ATOM     26  C   UNL     1       4.854   5.360  17.235  0.00  0.00    +0.000 C 
ATOM     27  C   UNL     1       5.803   4.343  17.826  0.00  0.00    +0.000 C 
ATOM     28  C   UNL     1       5.546   4.353  16.346  0.00  0.00    +0.000 C 
ENDBRANCH  25  26
ENDBRANCH   9  25
TORSDOF 7
ENDMDL
MODEL 5
REMARK VINA RESULT:      -7.6      0.967      3.524
REMARK  Name = 
REMARK  10 active torsions:
REMARK  status: ('A' for Active; 'I' for Inactive)
REMARK    1  A    between atoms: C_1  and  C_2
REMARK    2  A    between atoms: C_2  and  C_3
REMARK    3  A    between atoms: C_2  and  C_4
REMARK    4  A    between atoms: C_2  and  C_5
REMARK    5  A    between atoms: C_5  and  C_6
REMARK    6  A    between atoms: C_10  and  S_11
REMARK    7  A    between atoms: S_11  and  C_14
REMARK    8  A    between atoms: C_14  and  C_15
REMARK    9  A    between atoms: N_24  and  C_25
REMARK   10  A    between atoms: C_25  and  C_26
REMARK                            x       y       z     vdW  Elec       q    Type
REMARK                         _______ _______ _______ _____ _____    ______ ____
ROOT
ATOM      1  C   UNL     1       2.914   6.207  18.373  0.00  0.00    +0.000 A 
ATOM      2  N   UNL     1       2.649   7.439  17.986  0.00  0.00    +0.000 NA
ATOM      3  C   UNL     1       1.994   8.039  19.019  0.00  0.00    +0.000 A 
ATOM      4  C   UNL     1       1.603   9.379  19.147  0.00  0.00    +0.000 A 
ATOM      5  C   UNL     1       0.924   9.760  20.309  0.00  0.00    +0.000 A 
ATOM      6  C   UNL     1       0.598   8.823  21.296  0.00  0.00    +0.000 A 
ATOM      7  C   UNL     1       1.015   7.486  21.187  0.00  0.00    +0.000 A 
ATOM      8  C   UNL     1       1.741   7.129  20.041  0.00  0.00    +0.000 A 
ATOM      9  N   UNL     1       2.379   5.968  19.630  0.00  0.00    +0.000 N 
ENDROOT
BRANCH   5  10
ATOM     10  S   UNL     1       0.396  11.459  20.492  0.00  0.00    +0.000 S 
ATOM     11  O   UNL     1      -0.826  11.438  21.279  0.00  0.00    +0.000 OA
ATOM     12  O   UNL     1       1.571  12.184  20.942  0.00  0.00    +0.000 OA
BRANCH  10  13
ATOM     13  C   UNL     1      -0.020  11.971  18.823  0.00  0.00    +0.000 C 
BRANCH  13  14
ATOM     14  C   UNL     1      -1.387  11.442  18.450  0.00  0.00    +0.000 A 
ATOM     15  C   UNL     1      -2.551  12.126  18.835  0.00  0.00    +0.000 A 
ATOM     16  C   UNL     1      -3.814  11.636  18.491  0.00  0.00    +0.000 A 
ATOM     17  C   UNL     1      -3.933  10.457  17.760  0.00  0.00    +0.000 A 
ATOM     18  C   UNL     1      -2.787   9.767  17.373  0.00  0.00    +0.000 A 
ATOM     19  C   UNL     1      -1.521  10.254  17.717  0.00  0.00    +0.000 A 
ENDBRANCH  13  14
ENDBRANCH  10  13
ENDBRANCH   5  10
BRANCH   1  20
ATOM     20  C   UNL     1       3.717   5.232  17.557  0.00  0.00    +0.000 C 
BRANCH  20  22
ATOM     21  C   UNL     1       6.004   4.459  16.725  0.00  0.00    +0.000 C 
ATOM     22  C   UNL     1       5.258   5.458  17.626  0.00  0.00    +0.000 C 
ATOM     23  C   UNL     1       5.800   5.348  19.065  0.00  0.00    +0.000 C 
ATOM     24  C   UNL     1       5.566   6.885  17.127  0.00  0.00    +0.000 C 
ENDBRANCH  20  22
ENDBRANCH   1  20
BRANCH   9  25
ATOM     25  C   UNL     1       2.698   4.835  20.494  0.00  0.00    +0.000 C 
BRANCH  25  26
ATOM     26  C   UNL     1       1.570   3.940  20.917  0.00  0.00    +0.000 C 
ATOM     27  C   UNL     1       1.300   2.647  20.184  0.00  0.00    +0.000 C 
ATOM     28  C   UNL     1       1.719   2.615  21.626  0.00  0.00    +0.000 C 
ENDBRANCH  25  26
ENDBRANCH   9  25
TORSDOF 7
ENDMDL
MODEL 6
REMARK VINA RESULT:      -7.6      3.508      8.110
REMARK  Name = 
REMARK  10 active torsions:
REMARK  status: ('A' for Active; 'I' for Inactive)
REMARK    1  A    between atoms: C_1  and  C_2
REMARK    2  A    between atoms: C_2  and  C_3
REMARK    3  A    between atoms: C_2  and  C_4
REMARK    4  A    between atoms: C_2  and  C_5
REMARK    5  A    between atoms: C_5  and  C_6
REMARK    6  A    between atoms: C_10  and  S_11
REMARK    7  A    between atoms: S_11  and  C_14
REMARK    8  A    between atoms: C_14  and  C_15
REMARK    9  A    between atoms: N_24  and  C_25
REMARK   10  A    between atoms: C_25  and  C_26
REMARK                            x       y       z     vdW  Elec       q    Type
REMARK                         _______ _______ _______ _____ _____    ______ ____
ROOT
ATOM      1  C   UNL     1       0.998  10.422  18.617  0.00  0.00    +0.000 A 
ATOM      2  N   UNL     1       1.875   9.935  17.763  0.00  0.00    +0.000 NA
ATOM      3  C   UNL     1       2.255   8.719  18.247  0.00  0.00    +0.000 A 
ATOM      4  C   UNL     1       3.079   7.756  17.647  0.00  0.00    +0.000 A 
ATOM      5  C   UNL     1       3.337   6.576  18.352  0.00  0.00    +0.000 A 
ATOM      6  C   UNL     1       2.832   6.380  19.642  0.00  0.00    +0.000 A 
ATOM      7  C   UNL     1       1.981   7.327  20.235  0.00  0.00    +0.000 A 
ATOM      8  C   UNL     1       1.687   8.482  19.495  0.00  0.00    +0.000 A 
ATOM      9  N   UNL     1       0.846   9.566  19.698  0.00  0.00    +0.000 N 
ENDROOT
BRANCH   5  10
ATOM     10  S   UNL     1       4.400   5.338  17.619  0.00  0.00    +0.000 S 
ATOM     11  O   UNL     1       4.826   5.858  16.330  0.00  0.00    +0.000 OA
ATOM     12  O   UNL     1       5.363   4.996  18.650  0.00  0.00    +0.000 OA
BRANCH  10  13
ATOM     13  C   UNL     1       3.311   3.942  17.330  0.00  0.00    +0.000 C 
BRANCH  13  14
ATOM     14  C   UNL     1       2.676   3.508  18.632  0.00  0.00    +0.000 A 
ATOM     15  C   UNL     1       1.287   3.593  18.816  0.00  0.00    +0.000 A 
ATOM     16  C   UNL     1       0.701   3.193  20.021  0.00  0.00    +0.000 A 
ATOM     17  C   UNL     1       1.492   2.705  21.057  0.00  0.00    +0.000 A 
ATOM     18  C   UNL     1       2.872   2.618  20.889  0.00  0.00    +0.000 A 
ATOM     19  C   UNL     1       3.462   3.018  19.685  0.00  0.00    +0.000 A 
ENDBRANCH  13  14
ENDBRANCH  10  13
ENDBRANCH   5  10
BRANCH   1  20
ATOM     20  C   UNL     1       0.256  11.713  18.404  0.00  0.00    +0.000 C 
BRANCH  20  22
ATOM     21  C   UNL     1       1.511  12.820  20.333  0.00  0.00    +0.000 C 
ATOM     22  C   UNL     1       1.029  12.980  18.881  0.00  0.00    +0.000 C 
ATOM     23  C   UNL     1       0.178  14.260  18.767  0.00  0.00    +0.000 C 
ATOM     24  C   UNL     1       2.265  13.168  17.978  0.00  0.00    +0.000 C 
ENDBRANCH  20  22
ENDBRANCH   1  20
BRANCH   9  25
ATOM     25  C   UNL     1      -0.223   9.624  20.691  0.00  0.00    +0.000 C 
BRANCH  25  26
ATOM     26  C   UNL     1       0.130  10.101  22.070  0.00  0.00    +0.000 C 
ATOM     27  C   UNL     1      -0.914  10.750  22.948  0.00  0.00    +0.000 C 
ATOM     28  C   UNL     1      -0.295   9.445  23.362  0.00  0.00    +0.000 C 
ENDBRANCH  25  26
ENDBRANCH   9  25
TORSDOF 7
ENDMDL
MODEL 7
REMARK VINA RESULT:      -7.6      3.524      8.095
REMARK  Name = 
REMARK  10 active torsions:
REMARK  status: ('A' for Active; 'I' for Inactive)
REMARK    1  A    between atoms: C_1  and  C_2
REMARK    2  A    between atoms: C_2  and  C_3
REMARK    3  A    between atoms: C_2  and  C_4
REMARK    4  A    between atoms: C_2  and  C_5
REMARK    5  A    between atoms: C_5  and  C_6
REMARK    6  A    between atoms: C_10  and  S_11
REMARK    7  A    between atoms: S_11  and  C_14
REMARK    8  A    between atoms: C_14  and  C_15
REMARK    9  A    between atoms: N_24  and  C_25
REMARK   10  A    between atoms: C_25  and  C_26
REMARK                            x       y       z     vdW  Elec       q    Type
REMARK                         _______ _______ _______ _____ _____    ______ ____
ROOT
ATOM      1  C   UNL     1       1.031  10.297  18.649  0.00  0.00    +0.000 A 
ATOM      2  N   UNL     1       1.897   9.838  17.767  0.00  0.00    +0.000 NA
ATOM      3  C   UNL     1       2.305   8.620  18.222  0.00  0.00    +0.000 A 
ATOM      4  C   UNL     1       3.130   7.679  17.587  0.00  0.00    +0.000 A 
ATOM      5  C   UNL     1       3.420   6.492  18.266  0.00  0.00    +0.000 A 
ATOM      6  C   UNL     1       2.946   6.266  19.563  0.00  0.00    +0.000 A 
ATOM      7  C   UNL     1       2.094   7.190  20.191  0.00  0.00    +0.000 A 
ATOM      8  C   UNL     1       1.768   8.353  19.478  0.00  0.00    +0.000 A 
ATOM      9  N   UNL     1       0.915   9.420  19.717  0.00  0.00    +0.000 N 
ENDROOT
BRANCH   5  10
ATOM     10  S   UNL     1       4.485   5.283  17.489  0.00  0.00    +0.000 S 
ATOM     11  O   UNL     1       4.887   5.837  16.207  0.00  0.00    +0.000 OA
ATOM     12  O   UNL     1       5.466   4.926  18.498  0.00  0.00    +0.000 OA
BRANCH  10  13
ATOM     13  C   UNL     1       3.406   3.882  17.182  0.00  0.00    +0.000 C 
BRANCH  13  14
ATOM     14  C   UNL     1       2.761   3.438  18.476  0.00  0.00    +0.000 A 
ATOM     15  C   UNL     1       3.539   2.941  19.533  0.00  0.00    +0.000 A 
ATOM     16  C   UNL     1       2.941   2.530  20.727  0.00  0.00    +0.000 A 
ATOM     17  C   UNL     1       1.560   2.608  20.883  0.00  0.00    +0.000 A 
ATOM     18  C   UNL     1       0.775   3.097  19.842  0.00  0.00    +0.000 A 
ATOM     19  C   UNL     1       1.370   3.509  18.644  0.00  0.00    +0.000 A 
ENDBRANCH  13  14
ENDBRANCH  10  13
ENDBRANCH   5  10
BRANCH   1  20
ATOM     20  C   UNL     1       0.266  11.580  18.474  0.00  0.00    +0.000 C 
BRANCH  20  22
ATOM     21  C   UNL     1       0.206  14.123  18.698  0.00  0.00    +0.000 C 
ATOM     22  C   UNL     1       1.068  12.859  18.861  0.00  0.00    +0.000 C 
ATOM     23  C   UNL     1       2.357  13.014  18.028  0.00  0.00    +0.000 C 
ATOM     24  C   UNL     1       1.488  12.746  20.340  0.00  0.00    +0.000 C 
ENDBRANCH  20  22
ENDBRANCH   1  20
BRANCH   9  25
ATOM     25  C   UNL     1      -0.133   9.445  20.734  0.00  0.00    +0.000 C 
BRANCH  25  26
ATOM     26  C   UNL     1       0.205  10.038  22.071  0.00  0.00    +0.000 C 
ATOM     27  C   UNL     1      -0.799  10.893  22.807  0.00  0.00    +0.000 C 
ATOM     28  C   UNL     1      -0.354   9.586  23.399  0.00  0.00    +0.000 C 
ENDBRANCH  25  26
ENDBRANCH   9  25
TORSDOF 7
ENDMDL
MODEL 8
REMARK VINA RESULT:      -7.6      2.137      2.677
REMARK  Name = 
REMARK  10 active torsions:
REMARK  status: ('A' for Active; 'I' for Inactive)
REMARK    1  A    between atoms: C_1  and  C_2
REMARK    2  A    between atoms: C_2  and  C_3
REMARK    3  A    between atoms: C_2  and  C_4
REMARK    4  A    between atoms: C_2  and  C_5
REMARK    5  A    between atoms: C_5  and  C_6
REMARK    6  A    between atoms: C_10  and  S_11
REMARK    7  A    between atoms: S_11  and  C_14
REMARK    8  A    between atoms: C_14  and  C_15
REMARK    9  A    between atoms: N_24  and  C_25
REMARK   10  A    between atoms: C_25  and  C_26
REMARK                            x       y       z     vdW  Elec       q    Type
REMARK                         _______ _______ _______ _____ _____    ______ ____
ROOT
ATOM      1  C   UNL     1       2.764   5.617  19.971  0.00  0.00    +0.000 A 
ATOM      2  N   UNL     1       2.125   6.500  20.712  0.00  0.00    +0.000 NA
ATOM      3  C   UNL     1       1.884   7.577  19.913  0.00  0.00    +0.000 A 
ATOM      4  C   UNL     1       1.134   8.727  20.195  0.00  0.00    +0.000 A 
ATOM      5  C   UNL     1       1.039   9.713  19.208  0.00  0.00    +0.000 A 
ATOM      6  C   UNL     1       1.715   9.582  17.989  0.00  0.00    +0.000 A 
ATOM      7  C   UNL     1       2.442   8.419  17.689  0.00  0.00    +0.000 A 
ATOM      8  C   UNL     1       2.485   7.415  18.668  0.00  0.00    +0.000 A 
ATOM      9  N   UNL     1       3.008   6.131  18.706  0.00  0.00    +0.000 N 
ENDROOT
BRANCH   5  10
ATOM     10  S   UNL     1       0.105  11.199  19.548  0.00  0.00    +0.000 S 
ATOM     11  O   UNL     1       0.678  12.254  18.728  0.00  0.00    +0.000 OA
ATOM     12  O   UNL     1      -1.290  10.817  19.419  0.00  0.00    +0.000 OA
BRANCH  10  13
ATOM     13  C   UNL     1       0.470  11.564  21.266  0.00  0.00    +0.000 C 
BRANCH  13  14
ATOM     14  C   UNL     1      -0.746  12.170  21.932  0.00  0.00    +0.000 A 
ATOM     15  C   UNL     1      -1.513  11.425  22.841  0.00  0.00    +0.000 A 
ATOM     16  C   UNL     1      -2.637  11.985  23.454  0.00  0.00    +0.000 A 
ATOM     17  C   UNL     1      -3.011  13.296  23.168  0.00  0.00    +0.000 A 
ATOM     18  C   UNL     1      -2.261  14.046  22.266  0.00  0.00    +0.000 A 
ATOM     19  C   UNL     1      -1.136  13.488  21.650  0.00  0.00    +0.000 A 
ENDBRANCH  13  14
ENDBRANCH  10  13
ENDBRANCH   5  10
BRANCH   1  20
ATOM     20  C   UNL     1       3.134   4.240  20.449  0.00  0.00    +0.000 C 
BRANCH  20  22
ATOM     21  C   UNL     1       2.428   2.080  19.287  0.00  0.00    +0.000 C 
ATOM     22  C   UNL     1       2.005   3.179  20.276  0.00  0.00    +0.000 C 
ATOM     23  C   UNL     1       0.681   3.809  19.800  0.00  0.00    +0.000 C 
ATOM     24  C   UNL     1       1.736   2.523  21.646  0.00  0.00    +0.000 C 
ENDBRANCH  20  22
ENDBRANCH   1  20
BRANCH   9  25
ATOM     25  C   UNL     1       3.434   5.364  17.539  0.00  0.00    +0.000 C 
BRANCH  25  26
ATOM     26  C   UNL     1       4.877   5.451  17.135  0.00  0.00    +0.000 C 
ATOM     27  C   UNL     1       5.269   6.070  15.814  0.00  0.00    +0.000 C 
ATOM     28  C   UNL     1       5.705   6.713  17.100  0.00  0.00    +0.000 C 
ENDBRANCH  25  26
ENDBRANCH   9  25
TORSDOF 7
ENDMDL
MODEL 9
REMARK VINA RESULT:      -7.6      1.066      3.653
REMARK  Name = 
REMARK  10 active torsions:
REMARK  status: ('A' for Active; 'I' for Inactive)
REMARK    1  A    between atoms: C_1  and  C_2
REMARK    2  A    between atoms: C_2  and  C_3
REMARK    3  A    between atoms: C_2  and  C_4
REMARK    4  A    between atoms: C_2  and  C_5
REMARK    5  A    between atoms: C_5  and  C_6
REMARK    6  A    between atoms: C_10  and  S_11
REMARK    7  A    between atoms: S_11  and  C_14
REMARK    8  A    between atoms: C_14  and  C_15
REMARK    9  A    between atoms: N_24  and  C_25
REMARK   10  A    between atoms: C_25  and  C_26
REMARK                            x       y       z     vdW  Elec       q    Type
REMARK                         _______ _______ _______ _____ _____    ______ ____
ROOT
ATOM      1  C   UNL     1       3.291   5.750  17.933  0.00  0.00    +0.000 A 
ATOM      2  N   UNL     1       2.929   6.934  17.484  0.00  0.00    +0.000 NA
ATOM      3  C   UNL     1       2.348   7.586  18.530  0.00  0.00    +0.000 A 
ATOM      4  C   UNL     1       1.904   8.915  18.597  0.00  0.00    +0.000 A 
ATOM      5  C   UNL     1       1.323   9.357  19.789  0.00  0.00    +0.000 A 
ATOM      6  C   UNL     1       1.141   8.488  20.871  0.00  0.00    +0.000 A 
ATOM      7  C   UNL     1       1.611   7.165  20.821  0.00  0.00    +0.000 A 
ATOM      8  C   UNL     1       2.240   6.750  19.637  0.00  0.00    +0.000 A 
ATOM      9  N   UNL     1       2.892   5.588  19.251  0.00  0.00    +0.000 N 
ENDROOT
BRANCH   5  10
ATOM     10  S   UNL     1       0.731  11.042  19.897  0.00  0.00    +0.000 S 
ATOM     11  O   UNL     1       1.344  11.629  21.077  0.00  0.00    +0.000 OA
ATOM     12  O   UNL     1       0.937  11.610  18.577  0.00  0.00    +0.000 OA
BRANCH  10  13
ATOM     13  C   UNL     1      -1.028  10.868  20.206  0.00  0.00    +0.000 C 
BRANCH  13  14
ATOM     14  C   UNL     1      -1.777  10.816  18.893  0.00  0.00    +0.000 A 
ATOM     15  C   UNL     1      -2.841  11.696  18.638  0.00  0.00    +0.000 A 
ATOM     16  C   UNL     1      -3.533  11.647  17.426  0.00  0.00    +0.000 A 
ATOM     17  C   UNL     1      -3.176  10.718  16.452  0.00  0.00    +0.000 A 
ATOM     18  C   UNL     1      -2.124   9.837  16.692  0.00  0.00    +0.000 A 
ATOM     19  C   UNL     1      -1.429   9.884  17.905  0.00  0.00    +0.000 A 
ENDBRANCH  13  14
ENDBRANCH  10  13
ENDBRANCH   5  10
BRANCH   1  20
ATOM     20  C   UNL     1       4.059   4.748  17.116  0.00  0.00    +0.000 C 
BRANCH  20  22
ATOM     21  C   UNL     1       5.775   6.591  16.694  0.00  0.00    +0.000 C 
ATOM     22  C   UNL     1       5.570   5.087  16.945  0.00  0.00    +0.000 C 
ATOM     23  C   UNL     1       6.222   4.288  15.799  0.00  0.00    +0.000 C 
ATOM     24  C   UNL     1       6.307   4.708  18.246  0.00  0.00    +0.000 C 
ENDBRANCH  20  22
ENDBRANCH   1  20
BRANCH   9  25
ATOM     25  C   UNL     1       3.350   4.542  20.162  0.00  0.00    +0.000 C 
BRANCH  25  26
ATOM     26  C   UNL     1       2.502   3.310  20.292  0.00  0.00    +0.000 C 
ATOM     27  C   UNL     1       1.818   2.983  21.599  0.00  0.00    +0.000 C 
ATOM     28  C   UNL     1       0.994   3.287  20.380  0.00  0.00    +0.000 C 
ENDBRANCH  25  26
ENDBRANCH   9  25
TORSDOF 7
ENDMDL
