MODEL 1
REMARK VINA RESULT:      -7.0      0.000      0.000
REMARK  Name = 
REMARK  10 active torsions:
REMARK  status: ('A' for Active; 'I' for Inactive)
REMARK    1  A    between atoms: C_1  and  O_2
REMARK    2  A    between atoms: O_2  and  C_3
REMARK    3  A    between atoms: C_9  and  C_10
REMARK    4  A    between atoms: C_12  and  C_13
REMARK    5  A    between atoms: C_13  and  N_14
REMARK    6  A    between atoms: N_14  and  C_15
REMARK    7  A    between atoms: C_15  and  C_16
REMARK    8  A    between atoms: C_16  and  C_17
REMARK    9  A    between atoms: C_17  and  O_18
REMARK   10  A    between atoms: O_18  and  C_19
REMARK                            x       y       z     vdW  Elec       q    Type
REMARK                         _______ _______ _______ _____ _____    ______ ____
ROOT
ATOM      1  C   UNL     1       6.413   6.900  17.077  0.00  0.00    +0.000 C 
ENDROOT
BRANCH   1   2
ATOM      2  N   UNL     1       5.094   7.167  17.649  0.00  0.00    +0.000 NA
ATOM      3  H   UNL     1       4.781   6.390  18.228  0.00  0.00    +0.000 HD
BRANCH   2   4
ATOM      4  C   UNL     1       4.094   7.362  16.610  0.00  0.00    +0.000 C 
BRANCH   4   7
ATOM      5  C   UNL     1       2.597   8.278  18.526  0.00  0.00    +0.000 C 
ATOM      6  C   UNL     1       2.573   6.764  18.613  0.00  0.00    +0.000 C 
ATOM      7  C   UNL     1       2.749   7.436  17.282  0.00  0.00    +0.000 C 
BRANCH   5  14
ATOM      8  C   UNL     1       0.887   9.193  20.255  0.00  0.00    +0.000 A 
ATOM      9  C   UNL     1      -0.364   9.789  20.500  0.00  0.00    +0.000 A 
ATOM     10  C   UNL     1      -1.167  10.233  19.450  0.00  0.00    +0.000 A 
ATOM     11  C   UNL     1      -0.713  10.113  18.146  0.00  0.00    +0.000 A 
ATOM     12 CL   UNL     1      -1.705  10.634  16.842  0.00  0.00    +0.000 Cl
ATOM     13  C   UNL     1       0.530   9.541  17.890  0.00  0.00    +0.000 A 
ATOM     14  C   UNL     1       1.353   9.048  18.927  0.00  0.00    +0.000 A 
BRANCH   8  16
ATOM     15  C   UNL     1       1.547   9.293  22.541  0.00  0.00    +0.000 C 
ATOM     16  O   UNL     1       1.693   8.698  21.252  0.00  0.00    +0.000 OA
ENDBRANCH   8  16
ENDBRANCH   5  14
ENDBRANCH   4   7
ENDBRANCH   2   4
ENDBRANCH   1   2
BRANCH   1  17
ATOM     17  C   UNL     1       7.395   6.428  18.152  0.00  0.00    +0.000 C 
BRANCH  17  18
ATOM     18  C   UNL     1       7.121   4.989  18.570  0.00  0.00    +0.000 C 
BRANCH  18  19
ATOM     19  O   UNL     1       6.372   4.326  17.555  0.00  0.00    +0.000 OA
BRANCH  19  20
ATOM     20  C   UNL     1       5.120   3.909  17.929  0.00  0.00    +0.000 A 
ATOM     21  C   UNL     1       4.216   3.742  16.881  0.00  0.00    +0.000 A 
ATOM     22  C   UNL     1       2.897   3.350  17.133  0.00  0.00    +0.000 A 
ATOM     23  C   UNL     1       2.479   3.124  18.447  0.00  0.00    +0.000 A 
ATOM     24  C   UNL     1       1.102   2.743  18.760  0.00  0.00    +0.000 A 
ATOM     25  C   UNL     1       0.735   2.554  20.036  0.00  0.00    +0.000 A 
ATOM     26  C   UNL     1       1.701   2.713  21.150  0.00  0.00    +0.000 A 
ATOM     27  O   UNL     1       1.355   2.537  22.313  0.00  0.00    +0.000 OA
ATOM     28  N   UNL     1       2.979   3.064  20.814  0.00  0.00    +0.000 N 
ATOM     29  C   UNL     1       3.393   3.282  19.492  0.00  0.00    +0.000 A 
ATOM     30  C   UNL     1       4.710   3.666  19.246  0.00  0.00    +0.000 A 
ATOM     31  H   UNL     1       3.622   3.178  21.583  0.00  0.00    +0.000 HD
ENDBRANCH  19  20
ENDBRANCH  18  19
ENDBRANCH  17  18
ENDBRANCH   1  17
TORSDOF 9
ENDMDL
MODEL 2
REMARK VINA RESULT:      -7.0      3.625      8.464
REMARK  Name = 
REMARK  10 active torsions:
REMARK  status: ('A' for Active; 'I' for Inactive)
REMARK    1  A    between atoms: C_1  and  O_2
REMARK    2  A    between atoms: O_2  and  C_3
REMARK    3  A    between atoms: C_9  and  C_10
REMARK    4  A    between atoms: C_12  and  C_13
REMARK    5  A    between atoms: C_13  and  N_14
REMARK    6  A    between atoms: N_14  and  C_15
REMARK    7  A    between atoms: C_15  and  C_16
REMARK    8  A    between atoms: C_16  and  C_17
REMARK    9  A    between atoms: C_17  and  O_18
REMARK   10  A    between atoms: O_18  and  C_19
REMARK                            x       y       z     vdW  Elec       q    Type
REMARK                         _______ _______ _______ _____ _____    ______ ____
ROOT
ATOM      1  C   UNL     1       1.054   9.206  22.937  0.00  0.00    +0.000 C 
ENDROOT
BRANCH   1   2
ATOM      2  N   UNL     1       1.814   8.752  21.773  0.00  0.00    +0.000 NA
ATOM      3  H   UNL     1       1.969   9.515  21.116  0.00  0.00    +0.000 HD
BRANCH   2   4
ATOM      4  C   UNL     1       1.109   7.700  21.056  0.00  0.00    +0.000 C 
BRANCH   4   7
ATOM      5  C   UNL     1       1.818   5.888  19.333  0.00  0.00    +0.000 C 
ATOM      6  C   UNL     1       1.884   5.258  20.711  0.00  0.00    +0.000 C 
ATOM      7  C   UNL     1       2.139   6.728  20.547  0.00  0.00    +0.000 C 
BRANCH   5  14
ATOM      8  C   UNL     1       2.716   4.235  17.542  0.00  0.00    +0.000 A 
ATOM      9  C   UNL     1       3.776   3.835  16.707  0.00  0.00    +0.000 A 
ATOM     10  C   UNL     1       4.936   4.602  16.602  0.00  0.00    +0.000 A 
ATOM     11  C   UNL     1       5.035   5.791  17.306  0.00  0.00    +0.000 A 
ATOM     12 CL   UNL     1       6.470   6.732  17.202  0.00  0.00    +0.000 Cl
ATOM     13  C   UNL     1       3.987   6.208  18.121  0.00  0.00    +0.000 A 
ATOM     14  C   UNL     1       2.812   5.438  18.281  0.00  0.00    +0.000 A 
BRANCH   8  16
ATOM     15  C   UNL     1       1.709   2.285  18.465  0.00  0.00    +0.000 C 
ATOM     16  O   UNL     1       1.574   3.491  17.716  0.00  0.00    +0.000 OA
ENDBRANCH   8  16
ENDBRANCH   5  14
ENDBRANCH   4   7
ENDBRANCH   2   4
ENDBRANCH   1   2
BRANCH   1  17
ATOM     17  C   UNL     1      -0.371   9.600  22.545  0.00  0.00    +0.000 C 
BRANCH  17  18
ATOM     18  C   UNL     1      -0.436  11.027  22.018  0.00  0.00    +0.000 C 
BRANCH  18  19
ATOM     19  O   UNL     1       0.019  11.064  20.668  0.00  0.00    +0.000 OA
BRANCH  19  20
ATOM     20  C   UNL     1      -0.967  11.188  19.722  0.00  0.00    +0.000 A 
ATOM     21  C   UNL     1      -2.106  11.873  20.143  0.00  0.00    +0.000 A 
ATOM     22  C   UNL     1      -3.196  12.041  19.282  0.00  0.00    +0.000 A 
ATOM     23  C   UNL     1      -3.146  11.517  17.988  0.00  0.00    +0.000 A 
ATOM     24  C   UNL     1      -4.273  11.642  17.065  0.00  0.00    +0.000 A 
ATOM     25  C   UNL     1      -4.193  11.109  15.837  0.00  0.00    +0.000 A 
ATOM     26  C   UNL     1      -2.974  10.397  15.382  0.00  0.00    +0.000 A 
ATOM     27  O   UNL     1      -2.911   9.913  14.257  0.00  0.00    +0.000 OA
ATOM     28  N   UNL     1      -1.942  10.307  16.272  0.00  0.00    +0.000 N 
ATOM     29  C   UNL     1      -1.997  10.842  17.569  0.00  0.00    +0.000 A 
ATOM     30  C   UNL     1      -0.905  10.678  18.420  0.00  0.00    +0.000 A 
ATOM     31  H   UNL     1      -1.124   9.811  15.952  0.00  0.00    +0.000 HD
ENDBRANCH  19  20
ENDBRANCH  18  19
ENDBRANCH  17  18
ENDBRANCH   1  17
TORSDOF 9
ENDMDL
MODEL 3
REMARK VINA RESULT:      -6.9      3.085      7.641
REMARK  Name = 
REMARK  10 active torsions:
REMARK  status: ('A' for Active; 'I' for Inactive)
REMARK    1  A    between atoms: C_1  and  O_2
REMARK    2  A    between atoms: O_2  and  C_3
REMARK    3  A    between atoms: C_9  and  C_10
REMARK    4  A    between atoms: C_12  and  C_13
REMARK    5  A    between atoms: C_13  and  N_14
REMARK    6  A    between atoms: N_14  and  C_15
REMARK    7  A    between atoms: C_15  and  C_16
REMARK    8  A    between atoms: C_16  and  C_17
REMARK    9  A    between atoms: C_17  and  O_18
REMARK   10  A    between atoms: O_18  and  C_19
REMARK                            x       y       z     vdW  Elec       q    Type
REMARK                         _______ _______ _______ _____ _____    ______ ____
ROOT
ATOM      1  C   UNL     1       0.827   3.363  20.078  0.00  0.00    +0.000 C 
ENDROOT
BRANCH   1   2
ATOM      2  N   UNL     1       1.837   2.318  19.903  0.00  0.00    +0.000 NA
ATOM      3  H   UNL     1       1.596   1.484  20.435  0.00  0.00    +0.000 HD
BRANCH   2   4
ATOM      4  C   UNL     1       3.145   2.762  20.362  0.00  0.00    +0.000 C 
BRANCH   4   7
ATOM      5  C   UNL     1       4.051   3.383  18.007  0.00  0.00    +0.000 C 
ATOM      6  C   UNL     1       3.617   1.931  17.960  0.00  0.00    +0.000 C 
ATOM      7  C   UNL     1       4.124   2.520  19.244  0.00  0.00    +0.000 C 
BRANCH   5  14
ATOM      8  C   UNL     1       6.321   4.587  17.627  0.00  0.00    +0.000 A 
ATOM      9  C   UNL     1       7.282   5.072  16.720  0.00  0.00    +0.000 A 
ATOM     10  C   UNL     1       7.173   4.815  15.354  0.00  0.00    +0.000 A 
ATOM     11  C   UNL     1       6.120   4.046  14.885  0.00  0.00    +0.000 A 
ATOM     12 CL   UNL     1       5.963   3.744  13.200  0.00  0.00    +0.000 Cl
ATOM     13  C   UNL     1       5.172   3.546  15.774  0.00  0.00    +0.000 A 
ATOM     14  C   UNL     1       5.231   3.817  17.159  0.00  0.00    +0.000 A 
BRANCH   8  16
ATOM     15  C   UNL     1       7.448   5.650  19.436  0.00  0.00    +0.000 C 
ATOM     16  O   UNL     1       6.359   4.853  18.976  0.00  0.00    +0.000 OA
ENDBRANCH   8  16
ENDBRANCH   5  14
ENDBRANCH   4   7
ENDBRANCH   2   4
ENDBRANCH   1   2
BRANCH   1  17
ATOM     17  C   UNL     1       1.302   4.691  19.485  0.00  0.00    +0.000 C 
BRANCH  17  18
ATOM     18  C   UNL     1       1.760   5.658  20.569  0.00  0.00    +0.000 C 
BRANCH  18  19
ATOM     19  O   UNL     1       2.446   6.758  19.975  0.00  0.00    +0.000 OA
BRANCH  19  20
ATOM     20  C   UNL     1       1.777   7.954  20.013  0.00  0.00    +0.000 A 
ATOM     21  C   UNL     1       1.717   8.637  18.799  0.00  0.00    +0.000 A 
ATOM     22  C   UNL     1       1.088   9.883  18.711  0.00  0.00    +0.000 A 
ATOM     23  C   UNL     1       0.516  10.453  19.850  0.00  0.00    +0.000 A 
ATOM     24  C   UNL     1      -0.125  11.768  19.812  0.00  0.00    +0.000 A 
ATOM     25  C   UNL     1      -0.646  12.289  20.932  0.00  0.00    +0.000 A 
ATOM     26  C   UNL     1      -0.600  11.556  22.220  0.00  0.00    +0.000 A 
ATOM     27  O   UNL     1      -1.081  12.042  23.238  0.00  0.00    +0.000 OA
ATOM     28  N   UNL     1       0.001  10.329  22.212  0.00  0.00    +0.000 N 
ATOM     29  C   UNL     1       0.569   9.760  21.062  0.00  0.00    +0.000 A 
ATOM     30  C   UNL     1       1.187   8.514  21.154  0.00  0.00    +0.000 A 
ATOM     31  H   UNL     1       0.034   9.847  23.097  0.00  0.00    +0.000 HD
ENDBRANCH  19  20
ENDBRANCH  18  19
ENDBRANCH  17  18
ENDBRANCH   1  17
TORSDOF 9
ENDMDL
MODEL 4
REMARK VINA RESULT:      -6.8      3.257      6.042
REMARK  Name = 
REMARK  10 active torsions:
REMARK  status: ('A' for Active; 'I' for Inactive)
REMARK    1  A    between atoms: C_1  and  O_2
REMARK    2  A    between atoms: O_2  and  C_3
REMARK    3  A    between atoms: C_9  and  C_10
REMARK    4  A    between atoms: C_12  and  C_13
REMARK    5  A    between atoms: C_13  and  N_14
REMARK    6  A    between atoms: N_14  and  C_15
REMARK    7  A    between atoms: C_15  and  C_16
REMARK    8  A    between atoms: C_16  and  C_17
REMARK    9  A    between atoms: C_17  and  O_18
REMARK   10  A    between atoms: O_18  and  C_19
REMARK                            x       y       z     vdW  Elec       q    Type
REMARK                         _______ _______ _______ _____ _____    ______ ____
ROOT
ATOM      1  C   UNL     1       0.919   9.369  20.154  0.00  0.00    +0.000 C 
ENDROOT
BRANCH   1   2
ATOM      2  N   UNL     1       0.121  10.344  20.899  0.00  0.00    +0.000 NA
ATOM      3  H   UNL     1      -0.872  10.229  20.706  0.00  0.00    +0.000 HD
BRANCH   2   4
ATOM      4  C   UNL     1       0.478  11.708  20.539  0.00  0.00    +0.000 C 
BRANCH   4   7
ATOM      5  C   UNL     1      -1.389  11.616  18.733  0.00  0.00    +0.000 C 
ATOM      6  C   UNL     1      -0.582  12.877  18.492  0.00  0.00    +0.000 C 
ATOM      7  C   UNL     1      -0.724  12.334  19.884  0.00  0.00    +0.000 C 
BRANCH   5  14
ATOM      8  C   UNL     1      -3.440  11.239  17.185  0.00  0.00    +0.000 A 
ATOM      9  C   UNL     1      -4.811  11.445  16.943  0.00  0.00    +0.000 A 
ATOM     10  C   UNL     1      -5.627  12.045  17.901  0.00  0.00    +0.000 A 
ATOM     11  C   UNL     1      -5.087  12.417  19.122  0.00  0.00    +0.000 A 
ATOM     12 CL   UNL     1      -6.078  13.179  20.301  0.00  0.00    +0.000 Cl
ATOM     13  C   UNL     1      -3.736  12.202  19.381  0.00  0.00    +0.000 A 
ATOM     14  C   UNL     1      -2.872  11.631  18.419  0.00  0.00    +0.000 A 
BRANCH   8  16
ATOM     15  C   UNL     1      -3.113  10.503  14.943  0.00  0.00    +0.000 C 
ATOM     16  O   UNL     1      -2.586  10.695  16.255  0.00  0.00    +0.000 OA
ENDBRANCH   8  16
ENDBRANCH   5  14
ENDBRANCH   4   7
ENDBRANCH   2   4
ENDBRANCH   1   2
BRANCH   1  17
ATOM     17  C   UNL     1       1.060   8.062  20.935  0.00  0.00    +0.000 C 
BRANCH  17  18
ATOM     18  C   UNL     1       2.102   7.143  20.310  0.00  0.00    +0.000 C 
BRANCH  18  19
ATOM     19  O   UNL     1       2.366   7.554  18.971  0.00  0.00    +0.000 OA
BRANCH  19  20
ATOM     20  C   UNL     1       3.072   6.656  18.212  0.00  0.00    +0.000 A 
ATOM     21  C   UNL     1       2.603   5.344  18.262  0.00  0.00    +0.000 A 
ATOM     22  C   UNL     1       3.253   4.327  17.555  0.00  0.00    +0.000 A 
ATOM     23  C   UNL     1       4.385   4.625  16.794  0.00  0.00    +0.000 A 
ATOM     24  C   UNL     1       5.115   3.588  16.065  0.00  0.00    +0.000 A 
ATOM     25  C   UNL     1       6.210   3.912  15.361  0.00  0.00    +0.000 A 
ATOM     26  C   UNL     1       6.699   5.310  15.292  0.00  0.00    +0.000 A 
ATOM     27  O   UNL     1       7.701   5.595  14.644  0.00  0.00    +0.000 OA
ATOM     28  N   UNL     1       5.986   6.249  15.982  0.00  0.00    +0.000 N 
ATOM     29  C   UNL     1       4.845   5.943  16.740  0.00  0.00    +0.000 A 
ATOM     30  C   UNL     1       4.196   6.962  17.435  0.00  0.00    +0.000 A 
ATOM     31  H   UNL     1       6.336   7.194  15.935  0.00  0.00    +0.000 HD
ENDBRANCH  19  20
ENDBRANCH  18  19
ENDBRANCH  17  18
ENDBRANCH   1  17
TORSDOF 9
ENDMDL
MODEL 5
REMARK VINA RESULT:      -6.8      3.961      6.623
REMARK  Name = 
REMARK  10 active torsions:
REMARK  status: ('A' for Active; 'I' for Inactive)
REMARK    1  A    between atoms: C_1  and  O_2
REMARK    2  A    between atoms: O_2  and  C_3
REMARK    3  A    between atoms: C_9  and  C_10
REMARK    4  A    between atoms: C_12  and  C_13
REMARK    5  A    between atoms: C_13  and  N_14
REMARK    6  A    between atoms: N_14  and  C_15
REMARK    7  A    between atoms: C_15  and  C_16
REMARK    8  A    between atoms: C_16  and  C_17
REMARK    9  A    between atoms: C_17  and  O_18
REMARK   10  A    between atoms: O_18  and  C_19
REMARK                            x       y       z     vdW  Elec       q    Type
REMARK                         _______ _______ _______ _____ _____    ______ ____
ROOT
ATOM      1  C   UNL     1      -0.493  10.178  18.976  0.00  0.00    +0.000 C 
ENDROOT
BRANCH   1   2
ATOM      2  N   UNL     1      -0.662  10.520  17.563  0.00  0.00    +0.000 NA
ATOM      3  H   UNL     1      -0.649  11.530  17.427  0.00  0.00    +0.000 HD
BRANCH   2   4
ATOM      4  C   UNL     1      -1.931  10.030  17.047  0.00  0.00    +0.000 C 
BRANCH   4   7
ATOM      5  C   UNL     1      -4.286  10.626  17.969  0.00  0.00    +0.000 C 
ATOM      6  C   UNL     1      -4.229  11.093  16.527  0.00  0.00    +0.000 C 
ATOM      7  C   UNL     1      -2.978  11.066  17.356  0.00  0.00    +0.000 C 
BRANCH   5  14
ATOM      8  C   UNL     1      -6.452  11.134  19.310  0.00  0.00    +0.000 A 
ATOM      9  C   UNL     1      -7.179  12.032  20.114  0.00  0.00    +0.000 A 
ATOM     10  C   UNL     1      -6.603  13.219  20.566  0.00  0.00    +0.000 A 
ATOM     11  C   UNL     1      -5.285  13.505  20.245  0.00  0.00    +0.000 A 
ATOM     12 CL   UNL     1      -4.573  14.976  20.776  0.00  0.00    +0.000 Cl
ATOM     13  C   UNL     1      -4.550  12.617  19.465  0.00  0.00    +0.000 A 
ATOM     14  C   UNL     1      -5.113  11.423  18.959  0.00  0.00    +0.000 A 
BRANCH   8  16
ATOM     15  C   UNL     1      -7.151   8.894  19.716  0.00  0.00    +0.000 C 
ATOM     16  O   UNL     1      -6.990   9.976  18.801  0.00  0.00    +0.000 OA
ENDBRANCH   8  16
ENDBRANCH   5  14
ENDBRANCH   4   7
ENDBRANCH   2   4
ENDBRANCH   1   2
BRANCH   1  17
ATOM     17  C   UNL     1       0.978   9.918  19.306  0.00  0.00    +0.000 C 
BRANCH  17  18
ATOM     18  C   UNL     1       1.593   8.891  18.364  0.00  0.00    +0.000 C 
BRANCH  18  19
ATOM     19  O   UNL     1       2.230   7.864  19.119  0.00  0.00    +0.000 OA
BRANCH  19  20
ATOM     20  C   UNL     1       2.903   6.925  18.379  0.00  0.00    +0.000 A 
ATOM     21  C   UNL     1       2.377   5.635  18.442  0.00  0.00    +0.000 A 
ATOM     22  C   UNL     1       2.988   4.581  17.756  0.00  0.00    +0.000 A 
ATOM     23  C   UNL     1       4.139   4.819  17.002  0.00  0.00    +0.000 A 
ATOM     24  C   UNL     1       4.830   3.741  16.294  0.00  0.00    +0.000 A 
ATOM     25  C   UNL     1       5.943   4.007  15.595  0.00  0.00    +0.000 A 
ATOM     26  C   UNL     1       6.493   5.382  15.512  0.00  0.00    +0.000 A 
ATOM     27  O   UNL     1       7.512   5.614  14.870  0.00  0.00    +0.000 OA
ATOM     28  N   UNL     1       5.816   6.361  16.182  0.00  0.00    +0.000 N 
ATOM     29  C   UNL     1       4.656   6.115  16.933  0.00  0.00    +0.000 A 
ATOM     30  C   UNL     1       4.046   7.171  17.608  0.00  0.00    +0.000 A 
ATOM     31  H   UNL     1       6.207   7.288  16.125  0.00  0.00    +0.000 HD
ENDBRANCH  19  20
ENDBRANCH  18  19
ENDBRANCH  17  18
ENDBRANCH   1  17
TORSDOF 9
ENDMDL
MODEL 6
REMARK VINA RESULT:      -6.7      3.247      8.017
REMARK  Name = 
REMARK  10 active torsions:
REMARK  status: ('A' for Active; 'I' for Inactive)
REMARK    1  A    between atoms: C_1  and  O_2
REMARK    2  A    between atoms: O_2  and  C_3
REMARK    3  A    between atoms: C_9  and  C_10
REMARK    4  A    between atoms: C_12  and  C_13
REMARK    5  A    between atoms: C_13  and  N_14
REMARK    6  A    between atoms: N_14  and  C_15
REMARK    7  A    between atoms: C_15  and  C_16
REMARK    8  A    between atoms: C_16  and  C_17
REMARK    9  A    between atoms: C_17  and  O_18
REMARK   10  A    between atoms: O_18  and  C_19
REMARK                            x       y       z     vdW  Elec       q    Type
REMARK                         _______ _______ _______ _____ _____    ______ ____
ROOT
ATOM      1  C   UNL     1       1.896   3.356  20.211  0.00  0.00    +0.000 C 
ENDROOT
BRANCH   1   2
ATOM      2  N   UNL     1       2.123   2.577  18.993  0.00  0.00    +0.000 NA
ATOM      3  H   UNL     1       1.740   1.638  19.082  0.00  0.00    +0.000 HD
BRANCH   2   4
ATOM      4  C   UNL     1       3.544   2.441  18.708  0.00  0.00    +0.000 C 
BRANCH   4   7
ATOM      5  C   UNL     1       5.254   3.902  17.407  0.00  0.00    +0.000 C 
ATOM      6  C   UNL     1       4.093   4.797  17.796  0.00  0.00    +0.000 C 
ATOM      7  C   UNL     1       3.860   3.336  17.540  0.00  0.00    +0.000 C 
BRANCH   5  14
ATOM      8  C   UNL     1       7.084   5.046  15.961  0.00  0.00    +0.000 A 
ATOM      9  C   UNL     1       7.577   5.355  14.679  0.00  0.00    +0.000 A 
ATOM     10  C   UNL     1       6.983   4.824  13.535  0.00  0.00    +0.000 A 
ATOM     11  C   UNL     1       5.911   3.956  13.661  0.00  0.00    +0.000 A 
ATOM     12 CL   UNL     1       5.157   3.316  12.256  0.00  0.00    +0.000 Cl
ATOM     13  C   UNL     1       5.424   3.629  14.923  0.00  0.00    +0.000 A 
ATOM     14  C   UNL     1       5.977   4.177  16.103  0.00  0.00    +0.000 A 
BRANCH   8  16
ATOM     15  C   UNL     1       7.355   6.967  17.343  0.00  0.00    +0.000 C 
ATOM     16  O   UNL     1       7.604   5.581  17.116  0.00  0.00    +0.000 OA
ENDBRANCH   8  16
ENDBRANCH   5  14
ENDBRANCH   4   7
ENDBRANCH   2   4
ENDBRANCH   1   2
BRANCH   1  17
ATOM     17  C   UNL     1       1.282   4.719  19.886  0.00  0.00    +0.000 C 
BRANCH  17  18
ATOM     18  C   UNL     1       1.994   5.846  20.623  0.00  0.00    +0.000 C 
BRANCH  18  19
ATOM     19  O   UNL     1       2.287   6.906  19.716  0.00  0.00    +0.000 OA
BRANCH  19  20
ATOM     20  C   UNL     1       1.657   8.095  19.982  0.00  0.00    +0.000 A 
ATOM     21  C   UNL     1       1.301   8.289  21.316  0.00  0.00    +0.000 A 
ATOM     22  C   UNL     1       0.625   9.448  21.712  0.00  0.00    +0.000 A 
ATOM     23  C   UNL     1       0.301  10.420  20.764  0.00  0.00    +0.000 A 
ATOM     24  C   UNL     1      -0.432  11.633  21.128  0.00  0.00    +0.000 A 
ATOM     25  C   UNL     1      -0.742  12.535  20.185  0.00  0.00    +0.000 A 
ATOM     26  C   UNL     1      -0.347  12.338  18.768  0.00  0.00    +0.000 A 
ATOM     27  O   UNL     1      -0.635  13.169  17.914  0.00  0.00    +0.000 OA
ATOM     28  N   UNL     1       0.341  11.196  18.472  0.00  0.00    +0.000 N 
ATOM     29  C   UNL     1       0.670  10.225  19.431  0.00  0.00    +0.000 A 
ATOM     30  C   UNL     1       1.349   9.076  19.031  0.00  0.00    +0.000 A 
ATOM     31  H   UNL     1       0.594  11.071  17.503  0.00  0.00    +0.000 HD
ENDBRANCH  19  20
ENDBRANCH  18  19
ENDBRANCH  17  18
ENDBRANCH   1  17
TORSDOF 9
ENDMDL
MODEL 7
REMARK VINA RESULT:      -6.7      1.872      2.623
REMARK  Name = 
REMARK  10 active torsions:
REMARK  status: ('A' for Active; 'I' for Inactive)
REMARK    1  A    between atoms: C_1  and  O_2
REMARK    2  A    between atoms: O_2  and  C_3
REMARK    3  A    between atoms: C_9  and  C_10
REMARK    4  A    between atoms: C_12  and  C_13
REMARK    5  A    between atoms: C_13  and  N_14
REMARK    6  A    between atoms: N_14  and  C_15
REMARK    7  A    between atoms: C_15  and  C_16
REMARK    8  A    between atoms: C_16  and  C_17
REMARK    9  A    between atoms: C_17  and  O_18
REMARK   10  A    between atoms: O_18  and  C_19
REMARK                            x       y       z     vdW  Elec       q    Type
REMARK                         _______ _______ _______ _____ _____    ______ ____
ROOT
ATOM      1  C   UNL     1       4.789   7.027  16.793  0.00  0.00    +0.000 C 
ENDROOT
BRANCH   1   2
ATOM      2  N   UNL     1       3.925   7.387  17.917  0.00  0.00    +0.000 NA
ATOM      3  H   UNL     1       3.719   6.575  18.496  0.00  0.00    +0.000 HD
BRANCH   2   4
ATOM      4  C   UNL     1       2.654   7.927  17.458  0.00  0.00    +0.000 C 
BRANCH   4   7
ATOM      5  C   UNL     1       0.877   9.619  18.312  0.00  0.00    +0.000 C 
ATOM      6  C   UNL     1       2.070  10.418  17.826  0.00  0.00    +0.000 C 
ATOM      7  C   UNL     1       2.270   9.043  18.393  0.00  0.00    +0.000 C 
BRANCH   5  14
ATOM      8  C   UNL     1      -0.804  11.264  19.416  0.00  0.00    +0.000 A 
ATOM      9  C   UNL     1      -1.377  11.778  20.595  0.00  0.00    +0.000 A 
ATOM     10  C   UNL     1      -1.085  11.218  21.838  0.00  0.00    +0.000 A 
ATOM     11  C   UNL     1      -0.244  10.120  21.913  0.00  0.00    +0.000 A 
ATOM     12 CL   UNL     1       0.141   9.437  23.442  0.00  0.00    +0.000 Cl
ATOM     13  C   UNL     1       0.316   9.590  20.753  0.00  0.00    +0.000 A 
ATOM     14  C   UNL     1       0.072  10.155  19.481  0.00  0.00    +0.000 A 
BRANCH   8  16
ATOM     15  C   UNL     1      -2.319  11.616  17.614  0.00  0.00    +0.000 C 
ATOM     16  O   UNL     1      -1.022  11.810  18.174  0.00  0.00    +0.000 OA
ENDBRANCH   8  16
ENDBRANCH   5  14
ENDBRANCH   4   7
ENDBRANCH   2   4
ENDBRANCH   1   2
BRANCH   1  17
ATOM     17  C   UNL     1       6.261   7.015  17.211  0.00  0.00    +0.000 C 
BRANCH  17  18
ATOM     18  C   UNL     1       6.604   5.773  18.023  0.00  0.00    +0.000 C 
BRANCH  18  19
ATOM     19  O   UNL     1       6.161   4.607  17.332  0.00  0.00    +0.000 OA
BRANCH  19  20
ATOM     20  C   UNL     1       4.959   4.098  17.754  0.00  0.00    +0.000 A 
ATOM     21  C   UNL     1       4.064   3.777  16.734  0.00  0.00    +0.000 A 
ATOM     22  C   UNL     1       2.793   3.277  17.033  0.00  0.00    +0.000 A 
ATOM     23  C   UNL     1       2.412   3.100  18.365  0.00  0.00    +0.000 A 
ATOM     24  C   UNL     1       1.081   2.611  18.725  0.00  0.00    +0.000 A 
ATOM     25  C   UNL     1       0.747   2.472  20.016  0.00  0.00    +0.000 A 
ATOM     26  C   UNL     1       1.705   2.797  21.102  0.00  0.00    +0.000 A 
ATOM     27  O   UNL     1       1.389   2.666  22.279  0.00  0.00    +0.000 OA
ATOM     28  N   UNL     1       2.939   3.246  20.723  0.00  0.00    +0.000 N 
ATOM     29  C   UNL     1       3.317   3.414  19.382  0.00  0.00    +0.000 A 
ATOM     30  C   UNL     1       4.588   3.905  19.090  0.00  0.00    +0.000 A 
ATOM     31  H   UNL     1       3.576   3.472  21.472  0.00  0.00    +0.000 HD
ENDBRANCH  19  20
ENDBRANCH  18  19
ENDBRANCH  17  18
ENDBRANCH   1  17
TORSDOF 9
ENDMDL
MODEL 8
REMARK VINA RESULT:      -6.7      5.607      6.626
REMARK  Name = 
REMARK  10 active torsions:
REMARK  status: ('A' for Active; 'I' for Inactive)
REMARK    1  A    between atoms: C_1  and  O_2
REMARK    2  A    between atoms: O_2  and  C_3
REMARK    3  A    between atoms: C_9  and  C_10
REMARK    4  A    between atoms: C_12  and  C_13
REMARK    5  A    between atoms: C_13  and  N_14
REMARK    6  A    between atoms: N_14  and  C_15
REMARK    7  A    between atoms: C_15  and  C_16
REMARK    8  A    between atoms: C_16  and  C_17
REMARK    9  A    between atoms: C_17  and  O_18
REMARK   10  A    between atoms: O_18  and  C_19
REMARK                            x       y       z     vdW  Elec       q    Type
REMARK                         _______ _______ _______ _____ _____    ______ ____
ROOT
ATOM      1  C   UNL     1       7.696   8.770  17.847  0.00  0.00    +0.000 C 
ENDROOT
BRANCH   1   2
ATOM      2  N   UNL     1       8.791   9.040  18.779  0.00  0.00    +0.000 NA
ATOM      3  H   UNL     1       8.518   8.827  19.737  0.00  0.00    +0.000 HD
BRANCH   2   4
ATOM      4  C   UNL     1       9.188  10.439  18.742  0.00  0.00    +0.000 C 
BRANCH   4   7
ATOM      5  C   UNL     1       9.300  12.336  20.515  0.00  0.00    +0.000 C 
ATOM      6  C   UNL     1      10.672  11.695  20.446  0.00  0.00    +0.000 C 
ATOM      7  C   UNL     1       9.448  10.875  20.159  0.00  0.00    +0.000 C 
BRANCH   5  14
ATOM      8  C   UNL     1       9.264  14.083  22.436  0.00  0.00    +0.000 A 
ATOM      9  C   UNL     1       8.874  14.412  23.748  0.00  0.00    +0.000 A 
ATOM     10  C   UNL     1       8.058  13.558  24.490  0.00  0.00    +0.000 A 
ATOM     11  C   UNL     1       7.598  12.383  23.916  0.00  0.00    +0.000 A 
ATOM     12 CL   UNL     1       6.612  11.313  24.829  0.00  0.00    +0.000 Cl
ATOM     13  C   UNL     1       7.962  12.055  22.613  0.00  0.00    +0.000 A 
ATOM     14  C   UNL     1       8.818  12.878  21.846  0.00  0.00    +0.000 A 
BRANCH   8  16
ATOM     15  C   UNL     1       9.645  16.184  21.382  0.00  0.00    +0.000 C 
ATOM     16  O   UNL     1      10.104  14.868  21.683  0.00  0.00    +0.000 OA
ENDBRANCH   8  16
ENDBRANCH   5  14
ENDBRANCH   4   7
ENDBRANCH   2   4
ENDBRANCH   1   2
BRANCH   1  17
ATOM     17  C   UNL     1       7.766   7.337  17.316  0.00  0.00    +0.000 C 
BRANCH  17  18
ATOM     18  C   UNL     1       6.863   6.400  18.108  0.00  0.00    +0.000 C 
BRANCH  18  19
ATOM     19  O   UNL     1       5.504   6.603  17.729  0.00  0.00    +0.000 OA
BRANCH  19  20
ATOM     20  C   UNL     1       4.653   5.569  18.024  0.00  0.00    +0.000 A 
ATOM     21  C   UNL     1       4.241   4.812  16.928  0.00  0.00    +0.000 A 
ATOM     22  C   UNL     1       3.349   3.747  17.092  0.00  0.00    +0.000 A 
ATOM     23  C   UNL     1       2.863   3.439  18.364  0.00  0.00    +0.000 A 
ATOM     24  C   UNL     1       1.904   2.354  18.578  0.00  0.00    +0.000 A 
ATOM     25  C   UNL     1       1.446   2.102  19.813  0.00  0.00    +0.000 A 
ATOM     26  C   UNL     1       1.898   2.895  20.982  0.00  0.00    +0.000 A 
ATOM     27  O   UNL     1       1.473   2.654  22.107  0.00  0.00    +0.000 OA
ATOM     28  N   UNL     1       2.798   3.894  20.741  0.00  0.00    +0.000 N 
ATOM     29  C   UNL     1       3.287   4.194  19.460  0.00  0.00    +0.000 A 
ATOM     30  C   UNL     1       4.182   5.251  19.304  0.00  0.00    +0.000 A 
ATOM     31  H   UNL     1       3.088   4.431  21.543  0.00  0.00    +0.000 HD
ENDBRANCH  19  20
ENDBRANCH  18  19
ENDBRANCH  17  18
ENDBRANCH   1  17
TORSDOF 9
ENDMDL
MODEL 9
REMARK VINA RESULT:      -6.6      5.239      8.762
REMARK  Name = 
REMARK  10 active torsions:
REMARK  status: ('A' for Active; 'I' for Inactive)
REMARK    1  A    between atoms: C_1  and  O_2
REMARK    2  A    between atoms: O_2  and  C_3
REMARK    3  A    between atoms: C_9  and  C_10
REMARK    4  A    between atoms: C_12  and  C_13
REMARK    5  A    between atoms: C_13  and  N_14
REMARK    6  A    between atoms: N_14  and  C_15
REMARK    7  A    between atoms: C_15  and  C_16
REMARK    8  A    between atoms: C_16  and  C_17
REMARK    9  A    between atoms: C_17  and  O_18
REMARK   10  A    between atoms: O_18  and  C_19
REMARK                            x       y       z     vdW  Elec       q    Type
REMARK                         _______ _______ _______ _____ _____    ______ ____
ROOT
ATOM      1  C   UNL     1       7.737   6.702  17.532  0.00  0.00    +0.000 C 
ENDROOT
BRANCH   1   2
ATOM      2  N   UNL     1       7.330   6.106  16.260  0.00  0.00    +0.000 NA
ATOM      3  H   UNL     1       6.579   6.642  15.828  0.00  0.00    +0.000 HD
BRANCH   2   4
ATOM      4  C   UNL     1       6.842   4.747  16.442  0.00  0.00    +0.000 C 
BRANCH   4   7
ATOM      5  C   UNL     1       4.944   4.053  18.076  0.00  0.00    +0.000 C 
ATOM      6  C   UNL     1       4.522   3.633  16.681  0.00  0.00    +0.000 C 
ATOM      7  C   UNL     1       5.401   4.835  16.867  0.00  0.00    +0.000 C 
BRANCH   5  14
ATOM      8  C   UNL     1       3.125   3.610  19.877  0.00  0.00    +0.000 A 
ATOM      9  C   UNL     1       2.045   4.102  20.634  0.00  0.00    +0.000 A 
ATOM     10  C   UNL     1       1.688   5.449  20.583  0.00  0.00    +0.000 A 
ATOM     11  C   UNL     1       2.425   6.322  19.801  0.00  0.00    +0.000 A 
ATOM     12 CL   UNL     1       1.978   7.979  19.712  0.00  0.00    +0.000 Cl
ATOM     13  C   UNL     1       3.506   5.852  19.060  0.00  0.00    +0.000 A 
ATOM     14  C   UNL     1       3.874   4.488  19.059  0.00  0.00    +0.000 A 
BRANCH   8  16
ATOM     15  C   UNL     1       4.404   1.859  20.862  0.00  0.00    +0.000 C 
ATOM     16  O   UNL     1       3.487   2.284  19.856  0.00  0.00    +0.000 OA
ENDBRANCH   8  16
ENDBRANCH   5  14
ENDBRANCH   4   7
ENDBRANCH   2   4
ENDBRANCH   1   2
BRANCH   1  17
ATOM     17  C   UNL     1       7.082   8.070  17.734  0.00  0.00    +0.000 C 
BRANCH  17  18
ATOM     18  C   UNL     1       8.096   9.201  17.617  0.00  0.00    +0.000 C 
BRANCH  18  19
ATOM     19  O   UNL     1       8.812   9.335  18.841  0.00  0.00    +0.000 OA
BRANCH  19  20
ATOM     20  C   UNL     1       9.336  10.580  19.080  0.00  0.00    +0.000 A 
ATOM     21  C   UNL     1      10.152  11.081  18.066  0.00  0.00    +0.000 A 
ATOM     22  C   UNL     1      10.772  12.328  18.200  0.00  0.00    +0.000 A 
ATOM     23  C   UNL     1      10.575  13.080  19.360  0.00  0.00    +0.000 A 
ATOM     24  C   UNL     1      11.228  14.374  19.557  0.00  0.00    +0.000 A 
ATOM     25  C   UNL     1      11.028  15.057  20.694  0.00  0.00    +0.000 A 
ATOM     26  C   UNL     1      10.146  14.533  21.765  0.00  0.00    +0.000 A 
ATOM     27  O   UNL     1       9.970  15.166  22.800  0.00  0.00    +0.000 OA
ATOM     28  N   UNL     1       9.551  13.324  21.540  0.00  0.00    +0.000 N 
ATOM     29  C   UNL     1       9.748  12.577  20.368  0.00  0.00    +0.000 A 
ATOM     30  C   UNL     1       9.122  11.339  20.237  0.00  0.00    +0.000 A 
ATOM     31  H   UNL     1       8.962  12.976  22.281  0.00  0.00    +0.000 HD
ENDBRANCH  19  20
ENDBRANCH  18  19
ENDBRANCH  17  18
ENDBRANCH   1  17
TORSDOF 9
ENDMDL
