MODEL 1
REMARK VINA RESULT:      -9.3      0.000      0.000
REMARK  Name = 
REMARK  7 active torsions:
REMARK  status: ('A' for Active; 'I' for Inactive)
REMARK    1  A    between atoms: C_1  and  C_2
REMARK    2  A    between atoms: C_4  and  C_5
REMARK    3  A    between atoms: C_9  and  C_11
REMARK    4  A    between atoms: C_11  and  C_12
REMARK    5  A    between atoms: C_12  and  C_13
REMARK    6  A    between atoms: N_15  and  C_16
REMARK    7  A    between atoms: C_16  and  C_17
REMARK                            x       y       z     vdW  Elec       q    Type
REMARK                         _______ _______ _______ _____ _____    ______ ____
ROOT
ATOM      1  C   UNL     1       4.566   4.517  19.068  0.00  0.00    +0.000 A 
ATOM      2  C   UNL     1       4.065   5.447  19.953  0.00  0.00    +0.000 A 
ATOM      3  N   UNL     1       2.742   5.173  20.179  0.00  0.00    +0.000 N 
ATOM      4  C   UNL     1       2.365   4.047  19.476  0.00  0.00    +0.000 A 
ATOM      5  C   UNL     1       1.135   3.373  19.398  0.00  0.00    +0.000 A 
ATOM      6  C   UNL     1       1.048   2.244  18.578  0.00  0.00    +0.000 A 
ATOM      7  C   UNL     1       2.147   1.805  17.850  0.00  0.00    +0.000 A 
ATOM      8  C   UNL     1       3.369   2.484  17.928  0.00  0.00    +0.000 A 
ATOM      9  C   UNL     1       3.490   3.619  18.761  0.00  0.00    +0.000 A 
ENDROOT
BRANCH   1  10
ATOM     10  C   UNL     1       5.947   4.487  18.496  0.00  0.00    +0.000 C 
BRANCH  10  11
ATOM     11  C   UNL     1       6.517   5.866  18.154  0.00  0.00    +0.000 C 
BRANCH  11  20
ATOM     12  C   UNL     1       5.506   2.388  11.826  0.00  0.00    +0.000 C 
ATOM     13  C   UNL     1       6.217   3.481  12.564  0.00  0.00    +0.000 A 
ATOM     14  C   UNL     1       7.136   4.312  11.919  0.00  0.00    +0.000 A 
ATOM     15  C   UNL     1       7.764   5.307  12.653  0.00  0.00    +0.000 A 
ATOM     16  C   UNL     1       8.758   6.244  12.040  0.00  0.00    +0.000 C 
ATOM     17  N   UNL     1       7.515   5.494  13.964  0.00  0.00    +0.000 NA
ATOM     18  C   UNL     1       6.632   4.703  14.589  0.00  0.00    +0.000 A 
ATOM     19  N   UNL     1       6.365   4.899  15.953  0.00  0.00    +0.000 N 
ATOM     20  C   UNL     1       6.963   5.890  16.709  0.00  0.00    +0.000 C 
ATOM     21  O   UNL     1       7.779   6.722  16.322  0.00  0.00    +0.000 OA
ATOM     22  C   UNL     1       5.963   3.684  13.925  0.00  0.00    +0.000 A 
ATOM     23  H   UNL     1       5.698   4.283  16.391  0.00  0.00    +0.000 HD
ENDBRANCH  11  20
ENDBRANCH  10  11
ENDBRANCH   1  10
BRANCH   3  24
ATOM     24  C   UNL     1       1.874   6.009  21.003  0.00  0.00    +0.000 C 
BRANCH  24  25
ATOM     25  C   UNL     1       1.684   7.375  20.390  0.00  0.00    +0.000 A 
ATOM     26  C   UNL     1       1.006   8.390  21.086  0.00  0.00    +0.000 A 
ATOM     27  C   UNL     1       0.720   9.608  20.464  0.00  0.00    +0.000 A 
ATOM     28  C   UNL     1       1.138   9.829  19.157  0.00  0.00    +0.000 A 
ATOM     29 CL   UNL     1       0.718  11.296  18.363  0.00  0.00    +0.000 Cl
ATOM     30  C   UNL     1       1.876   8.861  18.478  0.00  0.00    +0.000 A 
ATOM     31  C   UNL     1       2.150   7.638  19.094  0.00  0.00    +0.000 A 
ENDBRANCH  24  25
ENDBRANCH   3  24
TORSDOF 5
ENDMDL
MODEL 2
REMARK VINA RESULT:      -9.3      4.086      8.368
REMARK  Name = 
REMARK  7 active torsions:
REMARK  status: ('A' for Active; 'I' for Inactive)
REMARK    1  A    between atoms: C_1  and  C_2
REMARK    2  A    between atoms: C_4  and  C_5
REMARK    3  A    between atoms: C_9  and  C_11
REMARK    4  A    between atoms: C_11  and  C_12
REMARK    5  A    between atoms: C_12  and  C_13
REMARK    6  A    between atoms: N_15  and  C_16
REMARK    7  A    between atoms: C_16  and  C_17
REMARK                            x       y       z     vdW  Elec       q    Type
REMARK                         _______ _______ _______ _____ _____    ______ ____
ROOT
ATOM      1  C   UNL     1       2.710   6.588  19.333  0.00  0.00    +0.000 A 
ATOM      2  C   UNL     1       3.973   6.478  18.792  0.00  0.00    +0.000 A 
ATOM      3  N   UNL     1       4.423   5.198  18.980  0.00  0.00    +0.000 N 
ATOM      4  C   UNL     1       3.458   4.444  19.613  0.00  0.00    +0.000 A 
ATOM      5  C   UNL     1       3.444   3.094  20.002  0.00  0.00    +0.000 A 
ATOM      6  C   UNL     1       2.307   2.602  20.650  0.00  0.00    +0.000 A 
ATOM      7  C   UNL     1       1.221   3.428  20.913  0.00  0.00    +0.000 A 
ATOM      8  C   UNL     1       1.243   4.774  20.527  0.00  0.00    +0.000 A 
ATOM      9  C   UNL     1       2.373   5.295  19.857  0.00  0.00    +0.000 A 
ENDROOT
BRANCH   1  10
ATOM     10  C   UNL     1       1.879   7.828  19.411  0.00  0.00    +0.000 C 
BRANCH  10  11
ATOM     11  C   UNL     1       1.884   8.671  18.133  0.00  0.00    +0.000 C 
BRANCH  11  20
ATOM     12  C   UNL     1       3.776  15.704  17.780  0.00  0.00    +0.000 C 
ATOM     13  C   UNL     1       2.736  14.696  18.165  0.00  0.00    +0.000 A 
ATOM     14  C   UNL     1       1.516  15.089  18.718  0.00  0.00    +0.000 A 
ATOM     15  C   UNL     1       0.590  14.112  19.054  0.00  0.00    +0.000 A 
ATOM     16  C   UNL     1      -0.743  14.447  19.648  0.00  0.00    +0.000 C 
ATOM     17  N   UNL     1       0.834  12.801  18.863  0.00  0.00    +0.000 NA
ATOM     18  C   UNL     1       2.002  12.416  18.329  0.00  0.00    +0.000 A 
ATOM     19  N   UNL     1       2.256  11.052  18.122  0.00  0.00    +0.000 N 
ATOM     20  C   UNL     1       1.350  10.054  18.433  0.00  0.00    +0.000 C 
ATOM     21  O   UNL     1       0.228  10.199  18.909  0.00  0.00    +0.000 OA
ATOM     22  C   UNL     1       2.979  13.332  17.967  0.00  0.00    +0.000 A 
ATOM     23  H   UNL     1       3.145  10.798  17.722  0.00  0.00    +0.000 HD
ENDBRANCH  11  20
ENDBRANCH  10  11
ENDBRANCH   1  10
BRANCH   3  24
ATOM     24  C   UNL     1       5.761   4.751  18.603  0.00  0.00    +0.000 C 
BRANCH  24  25
ATOM     25  C   UNL     1       5.900   4.634  17.105  0.00  0.00    +0.000 A 
ATOM     26  C   UNL     1       4.893   4.033  16.331  0.00  0.00    +0.000 A 
ATOM     27  C   UNL     1       5.084   3.811  14.966  0.00  0.00    +0.000 A 
ATOM     28  C   UNL     1       6.269   4.216  14.361  0.00  0.00    +0.000 A 
ATOM     29 CL   UNL     1       6.539   3.871  12.698  0.00  0.00    +0.000 Cl
ATOM     30  C   UNL     1       7.247   4.879  15.099  0.00  0.00    +0.000 A 
ATOM     31  C   UNL     1       7.062   5.089  16.467  0.00  0.00    +0.000 A 
ENDBRANCH  24  25
ENDBRANCH   3  24
TORSDOF 5
ENDMDL
MODEL 3
REMARK VINA RESULT:      -9.2      3.824      8.768
REMARK  Name = 
REMARK  7 active torsions:
REMARK  status: ('A' for Active; 'I' for Inactive)
REMARK    1  A    between atoms: C_1  and  C_2
REMARK    2  A    between atoms: C_4  and  C_5
REMARK    3  A    between atoms: C_9  and  C_11
REMARK    4  A    between atoms: C_11  and  C_12
REMARK    5  A    between atoms: C_12  and  C_13
REMARK    6  A    between atoms: N_15  and  C_16
REMARK    7  A    between atoms: C_16  and  C_17
REMARK                            x       y       z     vdW  Elec       q    Type
REMARK                         _______ _______ _______ _____ _____    ______ ____
ROOT
ATOM      1  C   UNL     1       2.743   6.409  19.536  0.00  0.00    +0.000 A 
ATOM      2  C   UNL     1       4.016   6.288  19.021  0.00  0.00    +0.000 A 
ATOM      3  N   UNL     1       4.405   4.978  19.111  0.00  0.00    +0.000 N 
ATOM      4  C   UNL     1       3.389   4.218  19.652  0.00  0.00    +0.000 A 
ATOM      5  C   UNL     1       3.306   2.842  19.923  0.00  0.00    +0.000 A 
ATOM      6  C   UNL     1       2.130   2.349  20.497  0.00  0.00    +0.000 A 
ATOM      7  C   UNL     1       1.073   3.199  20.800  0.00  0.00    +0.000 A 
ATOM      8  C   UNL     1       1.164   4.570  20.532  0.00  0.00    +0.000 A 
ATOM      9  C   UNL     1       2.335   5.094  19.938  0.00  0.00    +0.000 A 
ENDROOT
BRANCH   1  10
ATOM     10  C   UNL     1       1.965   7.675  19.698  0.00  0.00    +0.000 C 
BRANCH  10  11
ATOM     11  C   UNL     1       1.745   8.097  21.154  0.00  0.00    +0.000 C 
BRANCH  11  20
ATOM     12  C   UNL     1      -3.434  11.468  17.282  0.00  0.00    +0.000 C 
ATOM     13  C   UNL     1      -2.593  11.457  18.522  0.00  0.00    +0.000 A 
ATOM     14  C   UNL     1      -2.714  12.458  19.489  0.00  0.00    +0.000 A 
ATOM     15  C   UNL     1      -1.910  12.396  20.617  0.00  0.00    +0.000 A 
ATOM     16  C   UNL     1      -1.979  13.425  21.703  0.00  0.00    +0.000 C 
ATOM     17  N   UNL     1      -1.020  11.403  20.807  0.00  0.00    +0.000 NA
ATOM     18  C   UNL     1      -0.900  10.436  19.886  0.00  0.00    +0.000 A 
ATOM     19  N   UNL     1       0.021   9.397  20.083  0.00  0.00    +0.000 N 
ATOM     20  C   UNL     1       0.827   9.298  21.203  0.00  0.00    +0.000 C 
ATOM     21  O   UNL     1       0.856  10.066  22.161  0.00  0.00    +0.000 OA
ATOM     22  C   UNL     1      -1.668  10.428  18.730  0.00  0.00    +0.000 A 
ATOM     23  H   UNL     1       0.087   8.689  19.369  0.00  0.00    +0.000 HD
ENDBRANCH  11  20
ENDBRANCH  10  11
ENDBRANCH   1  10
BRANCH   3  24
ATOM     24  C   UNL     1       5.733   4.503  18.733  0.00  0.00    +0.000 C 
BRANCH  24  25
ATOM     25  C   UNL     1       5.907   4.493  17.234  0.00  0.00    +0.000 A 
ATOM     26  C   UNL     1       4.910   3.965  16.395  0.00  0.00    +0.000 A 
ATOM     27  C   UNL     1       5.132   3.839  15.022  0.00  0.00    +0.000 A 
ATOM     28  C   UNL     1       6.336   4.270  14.476  0.00  0.00    +0.000 A 
ATOM     29 CL   UNL     1       6.642   4.043  12.799  0.00  0.00    +0.000 Cl
ATOM     30  C   UNL     1       7.305   4.863  15.283  0.00  0.00    +0.000 A 
ATOM     31  C   UNL     1       7.090   4.976  16.658  0.00  0.00    +0.000 A 
ENDBRANCH  24  25
ENDBRANCH   3  24
TORSDOF 5
ENDMDL
MODEL 4
REMARK VINA RESULT:      -9.1      3.940      8.663
REMARK  Name = 
REMARK  7 active torsions:
REMARK  status: ('A' for Active; 'I' for Inactive)
REMARK    1  A    between atoms: C_1  and  C_2
REMARK    2  A    between atoms: C_4  and  C_5
REMARK    3  A    between atoms: C_9  and  C_11
REMARK    4  A    between atoms: C_11  and  C_12
REMARK    5  A    between atoms: C_12  and  C_13
REMARK    6  A    between atoms: N_15  and  C_16
REMARK    7  A    between atoms: C_16  and  C_17
REMARK                            x       y       z     vdW  Elec       q    Type
REMARK                         _______ _______ _______ _____ _____    ______ ____
ROOT
ATOM      1  C   UNL     1       2.642   6.252  18.224  0.00  0.00    +0.000 A 
ATOM      2  C   UNL     1       3.884   6.072  17.654  0.00  0.00    +0.000 A 
ATOM      3  N   UNL     1       4.472   4.971  18.219  0.00  0.00    +0.000 N 
ATOM      4  C   UNL     1       3.619   4.397  19.139  0.00  0.00    +0.000 A 
ATOM      5  C   UNL     1       3.763   3.261  19.952  0.00  0.00    +0.000 A 
ATOM      6  C   UNL     1       2.714   2.923  20.812  0.00  0.00    +0.000 A 
ATOM      7  C   UNL     1       1.561   3.697  20.870  0.00  0.00    +0.000 A 
ATOM      8  C   UNL     1       1.426   4.832  20.060  0.00  0.00    +0.000 A 
ATOM      9  C   UNL     1       2.464   5.188  19.170  0.00  0.00    +0.000 A 
ENDROOT
BRANCH   1  10
ATOM     10  C   UNL     1       1.693   7.374  17.952  0.00  0.00    +0.000 C 
BRANCH  10  11
ATOM     11  C   UNL     1       2.251   8.764  18.271  0.00  0.00    +0.000 C 
BRANCH  11  20
ATOM     12  C   UNL     1      -4.390  11.190  16.486  0.00  0.00    +0.000 C 
ATOM     13  C   UNL     1      -3.264  11.210  17.474  0.00  0.00    +0.000 A 
ATOM     14  C   UNL     1      -3.335  11.979  18.638  0.00  0.00    +0.000 A 
ATOM     15  C   UNL     1      -2.262  11.959  19.517  0.00  0.00    +0.000 A 
ATOM     16  C   UNL     1      -2.258  12.749  20.789  0.00  0.00    +0.000 C 
ATOM     17  N   UNL     1      -1.158  11.223  19.281  0.00  0.00    +0.000 NA
ATOM     18  C   UNL     1      -1.084  10.479  18.168  0.00  0.00    +0.000 A 
ATOM     19  N   UNL     1       0.061   9.706  17.923  0.00  0.00    +0.000 N 
ATOM     20  C   UNL     1       1.140   9.653  18.785  0.00  0.00    +0.000 C 
ATOM     21  O   UNL     1       1.259  10.241  19.857  0.00  0.00    +0.000 OA
ATOM     22  C   UNL     1      -2.115  10.447  17.240  0.00  0.00    +0.000 A 
ATOM     23  H   UNL     1       0.084   9.162  17.075  0.00  0.00    +0.000 HD
ENDBRANCH  11  20
ENDBRANCH  10  11
ENDBRANCH   1  10
BRANCH   3  24
ATOM     24  C   UNL     1       5.831   4.535  17.910  0.00  0.00    +0.000 C 
BRANCH  24  25
ATOM     25  C   UNL     1       6.082   4.531  16.422  0.00  0.00    +0.000 A 
ATOM     26  C   UNL     1       5.270   3.781  15.555  0.00  0.00    +0.000 A 
ATOM     27  C   UNL     1       5.586   3.678  14.199  0.00  0.00    +0.000 A 
ATOM     28  C   UNL     1       6.695   4.349  13.696  0.00  0.00    +0.000 A 
ATOM     29 CL   UNL     1       7.131   4.159  12.043  0.00  0.00    +0.000 Cl
ATOM     30  C   UNL     1       7.467   5.157  14.528  0.00  0.00    +0.000 A 
ATOM     31  C   UNL     1       7.161   5.249  15.887  0.00  0.00    +0.000 A 
ENDBRANCH  24  25
ENDBRANCH   3  24
TORSDOF 5
ENDMDL
MODEL 5
REMARK VINA RESULT:      -9.1      3.749      8.604
REMARK  Name = 
REMARK  7 active torsions:
REMARK  status: ('A' for Active; 'I' for Inactive)
REMARK    1  A    between atoms: C_1  and  C_2
REMARK    2  A    between atoms: C_4  and  C_5
REMARK    3  A    between atoms: C_9  and  C_11
REMARK    4  A    between atoms: C_11  and  C_12
REMARK    5  A    between atoms: C_12  and  C_13
REMARK    6  A    between atoms: N_15  and  C_16
REMARK    7  A    between atoms: C_16  and  C_17
REMARK                            x       y       z     vdW  Elec       q    Type
REMARK                         _______ _______ _______ _____ _____    ______ ____
ROOT
ATOM      1  C   UNL     1       2.815   6.572  19.071  0.00  0.00    +0.000 A 
ATOM      2  C   UNL     1       4.054   6.409  18.491  0.00  0.00    +0.000 A 
ATOM      3  N   UNL     1       4.514   5.151  18.779  0.00  0.00    +0.000 N 
ATOM      4  C   UNL     1       3.576   4.462  19.520  0.00  0.00    +0.000 A 
ATOM      5  C   UNL     1       3.580   3.154  20.033  0.00  0.00    +0.000 A 
ATOM      6  C   UNL     1       2.472   2.728  20.771  0.00  0.00    +0.000 A 
ATOM      7  C   UNL     1       1.397   3.578  21.000  0.00  0.00    +0.000 A 
ATOM      8  C   UNL     1       1.401   4.882  20.489  0.00  0.00    +0.000 A 
ATOM      9  C   UNL     1       2.501   5.335  19.727  0.00  0.00    +0.000 A 
ENDROOT
BRANCH   1  10
ATOM     10  C   UNL     1       1.987   7.817  19.068  0.00  0.00    +0.000 C 
BRANCH  10  11
ATOM     11  C   UNL     1       2.138   8.670  17.806  0.00  0.00    +0.000 C 
BRANCH  11  20
ATOM     12  C   UNL     1      -3.261  12.702  20.593  0.00  0.00    +0.000 C 
ATOM     13  C   UNL     1      -1.897  12.677  19.972  0.00  0.00    +0.000 A 
ATOM     14  C   UNL     1      -1.182  13.855  19.747  0.00  0.00    +0.000 A 
ATOM     15  C   UNL     1       0.077  13.771  19.170  0.00  0.00    +0.000 A 
ATOM     16  C   UNL     1       0.912  14.983  18.899  0.00  0.00    +0.000 C 
ATOM     17  N   UNL     1       0.626  12.591  18.820  0.00  0.00    +0.000 NA
ATOM     18  C   UNL     1      -0.054  11.455  19.036  0.00  0.00    +0.000 A 
ATOM     19  N   UNL     1       0.518  10.225  18.679  0.00  0.00    +0.000 N 
ATOM     20  C   UNL     1       1.774  10.105  18.115  0.00  0.00    +0.000 C 
ATOM     21  O   UNL     1       2.557  11.016  17.856  0.00  0.00    +0.000 OA
ATOM     22  C   UNL     1      -1.318  11.456  19.608  0.00  0.00    +0.000 A 
ATOM     23  H   UNL     1      -0.022   9.392  18.852  0.00  0.00    +0.000 HD
ENDBRANCH  11  20
ENDBRANCH  10  11
ENDBRANCH   1  10
BRANCH   3  24
ATOM     24  C   UNL     1       5.835   4.667  18.391  0.00  0.00    +0.000 C 
BRANCH  24  25
ATOM     25  C   UNL     1       5.971   4.582  16.890  0.00  0.00    +0.000 A 
ATOM     26  C   UNL     1       4.977   3.968  16.109  0.00  0.00    +0.000 A 
ATOM     27  C   UNL     1       5.169   3.777  14.739  0.00  0.00    +0.000 A 
ATOM     28  C   UNL     1       6.339   4.228  14.137  0.00  0.00    +0.000 A 
ATOM     29 CL   UNL     1       6.611   3.923  12.466  0.00  0.00    +0.000 Cl
ATOM     30  C   UNL     1       7.301   4.905  14.884  0.00  0.00    +0.000 A 
ATOM     31  C   UNL     1       7.117   5.083  16.256  0.00  0.00    +0.000 A 
ENDBRANCH  24  25
ENDBRANCH   3  24
TORSDOF 5
ENDMDL
MODEL 6
REMARK VINA RESULT:      -9.0      4.172      7.009
REMARK  Name = 
REMARK  7 active torsions:
REMARK  status: ('A' for Active; 'I' for Inactive)
REMARK    1  A    between atoms: C_1  and  C_2
REMARK    2  A    between atoms: C_4  and  C_5
REMARK    3  A    between atoms: C_9  and  C_11
REMARK    4  A    between atoms: C_11  and  C_12
REMARK    5  A    between atoms: C_12  and  C_13
REMARK    6  A    between atoms: N_15  and  C_16
REMARK    7  A    between atoms: C_16  and  C_17
REMARK                            x       y       z     vdW  Elec       q    Type
REMARK                         _______ _______ _______ _____ _____    ______ ____
ROOT
ATOM      1  C   UNL     1      -0.027  10.295  19.051  0.00  0.00    +0.000 A 
ATOM      2  C   UNL     1      -0.678  11.485  18.807  0.00  0.00    +0.000 A 
ATOM      3  N   UNL     1      -1.176  11.966  19.989  0.00  0.00    +0.000 N 
ATOM      4  C   UNL     1      -0.836  11.121  21.025  0.00  0.00    +0.000 A 
ATOM      5  C   UNL     1      -1.099  11.193  22.403  0.00  0.00    +0.000 A 
ATOM      6  C   UNL     1      -0.627  10.164  23.223  0.00  0.00    +0.000 A 
ATOM      7  C   UNL     1       0.076   9.091  22.689  0.00  0.00    +0.000 A 
ATOM      8  C   UNL     1       0.331   9.023  21.314  0.00  0.00    +0.000 A 
ATOM      9  C   UNL     1      -0.121  10.057  20.463  0.00  0.00    +0.000 A 
ENDROOT
BRANCH   1  10
ATOM     10  C   UNL     1       0.601   9.399  18.033  0.00  0.00    +0.000 C 
BRANCH  10  11
ATOM     11  C   UNL     1       2.132   9.424  18.030  0.00  0.00    +0.000 C 
BRANCH  11  20
ATOM     12  C   UNL     1       6.797   4.842  14.804  0.00  0.00    +0.000 C 
ATOM     13  C   UNL     1       5.787   5.055  15.890  0.00  0.00    +0.000 A 
ATOM     14  C   UNL     1       5.459   4.034  16.785  0.00  0.00    +0.000 A 
ATOM     15  C   UNL     1       4.516   4.289  17.771  0.00  0.00    +0.000 A 
ATOM     16  C   UNL     1       4.111   3.253  18.773  0.00  0.00    +0.000 C 
ATOM     17  N   UNL     1       3.911   5.487  17.888  0.00  0.00    +0.000 NA
ATOM     18  C   UNL     1       4.222   6.473  17.034  0.00  0.00    +0.000 A 
ATOM     19  N   UNL     1       3.598   7.723  17.158  0.00  0.00    +0.000 N 
ATOM     20  C   UNL     1       2.665   8.013  18.136  0.00  0.00    +0.000 C 
ATOM     21  O   UNL     1       2.261   7.259  19.017  0.00  0.00    +0.000 OA
ATOM     22  C   UNL     1       5.154   6.296  16.021  0.00  0.00    +0.000 A 
ATOM     23  H   UNL     1       3.853   8.439  16.497  0.00  0.00    +0.000 HD
ENDBRANCH  11  20
ENDBRANCH  10  11
ENDBRANCH   1  10
BRANCH   3  24
ATOM     24  C   UNL     1      -1.996  13.169  20.088  0.00  0.00    +0.000 C 
BRANCH  24  25
ATOM     25  C   UNL     1      -3.460  12.827  20.227  0.00  0.00    +0.000 A 
ATOM     26  C   UNL     1      -4.150  13.082  21.424  0.00  0.00    +0.000 A 
ATOM     27  C   UNL     1      -5.466  12.645  21.591  0.00  0.00    +0.000 A 
ATOM     28  C   UNL     1      -6.109  11.981  20.552  0.00  0.00    +0.000 A 
ATOM     29 CL   UNL     1      -7.701  11.373  20.783  0.00  0.00    +0.000 Cl
ATOM     30  C   UNL     1      -5.463  11.786  19.332  0.00  0.00    +0.000 A 
ATOM     31  C   UNL     1      -4.143  12.210  19.170  0.00  0.00    +0.000 A 
ENDBRANCH  24  25
ENDBRANCH   3  24
TORSDOF 5
ENDMDL
MODEL 7
REMARK VINA RESULT:      -9.0      4.144      7.699
REMARK  Name = 
REMARK  7 active torsions:
REMARK  status: ('A' for Active; 'I' for Inactive)
REMARK    1  A    between atoms: C_1  and  C_2
REMARK    2  A    between atoms: C_4  and  C_5
REMARK    3  A    between atoms: C_9  and  C_11
REMARK    4  A    between atoms: C_11  and  C_12
REMARK    5  A    between atoms: C_12  and  C_13
REMARK    6  A    between atoms: N_15  and  C_16
REMARK    7  A    between atoms: C_16  and  C_17
REMARK                            x       y       z     vdW  Elec       q    Type
REMARK                         _______ _______ _______ _____ _____    ______ ____
ROOT
ATOM      1  C   UNL     1      -0.191  10.465  19.024  0.00  0.00    +0.000 A 
ATOM      2  C   UNL     1      -0.822  11.674  18.823  0.00  0.00    +0.000 A 
ATOM      3  N   UNL     1      -1.297  12.128  20.026  0.00  0.00    +0.000 N 
ATOM      4  C   UNL     1      -0.960  11.246  21.032  0.00  0.00    +0.000 A 
ATOM      5  C   UNL     1      -1.206  11.281  22.414  0.00  0.00    +0.000 A 
ATOM      6  C   UNL     1      -0.745  10.218  23.197  0.00  0.00    +0.000 A 
ATOM      7  C   UNL     1      -0.069   9.149  22.622  0.00  0.00    +0.000 A 
ATOM      8  C   UNL     1       0.169   9.118  21.242  0.00  0.00    +0.000 A 
ATOM      9  C   UNL     1      -0.273  10.186  20.429  0.00  0.00    +0.000 A 
ENDROOT
BRANCH   1  10
ATOM     10  C   UNL     1       0.408   9.588  17.971  0.00  0.00    +0.000 C 
BRANCH  10  11
ATOM     11  C   UNL     1       1.935   9.657  17.888  0.00  0.00    +0.000 C 
BRANCH  11  20
ATOM     12  C   UNL     1       1.721   3.191  21.251  0.00  0.00    +0.000 C 
ATOM     13  C   UNL     1       2.290   4.014  20.136  0.00  0.00    +0.000 A 
ATOM     14  C   UNL     1       3.204   3.472  19.229  0.00  0.00    +0.000 A 
ATOM     15  C   UNL     1       3.697   4.280  18.216  0.00  0.00    +0.000 A 
ATOM     16  C   UNL     1       4.676   3.778  17.200  0.00  0.00    +0.000 C 
ATOM     17  N   UNL     1       3.321   5.567  18.081  0.00  0.00    +0.000 NA
ATOM     18  C   UNL     1       2.441   6.094  18.945  0.00  0.00    +0.000 A 
ATOM     19  N   UNL     1       2.042   7.431  18.803  0.00  0.00    +0.000 N 
ATOM     20  C   UNL     1       2.504   8.259  17.797  0.00  0.00    +0.000 C 
ATOM     21  O   UNL     1       3.293   7.965  16.903  0.00  0.00    +0.000 OA
ATOM     22  C   UNL     1       1.903   5.350  19.986  0.00  0.00    +0.000 A 
ATOM     23  H   UNL     1       1.383   7.795  19.472  0.00  0.00    +0.000 HD
ENDBRANCH  11  20
ENDBRANCH  10  11
ENDBRANCH   1  10
BRANCH   3  24
ATOM     24  C   UNL     1      -2.093  13.343  20.172  0.00  0.00    +0.000 C 
BRANCH  24  25
ATOM     25  C   UNL     1      -3.539  13.021  20.461  0.00  0.00    +0.000 A 
ATOM     26  C   UNL     1      -4.057  13.134  21.763  0.00  0.00    +0.000 A 
ATOM     27  C   UNL     1      -5.356  12.712  22.048  0.00  0.00    +0.000 A 
ATOM     28  C   UNL     1      -6.156  12.205  21.030  0.00  0.00    +0.000 A 
ATOM     29 CL   UNL     1      -7.728  11.610  21.395  0.00  0.00    +0.000 Cl
ATOM     30  C   UNL     1      -5.683  12.155  19.720  0.00  0.00    +0.000 A 
ATOM     31  C   UNL     1      -4.378  12.564  19.436  0.00  0.00    +0.000 A 
ENDBRANCH  24  25
ENDBRANCH   3  24
TORSDOF 5
ENDMDL
MODEL 8
REMARK VINA RESULT:      -8.9      3.609      8.598
REMARK  Name = 
REMARK  7 active torsions:
REMARK  status: ('A' for Active; 'I' for Inactive)
REMARK    1  A    between atoms: C_1  and  C_2
REMARK    2  A    between atoms: C_4  and  C_5
REMARK    3  A    between atoms: C_9  and  C_11
REMARK    4  A    between atoms: C_11  and  C_12
REMARK    5  A    between atoms: C_12  and  C_13
REMARK    6  A    between atoms: N_15  and  C_16
REMARK    7  A    between atoms: C_16  and  C_17
REMARK                            x       y       z     vdW  Elec       q    Type
REMARK                         _______ _______ _______ _____ _____    ______ ____
ROOT
ATOM      1  C   UNL     1       2.703   6.434  19.240  0.00  0.00    +0.000 A 
ATOM      2  C   UNL     1       3.997   6.311  18.783  0.00  0.00    +0.000 A 
ATOM      3  N   UNL     1       4.457   5.058  19.092  0.00  0.00    +0.000 N 
ATOM      4  C   UNL     1       3.468   4.333  19.724  0.00  0.00    +0.000 A 
ATOM      5  C   UNL     1       3.453   3.015  20.211  0.00  0.00    +0.000 A 
ATOM      6  C   UNL     1       2.288   2.549  20.828  0.00  0.00    +0.000 A 
ATOM      7  C   UNL     1       1.176   3.370  20.964  0.00  0.00    +0.000 A 
ATOM      8  C   UNL     1       1.198   4.683  20.480  0.00  0.00    +0.000 A 
ATOM      9  C   UNL     1       2.357   5.177  19.839  0.00  0.00    +0.000 A 
ENDROOT
BRANCH   1  10
ATOM     10  C   UNL     1       1.850   7.659  19.177  0.00  0.00    +0.000 C 
BRANCH  10  11
ATOM     11  C   UNL     1       2.056   8.507  17.919  0.00  0.00    +0.000 C 
BRANCH  11  20
ATOM     12  C   UNL     1      -2.575  12.523  21.869  0.00  0.00    +0.000 C 
ATOM     13  C   UNL     1      -1.457  12.504  20.871  0.00  0.00    +0.000 A 
ATOM     14  C   UNL     1      -0.930  13.688  20.351  0.00  0.00    +0.000 A 
ATOM     15  C   UNL     1       0.105  13.609  19.431  0.00  0.00    +0.000 A 
ATOM     16  C   UNL     1       0.729  14.829  18.827  0.00  0.00    +0.000 C 
ATOM     17  N   UNL     1       0.615  12.429  19.027  0.00  0.00    +0.000 NA
ATOM     18  C   UNL     1       0.118  11.288  19.525  0.00  0.00    +0.000 A 
ATOM     19  N   UNL     1       0.651  10.058  19.113  0.00  0.00    +0.000 N 
ATOM     20  C   UNL     1       1.691   9.946  18.209  0.00  0.00    +0.000 C 
ATOM     21  O   UNL     1       2.291  10.864  17.656  0.00  0.00    +0.000 OA
ATOM     22  C   UNL     1      -0.919  11.283  20.449  0.00  0.00    +0.000 A 
ATOM     23  H   UNL     1       0.251   9.221  19.505  0.00  0.00    +0.000 HD
ENDBRANCH  11  20
ENDBRANCH  10  11
ENDBRANCH   1  10
BRANCH   3  24
ATOM     24  C   UNL     1       5.821   4.611  18.828  0.00  0.00    +0.000 C 
BRANCH  24  25
ATOM     25  C   UNL     1       6.053   4.393  17.353  0.00  0.00    +0.000 A 
ATOM     26  C   UNL     1       7.239   4.825  16.737  0.00  0.00    +0.000 A 
ATOM     27  C   UNL     1       7.392   4.738  15.351  0.00  0.00    +0.000 A 
ATOM     28  C   UNL     1       6.374   4.189  14.579  0.00  0.00    +0.000 A 
ATOM     29 CL   UNL     1       6.527   4.154  12.866  0.00  0.00    +0.000 Cl
ATOM     30  C   UNL     1       5.222   3.689  15.182  0.00  0.00    +0.000 A 
ATOM     31  C   UNL     1       5.063   3.788  16.566  0.00  0.00    +0.000 A 
ENDBRANCH  24  25
ENDBRANCH   3  24
TORSDOF 5
ENDMDL
MODEL 9
REMARK VINA RESULT:      -8.9      3.908      9.410
REMARK  Name = 
REMARK  7 active torsions:
REMARK  status: ('A' for Active; 'I' for Inactive)
REMARK    1  A    between atoms: C_1  and  C_2
REMARK    2  A    between atoms: C_4  and  C_5
REMARK    3  A    between atoms: C_9  and  C_11
REMARK    4  A    between atoms: C_11  and  C_12
REMARK    5  A    between atoms: C_12  and  C_13
REMARK    6  A    between atoms: N_15  and  C_16
REMARK    7  A    between atoms: C_16  and  C_17
REMARK                            x       y       z     vdW  Elec       q    Type
REMARK                         _______ _______ _______ _____ _____    ______ ____
ROOT
ATOM      1  C   UNL     1       2.656   6.491  19.437  0.00  0.00    +0.000 A 
ATOM      2  C   UNL     1       3.962   6.406  19.003  0.00  0.00    +0.000 A 
ATOM      3  N   UNL     1       4.424   5.139  19.242  0.00  0.00    +0.000 N 
ATOM      4  C   UNL     1       3.426   4.368  19.803  0.00  0.00    +0.000 A 
ATOM      5  C   UNL     1       3.411   3.022  20.205  0.00  0.00    +0.000 A 
ATOM      6  C   UNL     1       2.236   2.510  20.763  0.00  0.00    +0.000 A 
ATOM      7  C   UNL     1       1.113   3.313  20.925  0.00  0.00    +0.000 A 
ATOM      8  C   UNL     1       1.137   4.655  20.527  0.00  0.00    +0.000 A 
ATOM      9  C   UNL     1       2.306   5.196  19.946  0.00  0.00    +0.000 A 
ENDROOT
BRANCH   1  10
ATOM     10  C   UNL     1       1.794   7.713  19.433  0.00  0.00    +0.000 C 
BRANCH  10  11
ATOM     11  C   UNL     1       1.436   8.236  20.826  0.00  0.00    +0.000 C 
BRANCH  11  20
ATOM     12  C   UNL     1      -3.307  12.657  24.162  0.00  0.00    +0.000 C 
ATOM     13  C   UNL     1      -2.367  12.453  23.013  0.00  0.00    +0.000 A 
ATOM     14  C   UNL     1      -2.183  13.441  22.044  0.00  0.00    +0.000 A 
ATOM     15  C   UNL     1      -1.300  13.197  21.002  0.00  0.00    +0.000 A 
ATOM     16  C   UNL     1      -1.040  14.203  19.924  0.00  0.00    +0.000 C 
ATOM     17  N   UNL     1      -0.618  12.039  20.899  0.00  0.00    +0.000 NA
ATOM     18  C   UNL     1      -0.787  11.087  21.828  0.00  0.00    +0.000 A 
ATOM     19  N   UNL     1      -0.074   9.883  21.728  0.00  0.00    +0.000 N 
ATOM     20  C   UNL     1       0.824   9.614  20.710  0.00  0.00    +0.000 C 
ATOM     21  O   UNL     1       1.131  10.357  19.781  0.00  0.00    +0.000 OA
ATOM     22  C   UNL     1      -1.653  11.255  22.899  0.00  0.00    +0.000 A 
ATOM     23  H   UNL     1      -0.228   9.189  22.441  0.00  0.00    +0.000 HD
ENDBRANCH  11  20
ENDBRANCH  10  11
ENDBRANCH   1  10
BRANCH   3  24
ATOM     24  C   UNL     1       5.798   4.719  18.983  0.00  0.00    +0.000 C 
BRANCH  24  25
ATOM     25  C   UNL     1       6.030   4.476  17.512  0.00  0.00    +0.000 A 
ATOM     26  C   UNL     1       7.238   4.851  16.900  0.00  0.00    +0.000 A 
ATOM     27  C   UNL     1       7.396   4.744  15.517  0.00  0.00    +0.000 A 
ATOM     28  C   UNL     1       6.361   4.233  14.742  0.00  0.00    +0.000 A 
ATOM     29 CL   UNL     1       6.524   4.174  13.031  0.00  0.00    +0.000 Cl
ATOM     30  C   UNL     1       5.184   3.788  15.341  0.00  0.00    +0.000 A 
ATOM     31  C   UNL     1       5.020   3.908  16.723  0.00  0.00    +0.000 A 
ENDBRANCH  24  25
ENDBRANCH   3  24
TORSDOF 5
ENDMDL
