MODEL 1
REMARK VINA RESULT:      -7.0      0.000      0.000
REMARK  Name = 
REMARK  3 active torsions:
REMARK  status: ('A' for Active; 'I' for Inactive)
REMARK    1  A    between atoms: C_2  and  C_3
REMARK    2  A    between atoms: C_7  and  C_8
REMARK    3  A    between atoms: C_11  and  O_12
REMARK                            x       y       z     vdW  Elec       q    Type
REMARK                         _______ _______ _______ _____ _____    ______ ____
ROOT
ATOM      1  C   UNL     1       4.826   5.444  17.627  0.00  0.00    +0.000 A 
ATOM      2  N   UNL     1       4.583   5.836  16.415  0.00  0.00    +0.000 NA
ATOM      3  C   UNL     1       5.604   5.730  15.505  0.00  0.00    +0.000 A 
ATOM      4  C   UNL     1       6.826   5.230  15.749  0.00  0.00    +0.000 A 
ATOM      5  C   UNL     1       7.074   4.736  17.131  0.00  0.00    +0.000 A 
ATOM      6  O   UNL     1       8.120   4.205  17.485  0.00  0.00    +0.000 OA
ATOM      7  N   UNL     1       6.035   4.909  18.002  0.00  0.00    +0.000 N 
ATOM      8  H   UNL     1       6.197   4.540  18.926  0.00  0.00    +0.000 HD
ENDROOT
BRANCH   1  13
ATOM      9  C   UNL     1       2.558   4.489  20.491  0.00  0.00    +0.000 A 
ATOM     10  C   UNL     1       1.841   5.675  20.687  0.00  0.00    +0.000 A 
ATOM     11  C   UNL     1       2.084   6.785  19.876  0.00  0.00    +0.000 A 
ATOM     12  C   UNL     1       3.051   6.717  18.872  0.00  0.00    +0.000 A 
ATOM     13  C   UNL     1       3.787   5.540  18.684  0.00  0.00    +0.000 A 
ATOM     14  C   UNL     1       3.530   4.420  19.486  0.00  0.00    +0.000 A 
BRANCH   9  16
ATOM     15  N   UNL     1       2.085   2.431  21.995  0.00  0.00    +0.000 NA
ATOM     16  C   UNL     1       2.294   3.349  21.319  0.00  0.00    +0.000 C 
ENDBRANCH   9  16
ENDBRANCH   1  13
BRANCH   4  17
ATOM     17  O   UNL     1       7.830   5.150  14.808  0.00  0.00    +0.000 OA
ATOM     18  H   UNL     1       8.686   5.152  15.264  0.00  0.00    +0.000 HD
ENDBRANCH   4  17
TORSDOF 3
ENDMDL
MODEL 2
REMARK VINA RESULT:      -6.9      3.398      6.098
REMARK  Name = 
REMARK  3 active torsions:
REMARK  status: ('A' for Active; 'I' for Inactive)
REMARK    1  A    between atoms: C_2  and  C_3
REMARK    2  A    between atoms: C_7  and  C_8
REMARK    3  A    between atoms: C_11  and  O_12
REMARK                            x       y       z     vdW  Elec       q    Type
REMARK                         _______ _______ _______ _____ _____    ______ ____
ROOT
ATOM      1  C   UNL     1       3.820   3.918  18.476  0.00  0.00    +0.000 A 
ATOM      2  N   UNL     1       2.651   4.289  18.055  0.00  0.00    +0.000 NA
ATOM      3  C   UNL     1       1.572   3.972  18.842  0.00  0.00    +0.000 A 
ATOM      4  C   UNL     1       1.621   3.337  20.024  0.00  0.00    +0.000 A 
ATOM      5  C   UNL     1       2.973   2.963  20.519  0.00  0.00    +0.000 A 
ATOM      6  O   UNL     1       3.176   2.429  21.603  0.00  0.00    +0.000 OA
ATOM      7  N   UNL     1       4.002   3.265  19.672  0.00  0.00    +0.000 N 
ATOM      8  H   UNL     1       4.918   3.042  20.029  0.00  0.00    +0.000 HD
ENDROOT
BRANCH   1  13
ATOM      9  C   UNL     1       6.181   4.176  15.541  0.00  0.00    +0.000 A 
ATOM     10  C   UNL     1       7.323   4.715  16.147  0.00  0.00    +0.000 A 
ATOM     11  C   UNL     1       7.330   4.982  17.517  0.00  0.00    +0.000 A 
ATOM     12  C   UNL     1       6.195   4.720  18.285  0.00  0.00    +0.000 A 
ATOM     13  C   UNL     1       5.043   4.200  17.682  0.00  0.00    +0.000 A 
ATOM     14  C   UNL     1       5.042   3.915  16.310  0.00  0.00    +0.000 A 
BRANCH   9  16
ATOM     15  N   UNL     1       6.196   3.665  12.999  0.00  0.00    +0.000 NA
ATOM     16  C   UNL     1       6.185   3.893  14.136  0.00  0.00    +0.000 C 
ENDBRANCH   9  16
ENDBRANCH   1  13
BRANCH   4  17
ATOM     17  O   UNL     1       0.510   3.027  20.780  0.00  0.00    +0.000 OA
ATOM     18  H   UNL     1       0.361   3.738  21.422  0.00  0.00    +0.000 HD
ENDBRANCH   4  17
TORSDOF 3
ENDMDL
MODEL 3
REMARK VINA RESULT:      -6.9      1.029      1.044
REMARK  Name = 
REMARK  3 active torsions:
REMARK  status: ('A' for Active; 'I' for Inactive)
REMARK    1  A    between atoms: C_2  and  C_3
REMARK    2  A    between atoms: C_7  and  C_8
REMARK    3  A    between atoms: C_11  and  O_12
REMARK                            x       y       z     vdW  Elec       q    Type
REMARK                         _______ _______ _______ _____ _____    ______ ____
ROOT
ATOM      1  C   UNL     1       4.710   5.392  17.618  0.00  0.00    +0.000 A 
ATOM      2  N   UNL     1       4.622   4.448  16.733  0.00  0.00    +0.000 NA
ATOM      3  C   UNL     1       5.604   4.393  15.776  0.00  0.00    +0.000 A 
ATOM      4  C   UNL     1       6.665   5.211  15.691  0.00  0.00    +0.000 A 
ATOM      5  C   UNL     1       6.780   6.257  16.743  0.00  0.00    +0.000 A 
ATOM      6  O   UNL     1       7.721   7.038  16.824  0.00  0.00    +0.000 OA
ATOM      7  N   UNL     1       5.751   6.289  17.641  0.00  0.00    +0.000 N 
ATOM      8  H   UNL     1       5.854   6.976  18.372  0.00  0.00    +0.000 HD
ENDROOT
BRANCH   1  13
ATOM      9  C   UNL     1       2.437   4.569  20.519  0.00  0.00    +0.000 A 
ATOM     10  C   UNL     1       1.756   5.780  20.693  0.00  0.00    +0.000 A 
ATOM     11  C   UNL     1       2.027   6.863  19.856  0.00  0.00    +0.000 A 
ATOM     12  C   UNL     1       2.983   6.745  18.847  0.00  0.00    +0.000 A 
ATOM     13  C   UNL     1       3.683   5.542  18.680  0.00  0.00    +0.000 A 
ATOM     14  C   UNL     1       3.398   4.449  19.509  0.00  0.00    +0.000 A 
BRANCH   9  16
ATOM     15  N   UNL     1       1.901   2.558  22.066  0.00  0.00    +0.000 NA
ATOM     16  C   UNL     1       2.145   3.456  21.374  0.00  0.00    +0.000 C 
ENDBRANCH   9  16
ENDBRANCH   1  13
BRANCH   4  17
ATOM     17  O   UNL     1       7.626   5.129  14.706  0.00  0.00    +0.000 OA
ATOM     18  H   UNL     1       8.479   4.920  15.117  0.00  0.00    +0.000 HD
ENDBRANCH   4  17
TORSDOF 3
ENDMDL
MODEL 4
REMARK VINA RESULT:      -6.8      2.075      2.544
REMARK  Name = 
REMARK  3 active torsions:
REMARK  status: ('A' for Active; 'I' for Inactive)
REMARK    1  A    between atoms: C_2  and  C_3
REMARK    2  A    between atoms: C_7  and  C_8
REMARK    3  A    between atoms: C_11  and  O_12
REMARK                            x       y       z     vdW  Elec       q    Type
REMARK                         _______ _______ _______ _____ _____    ______ ____
ROOT
ATOM      1  C   UNL     1       4.986   4.938  18.279  0.00  0.00    +0.000 A 
ATOM      2  N   UNL     1       4.894   5.869  17.381  0.00  0.00    +0.000 NA
ATOM      3  C   UNL     1       5.946   6.744  17.275  0.00  0.00    +0.000 A 
ATOM      4  C   UNL     1       7.076   6.705  17.999  0.00  0.00    +0.000 A 
ATOM      5  C   UNL     1       7.189   5.600  18.989  0.00  0.00    +0.000 A 
ATOM      6  O   UNL     1       8.183   5.408  19.681  0.00  0.00    +0.000 OA
ATOM      7  N   UNL     1       6.093   4.790  19.080  0.00  0.00    +0.000 N 
ATOM      8  H   UNL     1       6.191   4.023  19.727  0.00  0.00    +0.000 HD
ENDROOT
BRANCH   1  13
ATOM      9  C   UNL     1       2.330   2.861  19.979  0.00  0.00    +0.000 A 
ATOM     10  C   UNL     1       1.819   2.126  18.903  0.00  0.00    +0.000 A 
ATOM     11  C   UNL     1       2.348   2.295  17.623  0.00  0.00    +0.000 A 
ATOM     12  C   UNL     1       3.384   3.205  17.411  0.00  0.00    +0.000 A 
ATOM     13  C   UNL     1       3.887   3.959  18.480  0.00  0.00    +0.000 A 
ATOM     14  C   UNL     1       3.368   3.775  19.768  0.00  0.00    +0.000 A 
BRANCH   9  16
ATOM     15  N   UNL     1       1.362   2.519  22.360  0.00  0.00    +0.000 NA
ATOM     16  C   UNL     1       1.790   2.673  21.294  0.00  0.00    +0.000 C 
ENDBRANCH   9  16
ENDBRANCH   1  13
BRANCH   4  17
ATOM     17  O   UNL     1       8.107   7.611  17.869  0.00  0.00    +0.000 OA
ATOM     18  H   UNL     1       8.724   7.490  18.607  0.00  0.00    +0.000 HD
ENDBRANCH   4  17
TORSDOF 3
ENDMDL
MODEL 5
REMARK VINA RESULT:      -6.8      1.753      2.347
REMARK  Name = 
REMARK  3 active torsions:
REMARK  status: ('A' for Active; 'I' for Inactive)
REMARK    1  A    between atoms: C_2  and  C_3
REMARK    2  A    between atoms: C_7  and  C_8
REMARK    3  A    between atoms: C_11  and  O_12
REMARK                            x       y       z     vdW  Elec       q    Type
REMARK                         _______ _______ _______ _____ _____    ______ ____
ROOT
ATOM      1  C   UNL     1       4.779   4.741  17.810  0.00  0.00    +0.000 A 
ATOM      2  N   UNL     1       4.577   6.022  17.805  0.00  0.00    +0.000 NA
ATOM      3  C   UNL     1       5.634   6.821  17.449  0.00  0.00    +0.000 A 
ATOM      4  C   UNL     1       6.851   6.396  17.077  0.00  0.00    +0.000 A 
ATOM      5  C   UNL     1       7.053   4.922  17.037  0.00  0.00    +0.000 A 
ATOM      6  O   UNL     1       8.092   4.388  16.666  0.00  0.00    +0.000 OA
ATOM      7  N   UNL     1       5.979   4.181  17.444  0.00  0.00    +0.000 N 
ATOM      8  H   UNL     1       6.111   3.183  17.381  0.00  0.00    +0.000 HD
ENDROOT
BRANCH   1  13
ATOM      9  C   UNL     1       2.284   2.863  19.932  0.00  0.00    +0.000 A 
ATOM     10  C   UNL     1       1.670   2.040  18.981  0.00  0.00    +0.000 A 
ATOM     11  C   UNL     1       2.078   2.084  17.647  0.00  0.00    +0.000 A 
ATOM     12  C   UNL     1       3.095   2.957  17.256  0.00  0.00    +0.000 A 
ATOM     13  C   UNL     1       3.699   3.798  18.200  0.00  0.00    +0.000 A 
ATOM     14  C   UNL     1       3.301   3.740  19.542  0.00  0.00    +0.000 A 
BRANCH   9  16
ATOM     15  N   UNL     1       1.534   2.763  22.413  0.00  0.00    +0.000 NA
ATOM     16  C   UNL     1       1.869   2.803  21.304  0.00  0.00    +0.000 C 
ENDBRANCH   9  16
ENDBRANCH   1  13
BRANCH   4  17
ATOM     17  O   UNL     1       7.891   7.234  16.736  0.00  0.00    +0.000 OA
ATOM     18  H   UNL     1       7.737   7.576  15.842  0.00  0.00    +0.000 HD
ENDBRANCH   4  17
TORSDOF 3
ENDMDL
MODEL 6
REMARK VINA RESULT:      -6.7      2.984      5.698
REMARK  Name = 
REMARK  3 active torsions:
REMARK  status: ('A' for Active; 'I' for Inactive)
REMARK    1  A    between atoms: C_2  and  C_3
REMARK    2  A    between atoms: C_7  and  C_8
REMARK    3  A    between atoms: C_11  and  O_12
REMARK                            x       y       z     vdW  Elec       q    Type
REMARK                         _______ _______ _______ _____ _____    ______ ____
ROOT
ATOM      1  C   UNL     1       4.034   4.170  18.720  0.00  0.00    +0.000 A 
ATOM      2  N   UNL     1       2.939   4.533  19.311  0.00  0.00    +0.000 NA
ATOM      3  C   UNL     1       2.546   3.805  20.406  0.00  0.00    +0.000 A 
ATOM      4  C   UNL     1       3.209   2.767  20.938  0.00  0.00    +0.000 A 
ATOM      5  C   UNL     1       4.491   2.394  20.281  0.00  0.00    +0.000 A 
ATOM      6  O   UNL     1       5.229   1.504  20.688  0.00  0.00    +0.000 OA
ATOM      7  N   UNL     1       4.806   3.126  19.171  0.00  0.00    +0.000 N 
ATOM      8  H   UNL     1       5.693   2.891  18.752  0.00  0.00    +0.000 HD
ENDROOT
BRANCH   1  13
ATOM      9  C   UNL     1       5.430   4.793  15.267  0.00  0.00    +0.000 A 
ATOM     10  C   UNL     1       5.461   6.192  15.227  0.00  0.00    +0.000 A 
ATOM     11  C   UNL     1       5.042   6.936  16.331  0.00  0.00    +0.000 A 
ATOM     12  C   UNL     1       4.580   6.286  17.476  0.00  0.00    +0.000 A 
ATOM     13  C   UNL     1       4.527   4.886  17.516  0.00  0.00    +0.000 A 
ATOM     14  C   UNL     1       4.965   4.140  16.414  0.00  0.00    +0.000 A 
BRANCH   9  16
ATOM     15  N   UNL     1       6.228   3.427  13.213  0.00  0.00    +0.000 NA
ATOM     16  C   UNL     1       5.874   4.035  14.134  0.00  0.00    +0.000 C 
ENDBRANCH   9  16
ENDBRANCH   1  13
BRANCH   4  17
ATOM     17  O   UNL     1       2.775   2.054  22.035  0.00  0.00    +0.000 OA
ATOM     18  H   UNL     1       3.087   1.139  21.958  0.00  0.00    +0.000 HD
ENDBRANCH   4  17
TORSDOF 3
ENDMDL
MODEL 7
REMARK VINA RESULT:      -6.7      3.162      5.971
REMARK  Name = 
REMARK  3 active torsions:
REMARK  status: ('A' for Active; 'I' for Inactive)
REMARK    1  A    between atoms: C_2  and  C_3
REMARK    2  A    between atoms: C_7  and  C_8
REMARK    3  A    between atoms: C_11  and  O_12
REMARK                            x       y       z     vdW  Elec       q    Type
REMARK                         _______ _______ _______ _____ _____    ______ ____
ROOT
ATOM      1  C   UNL     1       4.539   3.893  18.501  0.00  0.00    +0.000 A 
ATOM      2  N   UNL     1       3.314   4.298  18.624  0.00  0.00    +0.000 NA
ATOM      3  C   UNL     1       2.567   3.739  19.631  0.00  0.00    +0.000 A 
ATOM      4  C   UNL     1       3.000   2.830  20.519  0.00  0.00    +0.000 A 
ATOM      5  C   UNL     1       4.423   2.412  20.397  0.00  0.00    +0.000 A 
ATOM      6  O   UNL     1       4.971   1.633  21.168  0.00  0.00    +0.000 OA
ATOM      7  N   UNL     1       5.101   2.969  19.349  0.00  0.00    +0.000 N 
ATOM      8  H   UNL     1       6.074   2.710  19.295  0.00  0.00    +0.000 HD
ENDROOT
BRANCH   1  13
ATOM      9  C   UNL     1       6.119   4.390  15.108  0.00  0.00    +0.000 A 
ATOM     10  C   UNL     1       7.046   5.404  15.377  0.00  0.00    +0.000 A 
ATOM     11  C   UNL     1       7.169   5.918  16.668  0.00  0.00    +0.000 A 
ATOM     12  C   UNL     1       6.360   5.428  17.694  0.00  0.00    +0.000 A 
ATOM     13  C   UNL     1       5.416   4.427  17.428  0.00  0.00    +0.000 A 
ATOM     14  C   UNL     1       5.306   3.899  16.135  0.00  0.00    +0.000 A 
BRANCH   9  16
ATOM     15  N   UNL     1       5.910   3.422  12.711  0.00  0.00    +0.000 NA
ATOM     16  C   UNL     1       6.008   3.857  13.781  0.00  0.00    +0.000 C 
ENDBRANCH   9  16
ENDBRANCH   1  13
BRANCH   4  17
ATOM     17  O   UNL     1       2.214   2.284  21.511  0.00  0.00    +0.000 OA
ATOM     18  H   UNL     1       2.262   1.317  21.451  0.00  0.00    +0.000 HD
ENDBRANCH   4  17
TORSDOF 3
ENDMDL
MODEL 8
REMARK VINA RESULT:      -6.7      3.468      6.213
REMARK  Name = 
REMARK  3 active torsions:
REMARK  status: ('A' for Active; 'I' for Inactive)
REMARK    1  A    between atoms: C_2  and  C_3
REMARK    2  A    between atoms: C_7  and  C_8
REMARK    3  A    between atoms: C_11  and  O_12
REMARK                            x       y       z     vdW  Elec       q    Type
REMARK                         _______ _______ _______ _____ _____    ______ ____
ROOT
ATOM      1  C   UNL     1       3.708   3.841  18.174  0.00  0.00    +0.000 A 
ATOM      2  N   UNL     1       2.952   2.845  17.832  0.00  0.00    +0.000 NA
ATOM      3  C   UNL     1       1.817   2.635  18.575  0.00  0.00    +0.000 A 
ATOM      4  C   UNL     1       1.404   3.387  19.607  0.00  0.00    +0.000 A 
ATOM      5  C   UNL     1       2.254   4.557  19.956  0.00  0.00    +0.000 A 
ATOM      6  O   UNL     1       1.975   5.361  20.837  0.00  0.00    +0.000 OA
ATOM      7  N   UNL     1       3.392   4.688  19.210  0.00  0.00    +0.000 N 
ATOM      8  H   UNL     1       3.944   5.502  19.428  0.00  0.00    +0.000 HD
ENDROOT
BRANCH   1  13
ATOM      9  C   UNL     1       6.197   4.154  15.352  0.00  0.00    +0.000 A 
ATOM     10  C   UNL     1       7.315   4.668  16.021  0.00  0.00    +0.000 A 
ATOM     11  C   UNL     1       7.265   4.900  17.396  0.00  0.00    +0.000 A 
ATOM     12  C   UNL     1       6.095   4.628  18.108  0.00  0.00    +0.000 A 
ATOM     13  C   UNL     1       4.967   4.133  17.441  0.00  0.00    +0.000 A 
ATOM     14  C   UNL     1       5.024   3.883  16.064  0.00  0.00    +0.000 A 
BRANCH   9  16
ATOM     15  N   UNL     1       6.306   3.698  12.802  0.00  0.00    +0.000 NA
ATOM     16  C   UNL     1       6.260   3.906  13.941  0.00  0.00    +0.000 C 
ENDBRANCH   9  16
ENDBRANCH   1  13
BRANCH   4  17
ATOM     17  O   UNL     1       0.261   3.136  20.336  0.00  0.00    +0.000 OA
ATOM     18  H   UNL     1      -0.036   3.963  20.746  0.00  0.00    +0.000 HD
ENDBRANCH   4  17
TORSDOF 3
ENDMDL
MODEL 9
REMARK VINA RESULT:      -6.6      3.596      6.029
REMARK  Name = 
REMARK  3 active torsions:
REMARK  status: ('A' for Active; 'I' for Inactive)
REMARK    1  A    between atoms: C_2  and  C_3
REMARK    2  A    between atoms: C_7  and  C_8
REMARK    3  A    between atoms: C_11  and  O_12
REMARK                            x       y       z     vdW  Elec       q    Type
REMARK                         _______ _______ _______ _____ _____    ______ ____
ROOT
ATOM      1  C   UNL     1       3.761   4.149  18.752  0.00  0.00    +0.000 A 
ATOM      2  N   UNL     1       4.423   3.190  19.319  0.00  0.00    +0.000 NA
ATOM      3  C   UNL     1       3.836   2.573  20.396  0.00  0.00    +0.000 A 
ATOM      4  C   UNL     1       2.623   2.855  20.897  0.00  0.00    +0.000 A 
ATOM      5  C   UNL     1       1.853   3.923  20.204  0.00  0.00    +0.000 A 
ATOM      6  O   UNL     1       0.713   4.249  20.516  0.00  0.00    +0.000 OA
ATOM      7  N   UNL     1       2.507   4.529  19.169  0.00  0.00    +0.000 N 
ATOM      8  H   UNL     1       1.966   5.226  18.682  0.00  0.00    +0.000 HD
ENDROOT
BRANCH   1  13
ATOM      9  C   UNL     1       5.338   4.837  15.392  0.00  0.00    +0.000 A 
ATOM     10  C   UNL     1       5.395   6.236  15.391  0.00  0.00    +0.000 A 
ATOM     11  C   UNL     1       4.934   6.958  16.492  0.00  0.00    +0.000 A 
ATOM     12  C   UNL     1       4.404   6.287  17.595  0.00  0.00    +0.000 A 
ATOM     13  C   UNL     1       4.325   4.887  17.594  0.00  0.00    +0.000 A 
ATOM     14  C   UNL     1       4.805   4.163  16.495  0.00  0.00    +0.000 A 
BRANCH   9  16
ATOM     15  N   UNL     1       6.228   3.507  13.352  0.00  0.00    +0.000 NA
ATOM     16  C   UNL     1       5.826   4.101  14.262  0.00  0.00    +0.000 C 
ENDBRANCH   9  16
ENDBRANCH   1  13
BRANCH   4  17
ATOM     17  O   UNL     1       2.072   2.218  21.989  0.00  0.00    +0.000 OA
ATOM     18  H   UNL     1       2.704   2.255  22.724  0.00  0.00    +0.000 HD
ENDBRANCH   4  17
TORSDOF 3
ENDMDL
