MODEL 1
REMARK VINA RESULT:      -8.2      0.000      0.000
REMARK  Name = 
REMARK  6 active torsions:
REMARK  status: ('A' for Active; 'I' for Inactive)
REMARK    1  A    between atoms: C_2  and  C_3
REMARK    2  A    between atoms: C_3  and  N_4
REMARK    3  A    between atoms: N_7  and  C_8
REMARK    4  A    between atoms: C_8  and  C_9
REMARK    5  A    between atoms: N_19  and  C_20
REMARK    6  A    between atoms: C_20  and  C_21
REMARK                            x       y       z     vdW  Elec       q    Type
REMARK                         _______ _______ _______ _____ _____    ______ ____
ROOT
ATOM      1  N   UNL     1       5.860   6.924  16.892  0.00  0.00    +0.000 NA
ATOM      2  C   UNL     1       5.182   6.223  15.775  0.00  0.00    +0.000 C 
ATOM      3  C   UNL     1       5.201   4.670  15.855  0.00  0.00    +0.000 C 
ATOM      4  N   UNL     1       4.716   4.112  17.146  0.00  0.00    +0.000 NA
ATOM      5  C   UNL     1       5.429   4.808  18.238  0.00  0.00    +0.000 C 
ATOM      6  C   UNL     1       5.370   6.352  18.167  0.00  0.00    +0.000 C 
ENDROOT
BRANCH   1   7
ATOM      7  C   UNL     1       7.338   6.813  16.828  0.00  0.00    +0.000 C 
BRANCH   7   9
ATOM      8  O   UNL     1       8.390   6.837  19.019  0.00  0.00    +0.000 OA
ATOM      9  C   UNL     1       8.039   7.473  18.026  0.00  0.00    +0.000 C 
ATOM     10  N   UNL     1       8.216   8.835  17.911  0.00  0.00    +0.000 N 
ATOM     11  H   UNL     1       7.837   9.324  17.113  0.00  0.00    +0.000 HD
BRANCH  10  12
ATOM     12  C   UNL     1       8.818   9.618  18.964  0.00  0.00    +0.000 C 
BRANCH  12  13
ATOM     13  C   UNL     1       9.434  10.882  18.421  0.00  0.00    +0.000 A 
ATOM     14  C   UNL     1      10.824  11.069  18.467  0.00  0.00    +0.000 A 
ATOM     15  C   UNL     1      11.395  12.238  17.953  0.00  0.00    +0.000 A 
ATOM     16  C   UNL     1      10.585  13.230  17.408  0.00  0.00    +0.000 A 
ATOM     17  C   UNL     1       9.202  13.061  17.371  0.00  0.00    +0.000 A 
ATOM     18  C   UNL     1       8.629  11.894  17.882  0.00  0.00    +0.000 A 
ENDBRANCH  12  13
ENDBRANCH  10  12
ENDBRANCH   7   9
ENDBRANCH   1   7
BRANCH   4  19
ATOM     19  C   UNL     1       3.245   4.257  17.232  0.00  0.00    +0.000 C 
BRANCH  19  20
ATOM     20  C   UNL     1       2.616   3.823  18.546  0.00  0.00    +0.000 A 
ATOM     21  C   UNL     1       2.449   2.452  18.828  0.00  0.00    +0.000 A 
ATOM     22  C   UNL     1       1.855   2.032  20.019  0.00  0.00    +0.000 A 
ATOM     23  C   UNL     1       1.393   2.975  20.920  0.00  0.00    +0.000 A 
ATOM     24  F   UNL     1       0.812   2.575  22.060  0.00  0.00    +0.000 F 
ATOM     25  C   UNL     1       1.515   4.334  20.664  0.00  0.00    +0.000 A 
ATOM     26  C   UNL     1       2.120   4.757  19.477  0.00  0.00    +0.000 A 
ATOM     27 CL   UNL     1       2.217   6.464  19.219  0.00  0.00    +0.000 Cl
ENDBRANCH  19  20
ENDBRANCH   4  19
TORSDOF 6
ENDMDL
MODEL 2
REMARK VINA RESULT:      -7.9      1.322      1.770
REMARK  Name = 
REMARK  6 active torsions:
REMARK  status: ('A' for Active; 'I' for Inactive)
REMARK    1  A    between atoms: C_2  and  C_3
REMARK    2  A    between atoms: C_3  and  N_4
REMARK    3  A    between atoms: N_7  and  C_8
REMARK    4  A    between atoms: C_8  and  C_9
REMARK    5  A    between atoms: N_19  and  C_20
REMARK    6  A    between atoms: C_20  and  C_21
REMARK                            x       y       z     vdW  Elec       q    Type
REMARK                         _______ _______ _______ _____ _____    ______ ____
ROOT
ATOM      1  N   UNL     1       6.858   5.759  17.527  0.00  0.00    +0.000 NA
ATOM      2  C   UNL     1       5.999   5.536  18.715  0.00  0.00    +0.000 C 
ATOM      3  C   UNL     1       4.501   5.912  18.534  0.00  0.00    +0.000 C 
ATOM      4  N   UNL     1       3.851   5.304  17.341  0.00  0.00    +0.000 NA
ATOM      5  C   UNL     1       4.713   5.567  16.170  0.00  0.00    +0.000 C 
ATOM      6  C   UNL     1       6.193   5.152  16.351  0.00  0.00    +0.000 C 
ENDROOT
BRANCH   1   7
ATOM      7  C   UNL     1       7.120   7.196  17.268  0.00  0.00    +0.000 C 
BRANCH   7   9
ATOM      8  O   UNL     1       8.661   7.155  19.148  0.00  0.00    +0.000 OA
ATOM      9  C   UNL     1       8.096   7.818  18.279  0.00  0.00    +0.000 C 
ATOM     10  N   UNL     1       8.263   9.181  18.155  0.00  0.00    +0.000 N 
ATOM     11  H   UNL     1       7.714   9.694  17.481  0.00  0.00    +0.000 HD
BRANCH  10  12
ATOM     12  C   UNL     1       9.110   9.930  19.052  0.00  0.00    +0.000 C 
BRANCH  12  13
ATOM     13  C   UNL     1       9.668  11.158  18.378  0.00  0.00    +0.000 A 
ATOM     14  C   UNL     1      11.039  11.247  18.093  0.00  0.00    +0.000 A 
ATOM     15  C   UNL     1      11.554  12.382  17.458  0.00  0.00    +0.000 A 
ATOM     16  C   UNL     1      10.711  13.437  17.121  0.00  0.00    +0.000 A 
ATOM     17  C   UNL     1       9.351  13.365  17.413  0.00  0.00    +0.000 A 
ATOM     18  C   UNL     1       8.833  12.232  18.046  0.00  0.00    +0.000 A 
ENDBRANCH  12  13
ENDBRANCH  10  12
ENDBRANCH   7   9
ENDBRANCH   1   7
BRANCH   4  19
ATOM     19  C   UNL     1       3.625   3.859  17.578  0.00  0.00    +0.000 C 
BRANCH  19  20
ATOM     20  C   UNL     1       2.853   3.512  18.840  0.00  0.00    +0.000 A 
ATOM     21  C   UNL     1       1.521   3.947  18.995  0.00  0.00    +0.000 A 
ATOM     22  C   UNL     1       0.801   3.657  20.154  0.00  0.00    +0.000 A 
ATOM     23  C   UNL     1       1.414   2.960  21.181  0.00  0.00    +0.000 A 
ATOM     24  F   UNL     1       0.728   2.689  22.300  0.00  0.00    +0.000 F 
ATOM     25  C   UNL     1       2.733   2.540  21.076  0.00  0.00    +0.000 A 
ATOM     26  C   UNL     1       3.452   2.819  19.911  0.00  0.00    +0.000 A 
ATOM     27 CL   UNL     1       5.094   2.280  19.864  0.00  0.00    +0.000 Cl
ENDBRANCH  19  20
ENDBRANCH   4  19
TORSDOF 6
ENDMDL
MODEL 3
REMARK VINA RESULT:      -7.6      1.154      1.553
REMARK  Name = 
REMARK  6 active torsions:
REMARK  status: ('A' for Active; 'I' for Inactive)
REMARK    1  A    between atoms: C_2  and  C_3
REMARK    2  A    between atoms: C_3  and  N_4
REMARK    3  A    between atoms: N_7  and  C_8
REMARK    4  A    between atoms: C_8  and  C_9
REMARK    5  A    between atoms: N_19  and  C_20
REMARK    6  A    between atoms: C_20  and  C_21
REMARK                            x       y       z     vdW  Elec       q    Type
REMARK                         _______ _______ _______ _____ _____    ______ ____
ROOT
ATOM      1  N   UNL     1       7.295   5.811  17.125  0.00  0.00    +0.000 NA
ATOM      2  C   UNL     1       6.809   5.512  18.493  0.00  0.00    +0.000 C 
ATOM      3  C   UNL     1       5.337   5.921  18.781  0.00  0.00    +0.000 C 
ATOM      4  N   UNL     1       4.350   5.413  17.791  0.00  0.00    +0.000 NA
ATOM      5  C   UNL     1       4.845   5.750  16.440  0.00  0.00    +0.000 C 
ATOM      6  C   UNL     1       6.298   5.303  16.154  0.00  0.00    +0.000 C 
ENDROOT
BRANCH   1   7
ATOM      7  C   UNL     1       7.521   7.260  16.899  0.00  0.00    +0.000 C 
BRANCH   7   9
ATOM      8  O   UNL     1       8.623   7.327  19.064  0.00  0.00    +0.000 OA
ATOM      9  C   UNL     1       8.226   7.947  18.079  0.00  0.00    +0.000 C 
ATOM     10  N   UNL     1       8.347   9.315  17.960  0.00  0.00    +0.000 N 
ATOM     11  H   UNL     1       7.931   9.789  17.171  0.00  0.00    +0.000 HD
BRANCH  10  12
ATOM     12  C   UNL     1       8.944  10.121  18.998  0.00  0.00    +0.000 C 
BRANCH  12  13
ATOM     13  C   UNL     1       9.652  11.320  18.420  0.00  0.00    +0.000 A 
ATOM     14  C   UNL     1      11.053  11.377  18.407  0.00  0.00    +0.000 A 
ATOM     15  C   UNL     1      11.709  12.485  17.860  0.00  0.00    +0.000 A 
ATOM     16  C   UNL     1      10.973  13.546  17.342  0.00  0.00    +0.000 A 
ATOM     17  C   UNL     1       9.580  13.507  17.364  0.00  0.00    +0.000 A 
ATOM     18  C   UNL     1       8.922  12.401  17.907  0.00  0.00    +0.000 A 
ENDBRANCH  12  13
ENDBRANCH  10  12
ENDBRANCH   7   9
ENDBRANCH   1   7
BRANCH   4  19
ATOM     19  C   UNL     1       4.151   3.958  17.985  0.00  0.00    +0.000 C 
BRANCH  19  20
ATOM     20  C   UNL     1       3.214   3.566  19.116  0.00  0.00    +0.000 A 
ATOM     21  C   UNL     1       3.738   3.064  20.324  0.00  0.00    +0.000 A 
ATOM     22  C   UNL     1       2.894   2.680  21.367  0.00  0.00    +0.000 A 
ATOM     23  C   UNL     1       1.523   2.760  21.200  0.00  0.00    +0.000 A 
ATOM     24  F   UNL     1       0.710   2.381  22.196  0.00  0.00    +0.000 F 
ATOM     25  C   UNL     1       0.970   3.223  20.014  0.00  0.00    +0.000 A 
ATOM     26  C   UNL     1       1.813   3.620  18.973  0.00  0.00    +0.000 A 
ATOM     27 CL   UNL     1       1.050   4.166  17.520  0.00  0.00    +0.000 Cl
ENDBRANCH  19  20
ENDBRANCH   4  19
TORSDOF 6
ENDMDL
MODEL 4
REMARK VINA RESULT:      -7.5      1.415      1.777
REMARK  Name = 
REMARK  6 active torsions:
REMARK  status: ('A' for Active; 'I' for Inactive)
REMARK    1  A    between atoms: C_2  and  C_3
REMARK    2  A    between atoms: C_3  and  N_4
REMARK    3  A    between atoms: N_7  and  C_8
REMARK    4  A    between atoms: C_8  and  C_9
REMARK    5  A    between atoms: N_19  and  C_20
REMARK    6  A    between atoms: C_20  and  C_21
REMARK                            x       y       z     vdW  Elec       q    Type
REMARK                         _______ _______ _______ _____ _____    ______ ____
ROOT
ATOM      1  N   UNL     1       6.708   6.931  16.857  0.00  0.00    +0.000 NA
ATOM      2  C   UNL     1       6.793   5.589  16.232  0.00  0.00    +0.000 C 
ATOM      3  C   UNL     1       7.075   4.415  17.211  0.00  0.00    +0.000 C 
ATOM      4  N   UNL     1       6.157   4.351  18.380  0.00  0.00    +0.000 NA
ATOM      5  C   UNL     1       6.116   5.692  19.000  0.00  0.00    +0.000 C 
ATOM      6  C   UNL     1       5.795   6.846  18.021  0.00  0.00    +0.000 C 
ENDROOT
BRANCH   1   7
ATOM      7  C   UNL     1       8.029   7.447  17.293  0.00  0.00    +0.000 C 
BRANCH   7   9
ATOM      8  O   UNL     1       7.187   9.721  17.458  0.00  0.00    +0.000 OA
ATOM      9  C   UNL     1       7.952   8.860  17.891  0.00  0.00    +0.000 C 
ATOM     10  N   UNL     1       8.828   9.095  18.929  0.00  0.00    +0.000 N 
ATOM     11  H   UNL     1       9.494   8.383  19.194  0.00  0.00    +0.000 HD
BRANCH  10  12
ATOM     12  C   UNL     1       8.918  10.382  19.575  0.00  0.00    +0.000 C 
BRANCH  12  13
ATOM     13  C   UNL     1       9.904  11.280  18.871  0.00  0.00    +0.000 A 
ATOM     14  C   UNL     1       9.455  12.250  17.962  0.00  0.00    +0.000 A 
ATOM     15  C   UNL     1      10.369  13.089  17.318  0.00  0.00    +0.000 A 
ATOM     16  C   UNL     1      11.733  12.954  17.562  0.00  0.00    +0.000 A 
ATOM     17  C   UNL     1      12.191  11.983  18.451  0.00  0.00    +0.000 A 
ATOM     18  C   UNL     1      11.279  11.145  19.098  0.00  0.00    +0.000 A 
ENDBRANCH  12  13
ENDBRANCH  10  12
ENDBRANCH   7   9
ENDBRANCH   1   7
BRANCH   4  19
ATOM     19  C   UNL     1       4.824   3.875  17.943  0.00  0.00    +0.000 C 
BRANCH  19  20
ATOM     20  C   UNL     1       3.851   3.529  19.057  0.00  0.00    +0.000 A 
ATOM     21  C   UNL     1       4.264   2.704  20.123  0.00  0.00    +0.000 A 
ATOM     22  C   UNL     1       3.380   2.357  21.146  0.00  0.00    +0.000 A 
ATOM     23  C   UNL     1       2.070   2.801  21.095  0.00  0.00    +0.000 A 
ATOM     24  F   UNL     1       1.216   2.460  22.070  0.00  0.00    +0.000 F 
ATOM     25  C   UNL     1       1.620   3.592  20.047  0.00  0.00    +0.000 A 
ATOM     26  C   UNL     1       2.506   3.951  19.028  0.00  0.00    +0.000 A 
ATOM     27 CL   UNL     1       1.867   4.920  17.747  0.00  0.00    +0.000 Cl
ENDBRANCH  19  20
ENDBRANCH   4  19
TORSDOF 6
ENDMDL
MODEL 5
REMARK VINA RESULT:      -7.3      1.161      1.558
REMARK  Name = 
REMARK  6 active torsions:
REMARK  status: ('A' for Active; 'I' for Inactive)
REMARK    1  A    between atoms: C_2  and  C_3
REMARK    2  A    between atoms: C_3  and  N_4
REMARK    3  A    between atoms: N_7  and  C_8
REMARK    4  A    between atoms: C_8  and  C_9
REMARK    5  A    between atoms: N_19  and  C_20
REMARK    6  A    between atoms: C_20  and  C_21
REMARK                            x       y       z     vdW  Elec       q    Type
REMARK                         _______ _______ _______ _____ _____    ______ ____
ROOT
ATOM      1  N   UNL     1       5.684   6.302  18.793  0.00  0.00    +0.000 NA
ATOM      2  C   UNL     1       4.906   6.711  17.600  0.00  0.00    +0.000 C 
ATOM      3  C   UNL     1       4.697   5.603  16.528  0.00  0.00    +0.000 C 
ATOM      4  N   UNL     1       4.143   4.328  17.058  0.00  0.00    +0.000 NA
ATOM      5  C   UNL     1       4.955   3.930  18.227  0.00  0.00    +0.000 C 
ATOM      6  C   UNL     1       5.122   5.029  19.302  0.00  0.00    +0.000 C 
ENDROOT
BRANCH   1   7
ATOM      7  C   UNL     1       7.130   6.131  18.507  0.00  0.00    +0.000 C 
BRANCH   7   9
ATOM      8  O   UNL     1       7.954   7.032  16.405  0.00  0.00    +0.000 OA
ATOM      9  C   UNL     1       7.692   7.229  17.590  0.00  0.00    +0.000 C 
ATOM     10  N   UNL     1       7.907   8.441  18.210  0.00  0.00    +0.000 N 
ATOM     11  H   UNL     1       7.755   8.531  19.204  0.00  0.00    +0.000 HD
BRANCH  10  12
ATOM     12  C   UNL     1       8.473   9.568  17.506  0.00  0.00    +0.000 C 
BRANCH  12  13
ATOM     13  C   UNL     1       9.306  10.424  18.426  0.00  0.00    +0.000 A 
ATOM     14  C   UNL     1       9.123  10.358  19.815  0.00  0.00    +0.000 A 
ATOM     15  C   UNL     1       9.904  11.144  20.668  0.00  0.00    +0.000 A 
ATOM     16  C   UNL     1      10.856  12.011  20.141  0.00  0.00    +0.000 A 
ATOM     17  C   UNL     1      11.036  12.097  18.761  0.00  0.00    +0.000 A 
ATOM     18  C   UNL     1      10.258  11.311  17.907  0.00  0.00    +0.000 A 
ENDBRANCH  12  13
ENDBRANCH  10  12
ENDBRANCH   7   9
ENDBRANCH   1   7
BRANCH   4  19
ATOM     19  C   UNL     1       2.709   4.505  17.384  0.00  0.00    +0.000 C 
BRANCH  19  20
ATOM     20  C   UNL     1       2.264   3.943  18.725  0.00  0.00    +0.000 A 
ATOM     21  C   UNL     1       2.062   2.556  18.876  0.00  0.00    +0.000 A 
ATOM     22  C   UNL     1       1.634   2.022  20.092  0.00  0.00    +0.000 A 
ATOM     23  C   UNL     1       1.373   2.869  21.154  0.00  0.00    +0.000 A 
ATOM     24  F   UNL     1       0.951   2.359  22.320  0.00  0.00    +0.000 F 
ATOM     25  C   UNL     1       1.534   4.243  21.035  0.00  0.00    +0.000 A 
ATOM     26  C   UNL     1       1.974   4.779  19.821  0.00  0.00    +0.000 A 
ATOM     27 CL   UNL     1       2.131   6.499  19.743  0.00  0.00    +0.000 Cl
ENDBRANCH  19  20
ENDBRANCH   4  19
TORSDOF 6
ENDMDL
MODEL 6
REMARK VINA RESULT:      -7.2      1.836      2.368
REMARK  Name = 
REMARK  6 active torsions:
REMARK  status: ('A' for Active; 'I' for Inactive)
REMARK    1  A    between atoms: C_2  and  C_3
REMARK    2  A    between atoms: C_3  and  N_4
REMARK    3  A    between atoms: N_7  and  C_8
REMARK    4  A    between atoms: C_8  and  C_9
REMARK    5  A    between atoms: N_19  and  C_20
REMARK    6  A    between atoms: C_20  and  C_21
REMARK                            x       y       z     vdW  Elec       q    Type
REMARK                         _______ _______ _______ _____ _____    ______ ____
ROOT
ATOM      1  N   UNL     1       7.025   7.021  16.942  0.00  0.00    +0.000 NA
ATOM      2  C   UNL     1       7.308   5.749  16.236  0.00  0.00    +0.000 C 
ATOM      3  C   UNL     1       7.257   4.471  17.121  0.00  0.00    +0.000 C 
ATOM      4  N   UNL     1       6.009   4.320  17.917  0.00  0.00    +0.000 NA
ATOM      5  C   UNL     1       5.768   5.591  18.631  0.00  0.00    +0.000 C 
ATOM      6  C   UNL     1       5.784   6.850  17.732  0.00  0.00    +0.000 C 
ENDROOT
BRANCH   1   7
ATOM      7  C   UNL     1       8.133   7.443  17.835  0.00  0.00    +0.000 C 
BRANCH   7   9
ATOM      8  O   UNL     1       7.382   9.739  17.570  0.00  0.00    +0.000 OA
ATOM      9  C   UNL     1       8.081   8.938  18.187  0.00  0.00    +0.000 C 
ATOM     10  N   UNL     1       8.904   9.312  19.227  0.00  0.00    +0.000 N 
ATOM     11  H   UNL     1       9.522   8.634  19.648  0.00  0.00    +0.000 HD
BRANCH  10  12
ATOM     12  C   UNL     1       9.011  10.686  19.659  0.00  0.00    +0.000 C 
BRANCH  12  13
ATOM     13  C   UNL     1      10.020  11.442  18.831  0.00  0.00    +0.000 A 
ATOM     14  C   UNL     1       9.595  12.395  17.894  0.00  0.00    +0.000 A 
ATOM     15  C   UNL     1      10.533  13.103  17.135  0.00  0.00    +0.000 A 
ATOM     16  C   UNL     1      11.893  12.852  17.293  0.00  0.00    +0.000 A 
ATOM     17  C   UNL     1      12.325  11.896  18.210  0.00  0.00    +0.000 A 
ATOM     18  C   UNL     1      11.391  11.189  18.972  0.00  0.00    +0.000 A 
ENDBRANCH  12  13
ENDBRANCH  10  12
ENDBRANCH   7   9
ENDBRANCH   1   7
BRANCH   4  19
ATOM     19  C   UNL     1       4.890   3.939  17.024  0.00  0.00    +0.000 C 
BRANCH  19  20
ATOM     20  C   UNL     1       3.566   3.651  17.712  0.00  0.00    +0.000 A 
ATOM     21  C   UNL     1       2.620   4.683  17.879  0.00  0.00    +0.000 A 
ATOM     22  C   UNL     1       1.407   4.446  18.526  0.00  0.00    +0.000 A 
ATOM     23  C   UNL     1       1.143   3.189  19.040  0.00  0.00    +0.000 A 
ATOM     24  F   UNL     1      -0.017   2.961  19.672  0.00  0.00    +0.000 F 
ATOM     25  C   UNL     1       2.062   2.155  18.919  0.00  0.00    +0.000 A 
ATOM     26  C   UNL     1       3.273   2.387  18.261  0.00  0.00    +0.000 A 
ATOM     27 CL   UNL     1       4.374   1.058  18.167  0.00  0.00    +0.000 Cl
ENDBRANCH  19  20
ENDBRANCH   4  19
TORSDOF 6
ENDMDL
MODEL 7
REMARK VINA RESULT:      -7.2      5.356      8.148
REMARK  Name = 
REMARK  6 active torsions:
REMARK  status: ('A' for Active; 'I' for Inactive)
REMARK    1  A    between atoms: C_2  and  C_3
REMARK    2  A    between atoms: C_3  and  N_4
REMARK    3  A    between atoms: N_7  and  C_8
REMARK    4  A    between atoms: C_8  and  C_9
REMARK    5  A    between atoms: N_19  and  C_20
REMARK    6  A    between atoms: C_20  and  C_21
REMARK                            x       y       z     vdW  Elec       q    Type
REMARK                         _______ _______ _______ _____ _____    ______ ____
ROOT
ATOM      1  N   UNL     1       2.360   6.666  18.183  0.00  0.00    +0.000 NA
ATOM      2  C   UNL     1       3.669   6.707  17.489  0.00  0.00    +0.000 C 
ATOM      3  C   UNL     1       4.899   6.334  18.364  0.00  0.00    +0.000 C 
ATOM      4  N   UNL     1       4.772   5.040  19.088  0.00  0.00    +0.000 NA
ATOM      5  C   UNL     1       3.473   5.040  19.793  0.00  0.00    +0.000 C 
ATOM      6  C   UNL     1       2.254   5.375  18.902  0.00  0.00    +0.000 C 
ENDROOT
BRANCH   1   7
ATOM      7  C   UNL     1       2.179   7.787  19.138  0.00  0.00    +0.000 C 
BRANCH   7   9
ATOM      8  O   UNL     1       2.078   9.444  17.363  0.00  0.00    +0.000 OA
ATOM      9  C   UNL     1       1.674   9.072  18.463  0.00  0.00    +0.000 C 
ATOM     10  N   UNL     1       0.757   9.788  19.202  0.00  0.00    +0.000 N 
ATOM     11  H   UNL     1       0.518   9.485  20.136  0.00  0.00    +0.000 HD
BRANCH  10  12
ATOM     12  C   UNL     1       0.213  11.042  18.736  0.00  0.00    +0.000 C 
BRANCH  12  13
ATOM     13  C   UNL     1      -1.231  10.893  18.330  0.00  0.00    +0.000 A 
ATOM     14  C   UNL     1      -2.214  11.719  18.897  0.00  0.00    +0.000 A 
ATOM     15  C   UNL     1      -3.552  11.589  18.511  0.00  0.00    +0.000 A 
ATOM     16  C   UNL     1      -3.919  10.625  17.576  0.00  0.00    +0.000 A 
ATOM     17  C   UNL     1      -2.953   9.789  17.019  0.00  0.00    +0.000 A 
ATOM     18  C   UNL     1      -1.615   9.919  17.400  0.00  0.00    +0.000 A 
ENDBRANCH  12  13
ENDBRANCH  10  12
ENDBRANCH   7   9
ENDBRANCH   1   7
BRANCH   4  19
ATOM     19  C   UNL     1       4.910   3.917  18.133  0.00  0.00    +0.000 C 
BRANCH  19  20
ATOM     20  C   UNL     1       5.596   4.251  16.818  0.00  0.00    +0.000 A 
ATOM     21  C   UNL     1       4.877   4.174  15.608  0.00  0.00    +0.000 A 
ATOM     22  C   UNL     1       5.493   4.456  14.388  0.00  0.00    +0.000 A 
ATOM     23  C   UNL     1       6.837   4.783  14.363  0.00  0.00    +0.000 A 
ATOM     24  F   UNL     1       7.434   5.044  13.191  0.00  0.00    +0.000 F 
ATOM     25  C   UNL     1       7.584   4.842  15.531  0.00  0.00    +0.000 A 
ATOM     26  C   UNL     1       6.967   4.571  16.755  0.00  0.00    +0.000 A 
ATOM     27 CL   UNL     1       7.967   4.644  18.164  0.00  0.00    +0.000 Cl
ENDBRANCH  19  20
ENDBRANCH   4  19
TORSDOF 6
ENDMDL
MODEL 8
REMARK VINA RESULT:      -7.2      1.346      1.834
REMARK  Name = 
REMARK  6 active torsions:
REMARK  status: ('A' for Active; 'I' for Inactive)
REMARK    1  A    between atoms: C_2  and  C_3
REMARK    2  A    between atoms: C_3  and  N_4
REMARK    3  A    between atoms: N_7  and  C_8
REMARK    4  A    between atoms: C_8  and  C_9
REMARK    5  A    between atoms: N_19  and  C_20
REMARK    6  A    between atoms: C_20  and  C_21
REMARK                            x       y       z     vdW  Elec       q    Type
REMARK                         _______ _______ _______ _____ _____    ______ ____
ROOT
ATOM      1  N   UNL     1       7.068   6.135  17.661  0.00  0.00    +0.000 NA
ATOM      2  C   UNL     1       6.078   5.907  18.741  0.00  0.00    +0.000 C 
ATOM      3  C   UNL     1       4.588   6.024  18.313  0.00  0.00    +0.000 C 
ATOM      4  N   UNL     1       4.218   5.201  17.131  0.00  0.00    +0.000 NA
ATOM      5  C   UNL     1       5.203   5.471  16.062  0.00  0.00    +0.000 C 
ATOM      6  C   UNL     1       6.681   5.312  16.492  0.00  0.00    +0.000 C 
ENDROOT
BRANCH   1   7
ATOM      7  C   UNL     1       7.165   7.561  17.261  0.00  0.00    +0.000 C 
BRANCH   7   9
ATOM      8  O   UNL     1       8.690   7.908  19.121  0.00  0.00    +0.000 OA
ATOM      9  C   UNL     1       8.208   8.342  18.076  0.00  0.00    +0.000 C 
ATOM     10  N   UNL     1       8.534   9.577  17.559  0.00  0.00    +0.000 N 
ATOM     11  H   UNL     1       8.050   9.924  16.744  0.00  0.00    +0.000 HD
BRANCH  10  12
ATOM     12  C   UNL     1       9.464  10.460  18.223  0.00  0.00    +0.000 C 
BRANCH  12  13
ATOM     13  C   UNL     1       8.976  11.886  18.198  0.00  0.00    +0.000 A 
ATOM     14  C   UNL     1       9.646  12.877  18.932  0.00  0.00    +0.000 A 
ATOM     15  C   UNL     1       9.199  14.201  18.899  0.00  0.00    +0.000 A 
ATOM     16  C   UNL     1       8.075  14.541  18.152  0.00  0.00    +0.000 A 
ATOM     17  C   UNL     1       7.392  13.562  17.432  0.00  0.00    +0.000 A 
ATOM     18  C   UNL     1       7.838  12.238  17.461  0.00  0.00    +0.000 A 
ENDBRANCH  12  13
ENDBRANCH  10  12
ENDBRANCH   7   9
ENDBRANCH   1   7
BRANCH   4  19
ATOM     19  C   UNL     1       4.160   3.772  17.515  0.00  0.00    +0.000 C 
BRANCH  19  20
ATOM     20  C   UNL     1       3.322   3.453  18.742  0.00  0.00    +0.000 A 
ATOM     21  C   UNL     1       3.918   2.840  19.863  0.00  0.00    +0.000 A 
ATOM     22  C   UNL     1       3.162   2.520  20.992  0.00  0.00    +0.000 A 
ATOM     23  C   UNL     1       1.803   2.777  20.997  0.00  0.00    +0.000 A 
ATOM     24  F   UNL     1       1.072   2.460  22.076  0.00  0.00    +0.000 F 
ATOM     25  C   UNL     1       1.176   3.353  19.901  0.00  0.00    +0.000 A 
ATOM     26  C   UNL     1       1.932   3.686  18.774  0.00  0.00    +0.000 A 
ATOM     27 CL   UNL     1       1.078   4.381  17.441  0.00  0.00    +0.000 Cl
ENDBRANCH  19  20
ENDBRANCH   4  19
TORSDOF 6
ENDMDL
MODEL 9
REMARK VINA RESULT:      -7.1      7.241     10.024
REMARK  Name = 
REMARK  6 active torsions:
REMARK  status: ('A' for Active; 'I' for Inactive)
REMARK    1  A    between atoms: C_2  and  C_3
REMARK    2  A    between atoms: C_3  and  N_4
REMARK    3  A    between atoms: N_7  and  C_8
REMARK    4  A    between atoms: C_8  and  C_9
REMARK    5  A    between atoms: N_19  and  C_20
REMARK    6  A    between atoms: C_20  and  C_21
REMARK                            x       y       z     vdW  Elec       q    Type
REMARK                         _______ _______ _______ _____ _____    ______ ____
ROOT
ATOM      1  N   UNL     1       1.130  10.300  19.263  0.00  0.00    +0.000 NA
ATOM      2  C   UNL     1       1.259  11.767  19.089  0.00  0.00    +0.000 C 
ATOM      3  C   UNL     1       0.050  12.465  18.405  0.00  0.00    +0.000 C 
ATOM      4  N   UNL     1      -1.269  12.162  19.021  0.00  0.00    +0.000 NA
ATOM      5  C   UNL     1      -1.382  10.694  19.155  0.00  0.00    +0.000 C 
ATOM      6  C   UNL     1      -0.190  10.017  19.872  0.00  0.00    +0.000 C 
ENDROOT
BRANCH   1   7
ATOM      7  C   UNL     1       1.262   9.555  17.986  0.00  0.00    +0.000 C 
BRANCH   7   9
ATOM      8  O   UNL     1       3.133   8.233  17.175  0.00  0.00    +0.000 OA
ATOM      9  C   UNL     1       2.299   8.423  18.059  0.00  0.00    +0.000 C 
ATOM     10  N   UNL     1       2.199   7.621  19.175  0.00  0.00    +0.000 N 
ATOM     11  H   UNL     1       1.445   7.767  19.831  0.00  0.00    +0.000 HD
BRANCH  10  12
ATOM     12  C   UNL     1       3.066   6.485  19.379  0.00  0.00    +0.000 C 
BRANCH  12  13
ATOM     13  C   UNL     1       2.281   5.199  19.423  0.00  0.00    +0.000 A 
ATOM     14  C   UNL     1       1.956   4.527  18.235  0.00  0.00    +0.000 A 
ATOM     15  C   UNL     1       1.237   3.328  18.277  0.00  0.00    +0.000 A 
ATOM     16  C   UNL     1       0.823   2.805  19.499  0.00  0.00    +0.000 A 
ATOM     17  C   UNL     1       1.127   3.473  20.684  0.00  0.00    +0.000 A 
ATOM     18  C   UNL     1       1.847   4.669  20.645  0.00  0.00    +0.000 A 
ENDBRANCH  12  13
ENDBRANCH  10  12
ENDBRANCH   7   9
ENDBRANCH   1   7
BRANCH   4  19
ATOM     19  C   UNL     1      -1.390  12.870  20.316  0.00  0.00    +0.000 C 
BRANCH  19  20
ATOM     20  C   UNL     1      -2.763  12.826  20.966  0.00  0.00    +0.000 A 
ATOM     21  C   UNL     1      -3.923  12.857  20.166  0.00  0.00    +0.000 A 
ATOM     22  C   UNL     1      -5.193  12.838  20.743  0.00  0.00    +0.000 A 
ATOM     23  C   UNL     1      -5.316  12.823  22.121  0.00  0.00    +0.000 A 
ATOM     24  F   UNL     1      -6.535  12.816  22.678  0.00  0.00    +0.000 F 
ATOM     25  C   UNL     1      -4.196  12.821  22.942  0.00  0.00    +0.000 A 
ATOM     26  C   UNL     1      -2.923  12.827  22.366  0.00  0.00    +0.000 A 
ATOM     27 CL   UNL     1      -1.578  12.844  23.453  0.00  0.00    +0.000 Cl
ENDBRANCH  19  20
ENDBRANCH   4  19
TORSDOF 6
ENDMDL
