MODEL 1
REMARK VINA RESULT:      -8.8      0.000      0.000
REMARK  Name = 
REMARK  7 active torsions:
REMARK  status: ('A' for Active; 'I' for Inactive)
REMARK    1  A    between atoms: C_2  and  O_3
REMARK    2  A    between atoms: C_2  and  C_4
REMARK    3  A    between atoms: C_4  and  S_5
REMARK    4  A    between atoms: S_5  and  C_6
REMARK    5  A    between atoms: C_9  and  C_10
REMARK    6  A    between atoms: C_13  and  O_14
REMARK    7  A    between atoms: C_15  and  C_16
REMARK                            x       y       z     vdW  Elec       q    Type
REMARK                         _______ _______ _______ _____ _____    ______ ____
ROOT
ATOM      1  C   UNL     1       1.871   6.833  20.235  0.00  0.00    +0.000 A 
ATOM      2  C   UNL     1       1.444   5.642  20.832  0.00  0.00    +0.000 A 
ATOM      3  C   UNL     1       2.152   4.465  20.653  0.00  0.00    +0.000 A 
ATOM      4  C   UNL     1       3.288   4.440  19.840  0.00  0.00    +0.000 A 
ATOM      5  C   UNL     1       3.727   5.583  19.159  0.00  0.00    +0.000 A 
ATOM      6  C   UNL     1       3.000   6.752  19.396  0.00  0.00    +0.000 A 
ENDROOT
BRANCH   5   7
ATOM      7  C   UNL     1       4.957   5.570  18.237  0.00  0.00    +0.000 C 
ATOM      8  C   UNL     1       6.264   5.597  19.080  0.00  0.00    +0.000 C 
ATOM      9  C   UNL     1       7.508   5.621  18.181  0.00  0.00    +0.000 C 
ATOM     10  C   UNL     1       7.535   4.352  17.320  0.00  0.00    +0.000 C 
ATOM     11  C   UNL     1       6.284   4.300  16.434  0.00  0.00    +0.000 C 
ATOM     12  C   UNL     1       6.233   5.535  15.526  0.00  0.00    +0.000 C 
ATOM     13  C   UNL     1       6.199   6.807  16.381  0.00  0.00    +0.000 C 
ATOM     14  C   UNL     1       7.453   6.859  17.269  0.00  0.00    +0.000 C 
ATOM     15  C   UNL     1       4.944   6.790  17.271  0.00  0.00    +0.000 C 
ATOM     16  C   UNL     1       5.038   4.289  17.330  0.00  0.00    +0.000 C 
ENDBRANCH   5   7
BRANCH   1  20
ATOM     17  C   UNL     1       0.013  10.614  21.220  0.00  0.00    +0.000 A 
ATOM     18  C   UNL     1       0.143   9.605  22.169  0.00  0.00    +0.000 A 
ATOM     19  C   UNL     1       0.731   8.382  21.841  0.00  0.00    +0.000 A 
ATOM     20  C   UNL     1       1.222   8.124  20.533  0.00  0.00    +0.000 A 
ATOM     21  C   UNL     1       1.089   9.168  19.589  0.00  0.00    +0.000 A 
ATOM     22 CL   UNL     1       1.557   9.051  17.919  0.00  0.00    +0.000 Cl
ATOM     23  C   UNL     1       0.508  10.390  19.929  0.00  0.00    +0.000 A 
BRANCH  17  24
ATOM     24  S   UNL     1      -0.719  12.174  21.672  0.00  0.00    +0.000 S 
BRANCH  24  25
ATOM     25  C   UNL     1      -1.662  11.704  23.170  0.00  0.00    +0.000 C 
BRANCH  25  27
ATOM     26  O   UNL     1      -3.906  11.947  23.999  0.00  0.00    +0.000 OA
ATOM     27  C   UNL     1      -3.066  12.279  23.185  0.00  0.00    +0.000 C 
BRANCH  27  28
ATOM     28  O   UNL     1      -3.342  13.139  22.174  0.00  0.00    +0.000 OA
ATOM     29  H   UNL     1      -3.544  14.035  22.499  0.00  0.00    +0.000 HD
ENDBRANCH  27  28
ENDBRANCH  25  27
ENDBRANCH  24  25
ENDBRANCH  17  24
ENDBRANCH   1  20
BRANCH   4  30
ATOM     30  O   UNL     1       3.984   3.277  19.735  0.00  0.00    +0.000 OA
ATOM     31  H   UNL     1       3.488   2.564  20.163  0.00  0.00    +0.000 HD
ENDBRANCH   4  30
TORSDOF 7
ENDMDL
MODEL 2
REMARK VINA RESULT:      -8.8      2.508      4.155
REMARK  Name = 
REMARK  7 active torsions:
REMARK  status: ('A' for Active; 'I' for Inactive)
REMARK    1  A    between atoms: C_2  and  O_3
REMARK    2  A    between atoms: C_2  and  C_4
REMARK    3  A    between atoms: C_4  and  S_5
REMARK    4  A    between atoms: S_5  and  C_6
REMARK    5  A    between atoms: C_9  and  C_10
REMARK    6  A    between atoms: C_13  and  O_14
REMARK    7  A    between atoms: C_15  and  C_16
REMARK                            x       y       z     vdW  Elec       q    Type
REMARK                         _______ _______ _______ _____ _____    ______ ____
ROOT
ATOM      1  C   UNL     1       1.604   8.770  19.176  0.00  0.00    +0.000 A 
ATOM      2  C   UNL     1       2.503   9.168  18.181  0.00  0.00    +0.000 A 
ATOM      3  C   UNL     1       3.280   8.236  17.512  0.00  0.00    +0.000 A 
ATOM      4  C   UNL     1       3.204   6.882  17.846  0.00  0.00    +0.000 A 
ATOM      5  C   UNL     1       2.375   6.428  18.881  0.00  0.00    +0.000 A 
ATOM      6  C   UNL     1       1.589   7.400  19.504  0.00  0.00    +0.000 A 
ENDROOT
BRANCH   5   7
ATOM      7  C   UNL     1       2.299   4.947  19.283  0.00  0.00    +0.000 C 
ATOM      8  C   UNL     1       1.763   4.092  18.099  0.00  0.00    +0.000 C 
ATOM      9  C   UNL     1       1.643   2.612  18.488  0.00  0.00    +0.000 C 
ATOM     10  C   UNL     1       3.029   2.073  18.863  0.00  0.00    +0.000 C 
ATOM     11  C   UNL     1       3.585   2.856  20.058  0.00  0.00    +0.000 C 
ATOM     12  C   UNL     1       2.640   2.719  21.259  0.00  0.00    +0.000 C 
ATOM     13  C   UNL     1       1.254   3.263  20.894  0.00  0.00    +0.000 C 
ATOM     14  C   UNL     1       0.698   2.478  19.695  0.00  0.00    +0.000 C 
ATOM     15  C   UNL     1       1.373   4.750  20.518  0.00  0.00    +0.000 C 
ATOM     16  C   UNL     1       3.693   4.339  19.676  0.00  0.00    +0.000 C 
ENDBRANCH   5   7
BRANCH   1  20
ATOM     17  C   UNL     1      -1.238  11.539  20.901  0.00  0.00    +0.000 A 
ATOM     18  C   UNL     1      -1.133  11.377  19.523  0.00  0.00    +0.000 A 
ATOM     19  C   UNL     1      -0.204  10.491  18.972  0.00  0.00    +0.000 A 
ATOM     20  C   UNL     1       0.662   9.722  19.794  0.00  0.00    +0.000 A 
ATOM     21  C   UNL     1       0.530   9.895  21.191  0.00  0.00    +0.000 A 
ATOM     22 CL   UNL     1       1.526   9.111  22.380  0.00  0.00    +0.000 Cl
ATOM     23  C   UNL     1      -0.408  10.776  21.732  0.00  0.00    +0.000 A 
BRANCH  17  24
ATOM     24  S   UNL     1      -2.449  12.657  21.577  0.00  0.00    +0.000 S 
BRANCH  24  25
ATOM     25  C   UNL     1      -2.653  11.982  23.267  0.00  0.00    +0.000 C 
BRANCH  25  27
ATOM     26  O   UNL     1      -4.097  13.781  23.948  0.00  0.00    +0.000 OA
ATOM     27  C   UNL     1      -3.826  12.597  24.007  0.00  0.00    +0.000 C 
BRANCH  27  28
ATOM     28  O   UNL     1      -4.510  11.741  24.806  0.00  0.00    +0.000 OA
ATOM     29  H   UNL     1      -4.548  12.051  25.729  0.00  0.00    +0.000 HD
ENDBRANCH  27  28
ENDBRANCH  25  27
ENDBRANCH  24  25
ENDBRANCH  17  24
ENDBRANCH   1  20
BRANCH   4  30
ATOM     30  O   UNL     1       3.943   5.996  17.128  0.00  0.00    +0.000 OA
ATOM     31  H   UNL     1       4.592   5.571  17.708  0.00  0.00    +0.000 HD
ENDBRANCH   4  30
TORSDOF 7
ENDMDL
MODEL 3
REMARK VINA RESULT:      -8.7      2.444      3.925
REMARK  Name = 
REMARK  7 active torsions:
REMARK  status: ('A' for Active; 'I' for Inactive)
REMARK    1  A    between atoms: C_2  and  O_3
REMARK    2  A    between atoms: C_2  and  C_4
REMARK    3  A    between atoms: C_4  and  S_5
REMARK    4  A    between atoms: S_5  and  C_6
REMARK    5  A    between atoms: C_9  and  C_10
REMARK    6  A    between atoms: C_13  and  O_14
REMARK    7  A    between atoms: C_15  and  C_16
REMARK                            x       y       z     vdW  Elec       q    Type
REMARK                         _______ _______ _______ _____ _____    ______ ____
ROOT
ATOM      1  C   UNL     1       1.569   8.834  19.207  0.00  0.00    +0.000 A 
ATOM      2  C   UNL     1       2.464   9.232  18.208  0.00  0.00    +0.000 A 
ATOM      3  C   UNL     1       3.230   8.299  17.528  0.00  0.00    +0.000 A 
ATOM      4  C   UNL     1       3.146   6.943  17.855  0.00  0.00    +0.000 A 
ATOM      5  C   UNL     1       2.321   6.489  18.892  0.00  0.00    +0.000 A 
ATOM      6  C   UNL     1       1.546   7.462  19.527  0.00  0.00    +0.000 A 
ENDROOT
BRANCH   5   7
ATOM      7  C   UNL     1       2.237   5.005  19.285  0.00  0.00    +0.000 C 
ATOM      8  C   UNL     1       3.647   4.464  19.657  0.00  0.00    +0.000 C 
ATOM      9  C   UNL     1       3.596   2.973  20.019  0.00  0.00    +0.000 C 
ATOM     10  C   UNL     1       2.686   2.779  21.238  0.00  0.00    +0.000 C 
ATOM     11  C   UNL     1       1.267   3.258  20.908  0.00  0.00    +0.000 C 
ATOM     12  C   UNL     1       0.709   2.464  19.719  0.00  0.00    +0.000 C 
ATOM     13  C   UNL     1       1.610   2.660  18.495  0.00  0.00    +0.000 C 
ATOM     14  C   UNL     1       3.033   2.180  18.827  0.00  0.00    +0.000 C 
ATOM     15  C   UNL     1       1.650   4.152  18.124  0.00  0.00    +0.000 C 
ATOM     16  C   UNL     1       1.317   4.745  20.532  0.00  0.00    +0.000 C 
ENDBRANCH   5   7
BRANCH   1  20
ATOM     17  C   UNL     1      -1.071  11.683  21.112  0.00  0.00    +0.000 A 
ATOM     18  C   UNL     1       0.034  11.165  21.780  0.00  0.00    +0.000 A 
ATOM     19  C   UNL     1       0.875  10.236  21.164  0.00  0.00    +0.000 A 
ATOM     20  C   UNL     1       0.638   9.789  19.837  0.00  0.00    +0.000 A 
ATOM     21  C   UNL     1      -0.485  10.337  19.175  0.00  0.00    +0.000 A 
ATOM     22 CL   UNL     1      -1.004   9.887  17.578  0.00  0.00    +0.000 Cl
ATOM     23  C   UNL     1      -1.314  11.272  19.795  0.00  0.00    +0.000 A 
BRANCH  17  24
ATOM     24  S   UNL     1      -2.113  12.887  21.913  0.00  0.00    +0.000 S 
BRANCH  24  25
ATOM     25  C   UNL     1      -2.746  11.921  23.334  0.00  0.00    +0.000 C 
BRANCH  25  27
ATOM     26  O   UNL     1      -4.270  13.724  23.795  0.00  0.00    +0.000 OA
ATOM     27  C   UNL     1      -3.950  12.567  23.993  0.00  0.00    +0.000 C 
BRANCH  27  28
ATOM     28  O   UNL     1      -4.605  11.781  24.883  0.00  0.00    +0.000 OA
ATOM     29  H   UNL     1      -4.231  10.882  24.923  0.00  0.00    +0.000 HD
ENDBRANCH  27  28
ENDBRANCH  25  27
ENDBRANCH  24  25
ENDBRANCH  17  24
ENDBRANCH   1  20
BRANCH   4  30
ATOM     30  O   UNL     1       3.873   6.056  17.126  0.00  0.00    +0.000 OA
ATOM     31  H   UNL     1       4.415   6.535  16.480  0.00  0.00    +0.000 HD
ENDBRANCH   4  30
TORSDOF 7
ENDMDL
MODEL 4
REMARK VINA RESULT:      -8.7      2.533      4.050
REMARK  Name = 
REMARK  7 active torsions:
REMARK  status: ('A' for Active; 'I' for Inactive)
REMARK    1  A    between atoms: C_2  and  O_3
REMARK    2  A    between atoms: C_2  and  C_4
REMARK    3  A    between atoms: C_4  and  S_5
REMARK    4  A    between atoms: S_5  and  C_6
REMARK    5  A    between atoms: C_9  and  C_10
REMARK    6  A    between atoms: C_13  and  O_14
REMARK    7  A    between atoms: C_15  and  C_16
REMARK                            x       y       z     vdW  Elec       q    Type
REMARK                         _______ _______ _______ _____ _____    ______ ____
ROOT
ATOM      1  C   UNL     1       1.558   8.811  19.218  0.00  0.00    +0.000 A 
ATOM      2  C   UNL     1       2.455   9.222  18.226  0.00  0.00    +0.000 A 
ATOM      3  C   UNL     1       3.230   8.298  17.544  0.00  0.00    +0.000 A 
ATOM      4  C   UNL     1       3.154   6.940  17.861  0.00  0.00    +0.000 A 
ATOM      5  C   UNL     1       2.327   6.473  18.892  0.00  0.00    +0.000 A 
ATOM      6  C   UNL     1       1.543   7.437  19.529  0.00  0.00    +0.000 A 
ENDROOT
BRANCH   5   7
ATOM      7  C   UNL     1       2.252   4.987  19.276  0.00  0.00    +0.000 C 
ATOM      8  C   UNL     1       3.662   4.455  19.660  0.00  0.00    +0.000 C 
ATOM      9  C   UNL     1       3.620   2.962  20.012  0.00  0.00    +0.000 C 
ATOM     10  C   UNL     1       2.697   2.753  21.220  0.00  0.00    +0.000 C 
ATOM     11  C   UNL     1       1.279   3.222  20.877  0.00  0.00    +0.000 C 
ATOM     12  C   UNL     1       0.740   2.430  19.678  0.00  0.00    +0.000 C 
ATOM     13  C   UNL     1       1.654   2.641  18.465  0.00  0.00    +0.000 C 
ATOM     14  C   UNL     1       3.077   2.171  18.810  0.00  0.00    +0.000 C 
ATOM     15  C   UNL     1       1.685   4.135  18.103  0.00  0.00    +0.000 C 
ATOM     16  C   UNL     1       1.320   4.712  20.511  0.00  0.00    +0.000 C 
ENDBRANCH   5   7
BRANCH   1  20
ATOM     17  C   UNL     1      -1.280  11.557  20.985  0.00  0.00    +0.000 A 
ATOM     18  C   UNL     1      -1.198  11.392  19.606  0.00  0.00    +0.000 A 
ATOM     19  C   UNL     1      -0.271  10.514  19.041  0.00  0.00    +0.000 A 
ATOM     20  C   UNL     1       0.617   9.756  19.849  0.00  0.00    +0.000 A 
ATOM     21  C   UNL     1       0.509   9.933  21.248  0.00  0.00    +0.000 A 
ATOM     22 CL   UNL     1       1.534   9.162  22.421  0.00  0.00    +0.000 Cl
ATOM     23  C   UNL     1      -0.428  10.805  21.803  0.00  0.00    +0.000 A 
BRANCH  17  24
ATOM     24  S   UNL     1      -2.490  12.665  21.679  0.00  0.00    +0.000 S 
BRANCH  24  25
ATOM     25  C   UNL     1      -2.688  11.969  23.361  0.00  0.00    +0.000 C 
BRANCH  25  27
ATOM     26  O   UNL     1      -3.867  13.808  24.368  0.00  0.00    +0.000 OA
ATOM     27  C   UNL     1      -3.822  12.615  24.135  0.00  0.00    +0.000 C 
BRANCH  27  28
ATOM     28  O   UNL     1      -4.750  11.751  24.617  0.00  0.00    +0.000 OA
ATOM     29  H   UNL     1      -4.913  11.009  24.006  0.00  0.00    +0.000 HD
ENDBRANCH  27  28
ENDBRANCH  25  27
ENDBRANCH  24  25
ENDBRANCH  17  24
ENDBRANCH   1  20
BRANCH   4  30
ATOM     30  O   UNL     1       3.891   6.062  17.130  0.00  0.00    +0.000 OA
ATOM     31  H   UNL     1       3.576   6.059  16.215  0.00  0.00    +0.000 HD
ENDBRANCH   4  30
TORSDOF 7
ENDMDL
MODEL 5
REMARK VINA RESULT:      -8.7      0.155      1.406
REMARK  Name = 
REMARK  7 active torsions:
REMARK  status: ('A' for Active; 'I' for Inactive)
REMARK    1  A    between atoms: C_2  and  O_3
REMARK    2  A    between atoms: C_2  and  C_4
REMARK    3  A    between atoms: C_4  and  S_5
REMARK    4  A    between atoms: S_5  and  C_6
REMARK    5  A    between atoms: C_9  and  C_10
REMARK    6  A    between atoms: C_13  and  O_14
REMARK    7  A    between atoms: C_15  and  C_16
REMARK                            x       y       z     vdW  Elec       q    Type
REMARK                         _______ _______ _______ _____ _____    ______ ____
ROOT
ATOM      1  C   UNL     1       1.874   6.847  20.269  0.00  0.00    +0.000 A 
ATOM      2  C   UNL     1       1.436   5.655  20.855  0.00  0.00    +0.000 A 
ATOM      3  C   UNL     1       2.139   4.475  20.673  0.00  0.00    +0.000 A 
ATOM      4  C   UNL     1       3.282   4.449  19.870  0.00  0.00    +0.000 A 
ATOM      5  C   UNL     1       3.732   5.594  19.200  0.00  0.00    +0.000 A 
ATOM      6  C   UNL     1       3.009   6.765  19.439  0.00  0.00    +0.000 A 
ENDROOT
BRANCH   5   7
ATOM      7  C   UNL     1       4.970   5.580  18.289  0.00  0.00    +0.000 C 
ATOM      8  C   UNL     1       4.969   6.824  17.355  0.00  0.00    +0.000 C 
ATOM      9  C   UNL     1       6.177   6.814  16.409  0.00  0.00    +0.000 C 
ATOM     10  C   UNL     1       7.468   6.852  17.236  0.00  0.00    +0.000 C 
ATOM     11  C   UNL     1       7.540   5.620  18.145  0.00  0.00    +0.000 C 
ATOM     12  C   UNL     1       7.513   4.341  17.297  0.00  0.00    +0.000 C 
ATOM     13  C   UNL     1       6.221   4.292  16.473  0.00  0.00    +0.000 C 
ATOM     14  C   UNL     1       6.149   5.529  15.562  0.00  0.00    +0.000 C 
ATOM     15  C   UNL     1       5.010   4.288  17.422  0.00  0.00    +0.000 C 
ATOM     16  C   UNL     1       6.325   5.620  19.083  0.00  0.00    +0.000 C 
ENDBRANCH   5   7
BRANCH   1  20
ATOM     17  C   UNL     1       0.035  10.636  21.260  0.00  0.00    +0.000 A 
ATOM     18  C   UNL     1       0.217   9.648  22.223  0.00  0.00    +0.000 A 
ATOM     19  C   UNL     1       0.799   8.422  21.894  0.00  0.00    +0.000 A 
ATOM     20  C   UNL     1       1.230   8.140  20.570  0.00  0.00    +0.000 A 
ATOM     21  C   UNL     1       1.044   9.162  19.611  0.00  0.00    +0.000 A 
ATOM     22 CL   UNL     1       1.433   9.013  17.924  0.00  0.00    +0.000 Cl
ATOM     23  C   UNL     1       0.470  10.387  19.953  0.00  0.00    +0.000 A 
BRANCH  17  24
ATOM     24  S   UNL     1      -0.688  12.199  21.714  0.00  0.00    +0.000 S 
BRANCH  24  25
ATOM     25  C   UNL     1      -1.693  11.720  23.167  0.00  0.00    +0.000 C 
BRANCH  25  27
ATOM     26  O   UNL     1      -3.988  12.030  23.816  0.00  0.00    +0.000 OA
ATOM     27  C   UNL     1      -3.009  12.471  23.245  0.00  0.00    +0.000 C 
BRANCH  27  28
ATOM     28  O   UNL     1      -3.040  13.644  22.564  0.00  0.00    +0.000 OA
ATOM     29  H   UNL     1      -2.716  13.545  21.650  0.00  0.00    +0.000 HD
ENDBRANCH  27  28
ENDBRANCH  25  27
ENDBRANCH  24  25
ENDBRANCH  17  24
ENDBRANCH   1  20
BRANCH   4  30
ATOM     30  O   UNL     1       3.972   3.283  19.764  0.00  0.00    +0.000 OA
ATOM     31  H   UNL     1       4.858   3.462  19.415  0.00  0.00    +0.000 HD
ENDBRANCH   4  30
TORSDOF 7
ENDMDL
MODEL 6
REMARK VINA RESULT:      -8.7      2.431      4.004
REMARK  Name = 
REMARK  7 active torsions:
REMARK  status: ('A' for Active; 'I' for Inactive)
REMARK    1  A    between atoms: C_2  and  O_3
REMARK    2  A    between atoms: C_2  and  C_4
REMARK    3  A    between atoms: C_4  and  S_5
REMARK    4  A    between atoms: S_5  and  C_6
REMARK    5  A    between atoms: C_9  and  C_10
REMARK    6  A    between atoms: C_13  and  O_14
REMARK    7  A    between atoms: C_15  and  C_16
REMARK                            x       y       z     vdW  Elec       q    Type
REMARK                         _______ _______ _______ _____ _____    ______ ____
ROOT
ATOM      1  C   UNL     1       1.566   8.857  19.119  0.00  0.00    +0.000 A 
ATOM      2  C   UNL     1       2.500   9.250  18.155  0.00  0.00    +0.000 A 
ATOM      3  C   UNL     1       3.303   8.315  17.522  0.00  0.00    +0.000 A 
ATOM      4  C   UNL     1       3.218   6.963  17.865  0.00  0.00    +0.000 A 
ATOM      5  C   UNL     1       2.352   6.516  18.871  0.00  0.00    +0.000 A 
ATOM      6  C   UNL     1       1.541   7.490  19.458  0.00  0.00    +0.000 A 
ENDROOT
BRANCH   5   7
ATOM      7  C   UNL     1       2.264   5.037  19.282  0.00  0.00    +0.000 C 
ATOM      8  C   UNL     1       1.695   4.183  18.113  0.00  0.00    +0.000 C 
ATOM      9  C   UNL     1       1.562   2.707  18.512  0.00  0.00    +0.000 C 
ATOM     10  C   UNL     1       2.948   2.152  18.863  0.00  0.00    +0.000 C 
ATOM     11  C   UNL     1       3.537   2.933  20.044  0.00  0.00    +0.000 C 
ATOM     12  C   UNL     1       2.614   2.815  21.263  0.00  0.00    +0.000 C 
ATOM     13  C   UNL     1       1.228   3.376  20.921  0.00  0.00    +0.000 C 
ATOM     14  C   UNL     1       0.639   2.592  19.737  0.00  0.00    +0.000 C 
ATOM     15  C   UNL     1       1.359   4.859  20.536  0.00  0.00    +0.000 C 
ATOM     16  C   UNL     1       3.658   4.412  19.652  0.00  0.00    +0.000 C 
ENDBRANCH   5   7
BRANCH   1  20
ATOM     17  C   UNL     1      -1.180  11.712  20.860  0.00  0.00    +0.000 A 
ATOM     18  C   UNL     1      -0.066  11.261  21.563  0.00  0.00    +0.000 A 
ATOM     19  C   UNL     1       0.809  10.330  21.000  0.00  0.00    +0.000 A 
ATOM     20  C   UNL     1       0.599   9.813  19.694  0.00  0.00    +0.000 A 
ATOM     21  C   UNL     1      -0.533  10.293  18.996  0.00  0.00    +0.000 A 
ATOM     22 CL   UNL     1      -1.020   9.751  17.418  0.00  0.00    +0.000 Cl
ATOM     23  C   UNL     1      -1.396  11.231  19.563  0.00  0.00    +0.000 A 
BRANCH  17  24
ATOM     24  S   UNL     1      -2.265  12.920  21.593  0.00  0.00    +0.000 S 
BRANCH  24  25
ATOM     25  C   UNL     1      -2.482  12.231  23.276  0.00  0.00    +0.000 C 
BRANCH  25  27
ATOM     26  O   UNL     1      -4.271  11.895  24.846  0.00  0.00    +0.000 OA
ATOM     27  C   UNL     1      -3.930  12.230  23.728  0.00  0.00    +0.000 C 
BRANCH  27  28
ATOM     28  O   UNL     1      -4.830  12.558  22.768  0.00  0.00    +0.000 OA
ATOM     29  H   UNL     1      -5.673  12.866  23.146  0.00  0.00    +0.000 HD
ENDBRANCH  27  28
ENDBRANCH  25  27
ENDBRANCH  24  25
ENDBRANCH  17  24
ENDBRANCH   1  20
BRANCH   4  30
ATOM     30  O   UNL     1       3.984   6.073  17.181  0.00  0.00    +0.000 OA
ATOM     31  H   UNL     1       4.462   6.532  16.475  0.00  0.00    +0.000 HD
ENDBRANCH   4  30
TORSDOF 7
ENDMDL
MODEL 7
REMARK VINA RESULT:      -8.7      0.169      1.535
REMARK  Name = 
REMARK  7 active torsions:
REMARK  status: ('A' for Active; 'I' for Inactive)
REMARK    1  A    between atoms: C_2  and  O_3
REMARK    2  A    between atoms: C_2  and  C_4
REMARK    3  A    between atoms: C_4  and  S_5
REMARK    4  A    between atoms: S_5  and  C_6
REMARK    5  A    between atoms: C_9  and  C_10
REMARK    6  A    between atoms: C_13  and  O_14
REMARK    7  A    between atoms: C_15  and  C_16
REMARK                            x       y       z     vdW  Elec       q    Type
REMARK                         _______ _______ _______ _____ _____    ______ ____
ROOT
ATOM      1  C   UNL     1       1.842   6.928  20.313  0.00  0.00    +0.000 A 
ATOM      2  C   UNL     1       1.438   5.745  20.941  0.00  0.00    +0.000 A 
ATOM      3  C   UNL     1       2.141   4.566  20.754  0.00  0.00    +0.000 A 
ATOM      4  C   UNL     1       3.248   4.531  19.903  0.00  0.00    +0.000 A 
ATOM      5  C   UNL     1       3.661   5.665  19.191  0.00  0.00    +0.000 A 
ATOM      6  C   UNL     1       2.941   6.836  19.437  0.00  0.00    +0.000 A 
ENDROOT
BRANCH   5   7
ATOM      7  C   UNL     1       4.859   5.639  18.228  0.00  0.00    +0.000 C 
ATOM      8  C   UNL     1       4.808   4.367  17.335  0.00  0.00    +0.000 C 
ATOM      9  C   UNL     1       6.015   4.299  16.389  0.00  0.00    +0.000 C 
ATOM     10  C   UNL     1       6.000   5.521  15.462  0.00  0.00    +0.000 C 
ATOM     11  C   UNL     1       6.094   6.805  16.294  0.00  0.00    +0.000 C 
ATOM     12  C   UNL     1       7.389   6.802  17.117  0.00  0.00    +0.000 C 
ATOM     13  C   UNL     1       7.406   5.587  18.052  0.00  0.00    +0.000 C 
ATOM     14  C   UNL     1       7.311   4.300  17.217  0.00  0.00    +0.000 C 
ATOM     15  C   UNL     1       6.205   5.663  19.010  0.00  0.00    +0.000 C 
ATOM     16  C   UNL     1       4.896   6.869  17.251  0.00  0.00    +0.000 C 
ENDBRANCH   5   7
BRANCH   1  20
ATOM     17  C   UNL     1       0.018  10.723  21.307  0.00  0.00    +0.000 A 
ATOM     18  C   UNL     1       0.213   9.741  22.273  0.00  0.00    +0.000 A 
ATOM     19  C   UNL     1       0.791   8.513  21.944  0.00  0.00    +0.000 A 
ATOM     20  C   UNL     1       1.203   8.223  20.616  0.00  0.00    +0.000 A 
ATOM     21  C   UNL     1       1.003   9.239  19.653  0.00  0.00    +0.000 A 
ATOM     22 CL   UNL     1       1.368   9.079  17.961  0.00  0.00    +0.000 Cl
ATOM     23  C   UNL     1       0.434  10.466  19.995  0.00  0.00    +0.000 A 
BRANCH  17  24
ATOM     24  S   UNL     1      -0.698  12.290  21.761  0.00  0.00    +0.000 S 
BRANCH  24  25
ATOM     25  C   UNL     1      -1.716  11.811  23.206  0.00  0.00    +0.000 C 
BRANCH  25  27
ATOM     26  O   UNL     1      -3.411  13.324  22.418  0.00  0.00    +0.000 OA
ATOM     27  C   UNL     1      -3.103  12.425  23.177  0.00  0.00    +0.000 C 
BRANCH  27  28
ATOM     28  O   UNL     1      -3.959  11.950  24.116  0.00  0.00    +0.000 OA
ATOM     29  H   UNL     1      -3.788  12.333  24.995  0.00  0.00    +0.000 HD
ENDBRANCH  27  28
ENDBRANCH  25  27
ENDBRANCH  24  25
ENDBRANCH  17  24
ENDBRANCH   1  20
BRANCH   4  30
ATOM     30  O   UNL     1       3.941   3.367  19.791  0.00  0.00    +0.000 OA
ATOM     31  H   UNL     1       4.521   3.409  19.016  0.00  0.00    +0.000 HD
ENDBRANCH   4  30
TORSDOF 7
ENDMDL
MODEL 8
REMARK VINA RESULT:      -8.6      2.454      3.941
REMARK  Name = 
REMARK  7 active torsions:
REMARK  status: ('A' for Active; 'I' for Inactive)
REMARK    1  A    between atoms: C_2  and  O_3
REMARK    2  A    between atoms: C_2  and  C_4
REMARK    3  A    between atoms: C_4  and  S_5
REMARK    4  A    between atoms: S_5  and  C_6
REMARK    5  A    between atoms: C_9  and  C_10
REMARK    6  A    between atoms: C_13  and  O_14
REMARK    7  A    between atoms: C_15  and  C_16
REMARK                            x       y       z     vdW  Elec       q    Type
REMARK                         _______ _______ _______ _____ _____    ______ ____
ROOT
ATOM      1  C   UNL     1       1.550   8.860  19.171  0.00  0.00    +0.000 A 
ATOM      2  C   UNL     1       2.462   9.266  18.190  0.00  0.00    +0.000 A 
ATOM      3  C   UNL     1       3.252   8.339  17.529  0.00  0.00    +0.000 A 
ATOM      4  C   UNL     1       3.175   6.983  17.857  0.00  0.00    +0.000 A 
ATOM      5  C   UNL     1       2.332   6.522  18.877  0.00  0.00    +0.000 A 
ATOM      6  C   UNL     1       1.534   7.489  19.493  0.00  0.00    +0.000 A 
ENDROOT
BRANCH   5   7
ATOM      7  C   UNL     1       2.255   5.039  19.272  0.00  0.00    +0.000 C 
ATOM      8  C   UNL     1       1.264   4.845  20.455  0.00  0.00    +0.000 C 
ATOM      9  C   UNL     1       1.197   3.376  20.894  0.00  0.00    +0.000 C 
ATOM     10  C   UNL     1       0.697   2.521  19.722  0.00  0.00    +0.000 C 
ATOM     11  C   UNL     1       1.666   2.642  18.540  0.00  0.00    +0.000 C 
ATOM     12  C   UNL     1       3.065   2.170  18.959  0.00  0.00    +0.000 C 
ATOM     13  C   UNL     1       3.574   3.026  20.124  0.00  0.00    +0.000 C 
ATOM     14  C   UNL     1       2.601   2.904  21.309  0.00  0.00    +0.000 C 
ATOM     15  C   UNL     1       3.655   4.496  19.681  0.00  0.00    +0.000 C 
ATOM     16  C   UNL     1       1.745   4.113  18.109  0.00  0.00    +0.000 C 
ENDBRANCH   5   7
BRANCH   1  20
ATOM     17  C   UNL     1      -1.159  11.688  21.011  0.00  0.00    +0.000 A 
ATOM     18  C   UNL     1      -0.056  11.191  21.700  0.00  0.00    +0.000 A 
ATOM     19  C   UNL     1       0.807  10.269  21.105  0.00  0.00    +0.000 A 
ATOM     20  C   UNL     1       0.596   9.807  19.779  0.00  0.00    +0.000 A 
ATOM     21  C   UNL     1      -0.525  10.333  19.095  0.00  0.00    +0.000 A 
ATOM     22 CL   UNL     1      -1.013   9.862  17.495  0.00  0.00    +0.000 Cl
ATOM     23  C   UNL     1      -1.376  11.262  19.695  0.00  0.00    +0.000 A 
BRANCH  17  24
ATOM     24  S   UNL     1      -2.228  12.883  21.786  0.00  0.00    +0.000 S 
BRANCH  24  25
ATOM     25  C   UNL     1      -2.643  12.029  23.352  0.00  0.00    +0.000 C 
BRANCH  25  27
ATOM     26  O   UNL     1      -5.011  12.386  23.138  0.00  0.00    +0.000 OA
ATOM     27  C   UNL     1      -4.032  12.371  23.858  0.00  0.00    +0.000 C 
BRANCH  27  28
ATOM     28  O   UNL     1      -4.091  12.735  25.163  0.00  0.00    +0.000 OA
ATOM     29  H   UNL     1      -4.465  13.627  25.278  0.00  0.00    +0.000 HD
ENDBRANCH  27  28
ENDBRANCH  25  27
ENDBRANCH  24  25
ENDBRANCH  17  24
ENDBRANCH   1  20
BRANCH   4  30
ATOM     30  O   UNL     1       3.926   6.102  17.145  0.00  0.00    +0.000 OA
ATOM     31  H   UNL     1       3.493   5.916  16.299  0.00  0.00    +0.000 HD
ENDBRANCH   4  30
TORSDOF 7
ENDMDL
MODEL 9
REMARK VINA RESULT:      -8.6      1.733      2.379
REMARK  Name = 
REMARK  7 active torsions:
REMARK  status: ('A' for Active; 'I' for Inactive)
REMARK    1  A    between atoms: C_2  and  O_3
REMARK    2  A    between atoms: C_2  and  C_4
REMARK    3  A    between atoms: C_4  and  S_5
REMARK    4  A    between atoms: S_5  and  C_6
REMARK    5  A    between atoms: C_9  and  C_10
REMARK    6  A    between atoms: C_13  and  O_14
REMARK    7  A    between atoms: C_15  and  C_16
REMARK                            x       y       z     vdW  Elec       q    Type
REMARK                         _______ _______ _______ _____ _____    ______ ____
ROOT
ATOM      1  C   UNL     1       1.871   6.985  20.224  0.00  0.00    +0.000 A 
ATOM      2  C   UNL     1       1.420   5.821  20.856  0.00  0.00    +0.000 A 
ATOM      3  C   UNL     1       2.106   4.625  20.715  0.00  0.00    +0.000 A 
ATOM      4  C   UNL     1       3.244   4.554  19.907  0.00  0.00    +0.000 A 
ATOM      5  C   UNL     1       3.706   5.668  19.194  0.00  0.00    +0.000 A 
ATOM      6  C   UNL     1       3.000   6.857  19.392  0.00  0.00    +0.000 A 
ENDROOT
BRANCH   5   7
ATOM      7  C   UNL     1       4.939   5.603  18.278  0.00  0.00    +0.000 C 
ATOM      8  C   UNL     1       4.962   6.824  17.315  0.00  0.00    +0.000 C 
ATOM      9  C   UNL     1       6.165   6.763  16.363  0.00  0.00    +0.000 C 
ATOM     10  C   UNL     1       7.461   6.790  17.183  0.00  0.00    +0.000 C 
ATOM     11  C   UNL     1       7.508   5.578  18.121  0.00  0.00    +0.000 C 
ATOM     12  C   UNL     1       7.446   4.281  17.303  0.00  0.00    +0.000 C 
ATOM     13  C   UNL     1       6.149   4.244  16.487  0.00  0.00    +0.000 C 
ATOM     14  C   UNL     1       6.102   5.460  15.547  0.00  0.00    +0.000 C 
ATOM     15  C   UNL     1       4.944   4.290  17.441  0.00  0.00    +0.000 C 
ATOM     16  C   UNL     1       6.298   5.630  19.064  0.00  0.00    +0.000 C 
ENDBRANCH   5   7
BRANCH   1  20
ATOM     17  C   UNL     1       0.088  10.832  21.084  0.00  0.00    +0.000 A 
ATOM     18  C   UNL     1       0.252   9.874  22.080  0.00  0.00    +0.000 A 
ATOM     19  C   UNL     1       0.817   8.629  21.793  0.00  0.00    +0.000 A 
ATOM     20  C   UNL     1       1.246   8.296  20.481  0.00  0.00    +0.000 A 
ATOM     21  C   UNL     1       1.078   9.289  19.488  0.00  0.00    +0.000 A 
ATOM     22 CL   UNL     1       1.469   9.078  17.807  0.00  0.00    +0.000 Cl
ATOM     23  C   UNL     1       0.522  10.533  19.787  0.00  0.00    +0.000 A 
BRANCH  17  24
ATOM     24  S   UNL     1      -0.612  12.420  21.484  0.00  0.00    +0.000 S 
BRANCH  24  25
ATOM     25  C   UNL     1      -1.591  12.768  19.976  0.00  0.00    +0.000 C 
BRANCH  25  27
ATOM     26  O   UNL     1      -0.128  14.493  19.159  0.00  0.00    +0.000 OA
ATOM     27  C   UNL     1      -0.795  13.506  18.916  0.00  0.00    +0.000 C 
BRANCH  27  28
ATOM     28  O   UNL     1      -0.943  13.029  17.655  0.00  0.00    +0.000 OA
ATOM     29  H   UNL     1      -1.796  13.288  17.263  0.00  0.00    +0.000 HD
ENDBRANCH  27  28
ENDBRANCH  25  27
ENDBRANCH  24  25
ENDBRANCH  17  24
ENDBRANCH   1  20
BRANCH   4  30
ATOM     30  O   UNL     1       3.917   3.376  19.841  0.00  0.00    +0.000 OA
ATOM     31  H   UNL     1       3.418   2.691  20.309  0.00  0.00    +0.000 HD
ENDBRANCH   4  30
TORSDOF 7
ENDMDL
