MODEL 1
REMARK VINA RESULT:      -7.0      0.000      0.000
REMARK  Name = 
REMARK  11 active torsions:
REMARK  status: ('A' for Active; 'I' for Inactive)
REMARK    1  A    between atoms: C_2  and  C_21
REMARK    2  A    between atoms: N_3  and  C_4
REMARK    3  A    between atoms: C_4  and  C_5
REMARK    4  A    between atoms: C_5  and  C_6
REMARK    5  A    between atoms: C_6  and  C_7
REMARK    6  A    between atoms: C_7  and  N_8
REMARK    7  A    between atoms: N_8  and  C_9
REMARK    8  A    between atoms: C_9  and  C_10
REMARK    9  A    between atoms: C_10  and  C_11
REMARK   10  A    between atoms: C_11  and  N_12
REMARK   11  A    between atoms: C_13  and  C_15
REMARK                            x       y       z     vdW  Elec       q    Type
REMARK                         _______ _______ _______ _____ _____    ______ ____
ROOT
ATOM      1  N   UNL     1       2.244   1.674  18.718  0.00  0.00    +0.000 NA
ATOM      2  H   UNL     1       1.823   0.968  18.115  0.00  0.00    +0.000 HD
ENDROOT
BRANCH   1   3
ATOM      3  C   UNL     1       1.791   2.989  18.262  0.00  0.00    +0.000 C 
BRANCH   3   4
ATOM      4  C   UNL     1       0.607   3.432  19.124  0.00  0.00    +0.000 C 
BRANCH   4   5
ATOM      5  C   UNL     1       0.946   3.372  20.613  0.00  0.00    +0.000 C 
BRANCH   5   6
ATOM      6  C   UNL     1       2.019   4.398  20.970  0.00  0.00    +0.000 C 
BRANCH   6   9
ATOM      7  O   UNL     1       3.547   6.038  19.258  0.00  0.00    +0.000 OA
ATOM      8  C   UNL     1       2.475   6.457  19.678  0.00  0.00    +0.000 C 
ATOM      9  N   UNL     1       1.665   5.724  20.514  0.00  0.00    +0.000 N 
ATOM     10  H   UNL     1       0.808   6.132  20.853  0.00  0.00    +0.000 HD
BRANCH   8  11
ATOM     11  C   UNL     1       1.968   7.767  19.323  0.00  0.00    +0.000 A 
ATOM     12  C   UNL     1       1.212   8.701  20.018  0.00  0.00    +0.000 A 
ATOM     13  C   UNL     1       1.017   9.805  19.165  0.00  0.00    +0.000 A 
ATOM     14 BR   UNL     1       0.061  11.344  19.635  0.00  0.00    +0.000 Br
ATOM     15  C   UNL     1       1.638   9.551  17.972  0.00  0.00    +0.000 A 
ATOM     16  N   UNL     1       2.214   8.312  18.075  0.00  0.00    +0.000 N 
ATOM     17  H   UNL     1       2.748   7.840  17.356  0.00  0.00    +0.000 HD
ENDBRANCH   8  11
ENDBRANCH   6   9
ENDBRANCH   5   6
ENDBRANCH   4   5
ENDBRANCH   3   4
ENDBRANCH   1   3
BRANCH   1  18
ATOM     18  C   UNL     1       3.704   1.568  18.669  0.00  0.00    +0.000 C 
BRANCH  18  19
ATOM     19  C   UNL     1       4.356   2.150  19.927  0.00  0.00    +0.000 C 
BRANCH  19  20
ATOM     20  C   UNL     1       5.220   3.372  19.631  0.00  0.00    +0.000 C 
BRANCH  20  21
ATOM     21  N   UNL     1       5.468   3.521  18.217  0.00  0.00    +0.000 N 
ATOM     22  C   UNL     1       6.312   4.477  17.706  0.00  0.00    +0.000 C 
ATOM     23  O   UNL     1       6.922   5.276  18.408  0.00  0.00    +0.000 OA
ATOM     24  H   UNL     1       5.084   2.825  17.597  0.00  0.00    +0.000 HD
BRANCH  22  25
ATOM     25  C   UNL     1       6.439   4.459  16.265  0.00  0.00    +0.000 A 
ATOM     26  C   UNL     1       5.788   3.725  15.283  0.00  0.00    +0.000 A 
ATOM     27  C   UNL     1       6.338   4.100  14.043  0.00  0.00    +0.000 A 
ATOM     28 BR   UNL     1       5.824   3.365  12.401  0.00  0.00    +0.000 Br
ATOM     29  C   UNL     1       7.288   5.061  14.260  0.00  0.00    +0.000 A 
ATOM     30  N   UNL     1       7.331   5.288  15.610  0.00  0.00    +0.000 N 
ATOM     31  H   UNL     1       7.930   5.952  16.088  0.00  0.00    +0.000 HD
ENDBRANCH  22  25
ENDBRANCH  20  21
ENDBRANCH  19  20
ENDBRANCH  18  19
ENDBRANCH   1  18
TORSDOF 11
ENDMDL
MODEL 2
REMARK VINA RESULT:      -6.8      2.533      8.136
REMARK  Name = 
REMARK  11 active torsions:
REMARK  status: ('A' for Active; 'I' for Inactive)
REMARK    1  A    between atoms: C_2  and  C_21
REMARK    2  A    between atoms: N_3  and  C_4
REMARK    3  A    between atoms: C_4  and  C_5
REMARK    4  A    between atoms: C_5  and  C_6
REMARK    5  A    between atoms: C_6  and  C_7
REMARK    6  A    between atoms: C_7  and  N_8
REMARK    7  A    between atoms: N_8  and  C_9
REMARK    8  A    between atoms: C_9  and  C_10
REMARK    9  A    between atoms: C_10  and  C_11
REMARK   10  A    between atoms: C_11  and  N_12
REMARK   11  A    between atoms: C_13  and  C_15
REMARK                            x       y       z     vdW  Elec       q    Type
REMARK                         _______ _______ _______ _____ _____    ______ ____
ROOT
ATOM      1  N   UNL     1       2.389   7.107  20.167  0.00  0.00    +0.000 NA
ATOM      2  H   UNL     1       3.248   7.019  20.707  0.00  0.00    +0.000 HD
ENDROOT
BRANCH   1   3
ATOM      3  C   UNL     1       1.385   6.224  20.761  0.00  0.00    +0.000 C 
BRANCH   3   4
ATOM      4  C   UNL     1       2.000   4.838  20.964  0.00  0.00    +0.000 C 
BRANCH   4   5
ATOM      5  C   UNL     1       1.103   3.739  20.396  0.00  0.00    +0.000 C 
BRANCH   5   6
ATOM      6  C   UNL     1       1.937   2.617  19.782  0.00  0.00    +0.000 C 
BRANCH   6   9
ATOM      7  O   UNL     1       4.734   2.505  20.126  0.00  0.00    +0.000 OA
ATOM      8  C   UNL     1       4.282   3.034  19.117  0.00  0.00    +0.000 C 
ATOM      9  N   UNL     1       2.933   3.130  18.867  0.00  0.00    +0.000 N 
ATOM     10  H   UNL     1       2.618   3.604  18.035  0.00  0.00    +0.000 HD
BRANCH   8  11
ATOM     11  C   UNL     1       5.140   3.604  18.097  0.00  0.00    +0.000 A 
ATOM     12  C   UNL     1       4.989   3.763  16.727  0.00  0.00    +0.000 A 
ATOM     13  C   UNL     1       6.155   4.388  16.243  0.00  0.00    +0.000 A 
ATOM     14 BR   UNL     1       6.446   4.832  14.449  0.00  0.00    +0.000 Br
ATOM     15  C   UNL     1       7.004   4.603  17.295  0.00  0.00    +0.000 A 
ATOM     16  N   UNL     1       6.380   4.126  18.418  0.00  0.00    +0.000 N 
ATOM     17  H   UNL     1       6.752   4.139  19.360  0.00  0.00    +0.000 HD
ENDBRANCH   8  11
ENDBRANCH   6   9
ENDBRANCH   5   6
ENDBRANCH   4   5
ENDBRANCH   3   4
ENDBRANCH   1   3
BRANCH   1  18
ATOM     18  C   UNL     1       2.641   6.760  18.766  0.00  0.00    +0.000 C 
BRANCH  18  19
ATOM     19  C   UNL     1       2.934   8.002  17.919  0.00  0.00    +0.000 C 
BRANCH  19  20
ATOM     20  C   UNL     1       1.694   8.860  17.681  0.00  0.00    +0.000 C 
BRANCH  20  21
ATOM     21  N   UNL     1       1.206   9.443  18.908  0.00  0.00    +0.000 N 
ATOM     22  C   UNL     1       0.001  10.098  18.992  0.00  0.00    +0.000 C 
ATOM     23  O   UNL     1      -0.754  10.237  18.036  0.00  0.00    +0.000 OA
ATOM     24  H   UNL     1       1.727   9.266  19.753  0.00  0.00    +0.000 HD
BRANCH  22  25
ATOM     25  C   UNL     1      -0.319  10.603  20.309  0.00  0.00    +0.000 A 
ATOM     26  C   UNL     1      -0.843  11.815  20.738  0.00  0.00    +0.000 A 
ATOM     27  C   UNL     1      -0.916  11.768  22.143  0.00  0.00    +0.000 A 
ATOM     28 BR   UNL     1      -1.525  13.180  23.210  0.00  0.00    +0.000 Br
ATOM     29  C   UNL     1      -0.469  10.545  22.562  0.00  0.00    +0.000 A 
ATOM     30  N   UNL     1      -0.125   9.836  21.443  0.00  0.00    +0.000 N 
ATOM     31  H   UNL     1       0.235   8.888  21.420  0.00  0.00    +0.000 HD
ENDBRANCH  22  25
ENDBRANCH  20  21
ENDBRANCH  19  20
ENDBRANCH  18  19
ENDBRANCH   1  18
TORSDOF 11
ENDMDL
MODEL 3
REMARK VINA RESULT:      -6.6      3.188      4.464
REMARK  Name = 
REMARK  11 active torsions:
REMARK  status: ('A' for Active; 'I' for Inactive)
REMARK    1  A    between atoms: C_2  and  C_21
REMARK    2  A    between atoms: N_3  and  C_4
REMARK    3  A    between atoms: C_4  and  C_5
REMARK    4  A    between atoms: C_5  and  C_6
REMARK    5  A    between atoms: C_6  and  C_7
REMARK    6  A    between atoms: C_7  and  N_8
REMARK    7  A    between atoms: N_8  and  C_9
REMARK    8  A    between atoms: C_9  and  C_10
REMARK    9  A    between atoms: C_10  and  C_11
REMARK   10  A    between atoms: C_11  and  N_12
REMARK   11  A    between atoms: C_13  and  C_15
REMARK                            x       y       z     vdW  Elec       q    Type
REMARK                         _______ _______ _______ _____ _____    ______ ____
ROOT
ATOM      1  N   UNL     1       1.933   5.136  19.965  0.00  0.00    +0.000 NA
ATOM      2  H   UNL     1       2.822   4.990  20.442  0.00  0.00    +0.000 HD
ENDROOT
BRANCH   1   3
ATOM      3  C   UNL     1       1.429   6.459  20.338  0.00  0.00    +0.000 C 
BRANCH   3   4
ATOM      4  C   UNL     1       2.361   7.526  19.761  0.00  0.00    +0.000 C 
BRANCH   4   5
ATOM      5  C   UNL     1       1.945   7.926  18.346  0.00  0.00    +0.000 C 
BRANCH   5   6
ATOM      6  C   UNL     1       1.849   9.444  18.213  0.00  0.00    +0.000 C 
BRANCH   6   9
ATOM      7  O   UNL     1      -0.340  10.327  19.758  0.00  0.00    +0.000 OA
ATOM      8  C   UNL     1      -0.459  10.271  18.540  0.00  0.00    +0.000 C 
ATOM      9  N   UNL     1       0.557   9.856  17.710  0.00  0.00    +0.000 N 
ATOM     10  H   UNL     1       0.391   9.802  16.717  0.00  0.00    +0.000 HD
BRANCH   8  11
ATOM     11  C   UNL     1      -1.688  10.646  17.869  0.00  0.00    +0.000 A 
ATOM     12  C   UNL     1      -2.858  11.241  18.318  0.00  0.00    +0.000 A 
ATOM     13  C   UNL     1      -3.721  11.366  17.211  0.00  0.00    +0.000 A 
ATOM     14 BR   UNL     1      -5.433  12.118  17.289  0.00  0.00    +0.000 Br
ATOM     15  C   UNL     1      -3.093  10.854  16.108  0.00  0.00    +0.000 A 
ATOM     16  N   UNL     1      -1.858  10.420  16.514  0.00  0.00    +0.000 N 
ATOM     17  H   UNL     1      -1.153   9.990  15.928  0.00  0.00    +0.000 HD
ENDBRANCH   8  11
ENDBRANCH   6   9
ENDBRANCH   5   6
ENDBRANCH   4   5
ENDBRANCH   3   4
ENDBRANCH   1   3
BRANCH   1  18
ATOM     18  C   UNL     1       0.986   4.083  20.336  0.00  0.00    +0.000 C 
BRANCH  18  19
ATOM     19  C   UNL     1       1.689   2.739  20.549  0.00  0.00    +0.000 C 
BRANCH  19  20
ATOM     20  C   UNL     1       2.272   2.168  19.260  0.00  0.00    +0.000 C 
BRANCH  20  21
ATOM     21  N   UNL     1       3.254   3.053  18.680  0.00  0.00    +0.000 N 
ATOM     22  C   UNL     1       4.555   3.110  19.119  0.00  0.00    +0.000 C 
ATOM     23  O   UNL     1       4.984   2.416  20.034  0.00  0.00    +0.000 OA
ATOM     24  H   UNL     1       2.993   3.567  17.853  0.00  0.00    +0.000 HD
BRANCH  22  25
ATOM     25  C   UNL     1       5.390   4.050  18.405  0.00  0.00    +0.000 A 
ATOM     26  C   UNL     1       5.948   5.266  18.776  0.00  0.00    +0.000 A 
ATOM     27  C   UNL     1       6.650   5.765  17.662  0.00  0.00    +0.000 A 
ATOM     28 BR   UNL     1       7.553   7.403  17.638  0.00  0.00    +0.000 Br
ATOM     29  C   UNL     1       6.543   4.860  16.640  0.00  0.00    +0.000 A 
ATOM     30  N   UNL     1       5.792   3.814  17.104  0.00  0.00    +0.000 N 
ATOM     31  H   UNL     1       5.541   2.980  16.585  0.00  0.00    +0.000 HD
ENDBRANCH  22  25
ENDBRANCH  20  21
ENDBRANCH  19  20
ENDBRANCH  18  19
ENDBRANCH   1  18
TORSDOF 11
ENDMDL
MODEL 4
REMARK VINA RESULT:      -6.4      5.542      7.933
REMARK  Name = 
REMARK  11 active torsions:
REMARK  status: ('A' for Active; 'I' for Inactive)
REMARK    1  A    between atoms: C_2  and  C_21
REMARK    2  A    between atoms: N_3  and  C_4
REMARK    3  A    between atoms: C_4  and  C_5
REMARK    4  A    between atoms: C_5  and  C_6
REMARK    5  A    between atoms: C_6  and  C_7
REMARK    6  A    between atoms: C_7  and  N_8
REMARK    7  A    between atoms: N_8  and  C_9
REMARK    8  A    between atoms: C_9  and  C_10
REMARK    9  A    between atoms: C_10  and  C_11
REMARK   10  A    between atoms: C_11  and  N_12
REMARK   11  A    between atoms: C_13  and  C_15
REMARK                            x       y       z     vdW  Elec       q    Type
REMARK                         _______ _______ _______ _____ _____    ______ ____
ROOT
ATOM      1  N   UNL     1       7.557   5.891  15.895  0.00  0.00    +0.000 NA
ATOM      2  H   UNL     1       8.523   6.051  15.612  0.00  0.00    +0.000 HD
ENDROOT
BRANCH   1   3
ATOM      3  C   UNL     1       7.532   5.725  17.350  0.00  0.00    +0.000 C 
BRANCH   3   4
ATOM      4  C   UNL     1       7.008   7.013  17.987  0.00  0.00    +0.000 C 
BRANCH   4   5
ATOM      5  C   UNL     1       7.723   8.244  17.430  0.00  0.00    +0.000 C 
BRANCH   5   6
ATOM      6  C   UNL     1       8.528   8.948  18.520  0.00  0.00    +0.000 C 
BRANCH   6   9
ATOM      7  O   UNL     1       9.206  11.252  19.999  0.00  0.00    +0.000 OA
ATOM      8  C   UNL     1       9.492  11.207  18.808  0.00  0.00    +0.000 C 
ATOM      9  N   UNL     1       9.202  10.123  18.013  0.00  0.00    +0.000 N 
ATOM     10  H   UNL     1       9.434  10.155  17.032  0.00  0.00    +0.000 HD
BRANCH   8  11
ATOM     11  C   UNL     1      10.167  12.300  18.138  0.00  0.00    +0.000 A 
ATOM     12  C   UNL     1       9.936  13.668  18.107  0.00  0.00    +0.000 A 
ATOM     13  C   UNL     1      10.921  14.245  17.282  0.00  0.00    +0.000 A 
ATOM     14 BR   UNL     1      11.053  16.076  16.920  0.00  0.00    +0.000 Br
ATOM     15  C   UNL     1      11.737  13.250  16.814  0.00  0.00    +0.000 A 
ATOM     16  N   UNL     1      11.274  12.071  17.339  0.00  0.00    +0.000 N 
ATOM     17  H   UNL     1      11.666  11.151  17.180  0.00  0.00    +0.000 HD
ENDBRANCH   8  11
ENDBRANCH   6   9
ENDBRANCH   5   6
ENDBRANCH   4   5
ENDBRANCH   3   4
ENDBRANCH   1   3
BRANCH   1  18
ATOM     18  C   UNL     1       7.025   4.708  15.216  0.00  0.00    +0.000 C 
BRANCH  18  19
ATOM     19  C   UNL     1       5.494   4.675  15.252  0.00  0.00    +0.000 C 
BRANCH  19  20
ATOM     20  C   UNL     1       4.950   3.683  16.277  0.00  0.00    +0.000 C 
BRANCH  20  21
ATOM     21  N   UNL     1       4.075   4.326  17.228  0.00  0.00    +0.000 N 
ATOM     22  C   UNL     1       4.303   4.301  18.583  0.00  0.00    +0.000 C 
ATOM     23  O   UNL     1       5.264   3.734  19.090  0.00  0.00    +0.000 OA
ATOM     24  H   UNL     1       3.330   4.902  16.868  0.00  0.00    +0.000 HD
BRANCH  22  25
ATOM     25  C   UNL     1       3.321   5.012  19.371  0.00  0.00    +0.000 A 
ATOM     26  C   UNL     1       2.998   6.360  19.460  0.00  0.00    +0.000 A 
ATOM     27  C   UNL     1       1.975   6.485  20.418  0.00  0.00    +0.000 A 
ATOM     28 BR   UNL     1       1.212   8.115  20.932  0.00  0.00    +0.000 Br
ATOM     29  C   UNL     1       1.661   5.238  20.887  0.00  0.00    +0.000 A 
ATOM     30  N   UNL     1       2.470   4.347  20.234  0.00  0.00    +0.000 N 
ATOM     31  H   UNL     1       2.475   3.340  20.356  0.00  0.00    +0.000 HD
ENDBRANCH  22  25
ENDBRANCH  20  21
ENDBRANCH  19  20
ENDBRANCH  18  19
ENDBRANCH   1  18
TORSDOF 11
ENDMDL
MODEL 5
REMARK VINA RESULT:      -6.4      3.093      7.437
REMARK  Name = 
REMARK  11 active torsions:
REMARK  status: ('A' for Active; 'I' for Inactive)
REMARK    1  A    between atoms: C_2  and  C_21
REMARK    2  A    between atoms: N_3  and  C_4
REMARK    3  A    between atoms: C_4  and  C_5
REMARK    4  A    between atoms: C_5  and  C_6
REMARK    5  A    between atoms: C_6  and  C_7
REMARK    6  A    between atoms: C_7  and  N_8
REMARK    7  A    between atoms: N_8  and  C_9
REMARK    8  A    between atoms: C_9  and  C_10
REMARK    9  A    between atoms: C_10  and  C_11
REMARK   10  A    between atoms: C_11  and  N_12
REMARK   11  A    between atoms: C_13  and  C_15
REMARK                            x       y       z     vdW  Elec       q    Type
REMARK                         _______ _______ _______ _____ _____    ______ ____
ROOT
ATOM      1  N   UNL     1       2.668   6.056  20.066  0.00  0.00    +0.000 NA
ATOM      2  H   UNL     1       2.765   5.524  19.202  0.00  0.00    +0.000 HD
ENDROOT
BRANCH   1   3
ATOM      3  C   UNL     1       1.654   5.399  20.894  0.00  0.00    +0.000 C 
BRANCH   3   4
ATOM      4  C   UNL     1       1.771   3.885  20.713  0.00  0.00    +0.000 C 
BRANCH   4   5
ATOM      5  C   UNL     1       0.713   3.354  19.745  0.00  0.00    +0.000 C 
BRANCH   5   6
ATOM      6  C   UNL     1       1.361   2.798  18.479  0.00  0.00    +0.000 C 
BRANCH   6   9
ATOM      7  O   UNL     1       3.952   1.940  17.767  0.00  0.00    +0.000 OA
ATOM      8  C   UNL     1       3.682   3.133  17.695  0.00  0.00    +0.000 C 
ATOM      9  N   UNL     1       2.444   3.638  18.020  0.00  0.00    +0.000 N 
ATOM     10  H   UNL     1       2.290   4.633  17.971  0.00  0.00    +0.000 HD
BRANCH   8  11
ATOM     11  C   UNL     1       4.652   4.116  17.256  0.00  0.00    +0.000 A 
ATOM     12  C   UNL     1       5.387   5.077  17.935  0.00  0.00    +0.000 A 
ATOM     13  C   UNL     1       6.180   5.752  16.985  0.00  0.00    +0.000 A 
ATOM     14 BR   UNL     1       7.363   7.142  17.397  0.00  0.00    +0.000 Br
ATOM     15  C   UNL     1       5.932   5.217  15.750  0.00  0.00    +0.000 A 
ATOM     16  N   UNL     1       5.005   4.223  15.922  0.00  0.00    +0.000 N 
ATOM     17  H   UNL     1       4.615   3.637  15.194  0.00  0.00    +0.000 HD
ENDBRANCH   8  11
ENDBRANCH   6   9
ENDBRANCH   5   6
ENDBRANCH   4   5
ENDBRANCH   3   4
ENDBRANCH   1   3
BRANCH   1  18
ATOM     18  C   UNL     1       2.293   7.439  19.763  0.00  0.00    +0.000 C 
BRANCH  18  19
ATOM     19  C   UNL     1       2.598   7.802  18.307  0.00  0.00    +0.000 C 
BRANCH  19  20
ATOM     20  C   UNL     1       1.532   8.703  17.689  0.00  0.00    +0.000 C 
BRANCH  20  21
ATOM     21  N   UNL     1       1.850  10.100  17.859  0.00  0.00    +0.000 N 
ATOM     22  C   UNL     1       1.270  10.882  18.829  0.00  0.00    +0.000 C 
ATOM     23  O   UNL     1       0.441  10.456  19.625  0.00  0.00    +0.000 OA
ATOM     24  H   UNL     1       2.604  10.481  17.309  0.00  0.00    +0.000 HD
BRANCH  22  25
ATOM     25  C   UNL     1       1.727  12.254  18.848  0.00  0.00    +0.000 A 
ATOM     26  C   UNL     1       2.557  12.970  17.996  0.00  0.00    +0.000 A 
ATOM     27  C   UNL     1       2.680  14.270  18.521  0.00  0.00    +0.000 A 
ATOM     28 BR   UNL     1       3.728  15.617  17.756  0.00  0.00    +0.000 Br
ATOM     29  C   UNL     1       1.921  14.354  19.658  0.00  0.00    +0.000 A 
ATOM     30  N   UNL     1       1.330  13.132  19.840  0.00  0.00    +0.000 N 
ATOM     31  H   UNL     1       0.701  12.876  20.592  0.00  0.00    +0.000 HD
ENDBRANCH  22  25
ENDBRANCH  20  21
ENDBRANCH  19  20
ENDBRANCH  18  19
ENDBRANCH   1  18
TORSDOF 11
ENDMDL
MODEL 6
REMARK VINA RESULT:      -6.4      5.707      7.771
REMARK  Name = 
REMARK  11 active torsions:
REMARK  status: ('A' for Active; 'I' for Inactive)
REMARK    1  A    between atoms: C_2  and  C_21
REMARK    2  A    between atoms: N_3  and  C_4
REMARK    3  A    between atoms: C_4  and  C_5
REMARK    4  A    between atoms: C_5  and  C_6
REMARK    5  A    between atoms: C_6  and  C_7
REMARK    6  A    between atoms: C_7  and  N_8
REMARK    7  A    between atoms: N_8  and  C_9
REMARK    8  A    between atoms: C_9  and  C_10
REMARK    9  A    between atoms: C_10  and  C_11
REMARK   10  A    between atoms: C_11  and  N_12
REMARK   11  A    between atoms: C_13  and  C_15
REMARK                            x       y       z     vdW  Elec       q    Type
REMARK                         _______ _______ _______ _____ _____    ______ ____
ROOT
ATOM      1  N   UNL     1       7.470   4.962  17.264  0.00  0.00    +0.000 NA
ATOM      2  H   UNL     1       6.767   4.439  17.785  0.00  0.00    +0.000 HD
ENDROOT
BRANCH   1   3
ATOM      3  C   UNL     1       7.683   6.241  17.944  0.00  0.00    +0.000 C 
BRANCH   3   4
ATOM      4  C   UNL     1       7.319   7.378  16.988  0.00  0.00    +0.000 C 
BRANCH   4   5
ATOM      5  C   UNL     1       7.379   8.736  17.687  0.00  0.00    +0.000 C 
BRANCH   5   6
ATOM      6  C   UNL     1       8.674   8.884  18.482  0.00  0.00    +0.000 C 
BRANCH   6   9
ATOM      7  O   UNL     1       9.297  10.639  20.601  0.00  0.00    +0.000 OA
ATOM      8  C   UNL     1       9.501  11.005  19.450  0.00  0.00    +0.000 C 
ATOM      9  N   UNL     1       9.230  10.213  18.358  0.00  0.00    +0.000 N 
ATOM     10  H   UNL     1       9.390  10.580  17.432  0.00  0.00    +0.000 HD
BRANCH   8  11
ATOM     11  C   UNL     1      10.052  12.310  19.143  0.00  0.00    +0.000 A 
ATOM     12  C   UNL     1      10.194  13.012  17.955  0.00  0.00    +0.000 A 
ATOM     13  C   UNL     1      10.804  14.244  18.264  0.00  0.00    +0.000 A 
ATOM     14 BR   UNL     1      11.209  15.565  17.001  0.00  0.00    +0.000 Br
ATOM     15  C   UNL     1      11.033  14.293  19.612  0.00  0.00    +0.000 A 
ATOM     16  N   UNL     1      10.573  13.116  20.140  0.00  0.00    +0.000 N 
ATOM     17  H   UNL     1      10.599  12.848  21.117  0.00  0.00    +0.000 HD
ENDBRANCH   8  11
ENDBRANCH   6   9
ENDBRANCH   5   6
ENDBRANCH   4   5
ENDBRANCH   3   4
ENDBRANCH   1   3
BRANCH   1  18
ATOM     18  C   UNL     1       7.024   5.162  15.883  0.00  0.00    +0.000 C 
BRANCH  18  19
ATOM     19  C   UNL     1       5.896   4.196  15.507  0.00  0.00    +0.000 C 
BRANCH  19  20
ATOM     20  C   UNL     1       5.063   3.765  16.711  0.00  0.00    +0.000 C 
BRANCH  20  21
ATOM     21  N   UNL     1       4.226   4.839  17.192  0.00  0.00    +0.000 N 
ATOM     22  C   UNL     1       4.221   5.249  18.503  0.00  0.00    +0.000 C 
ATOM     23  O   UNL     1       4.927   4.739  19.366  0.00  0.00    +0.000 OA
ATOM     24  H   UNL     1       3.706   5.370  16.511  0.00  0.00    +0.000 HD
BRANCH  22  25
ATOM     25  C   UNL     1       3.323   6.346  18.787  0.00  0.00    +0.000 A 
ATOM     26  C   UNL     1       2.893   7.419  18.018  0.00  0.00    +0.000 A 
ATOM     27  C   UNL     1       2.039   8.197  18.821  0.00  0.00    +0.000 A 
ATOM     28 BR   UNL     1       1.222   9.783  18.255  0.00  0.00    +0.000 Br
ATOM     29  C   UNL     1       1.931   7.600  20.048  0.00  0.00    +0.000 A 
ATOM     30  N   UNL     1       2.699   6.467  20.015  0.00  0.00    +0.000 N 
ATOM     31  H   UNL     1       2.820   5.802  20.770  0.00  0.00    +0.000 HD
ENDBRANCH  22  25
ENDBRANCH  20  21
ENDBRANCH  19  20
ENDBRANCH  18  19
ENDBRANCH   1  18
TORSDOF 11
ENDMDL
MODEL 7
REMARK VINA RESULT:      -6.3      3.003      7.320
REMARK  Name = 
REMARK  11 active torsions:
REMARK  status: ('A' for Active; 'I' for Inactive)
REMARK    1  A    between atoms: C_2  and  C_21
REMARK    2  A    between atoms: N_3  and  C_4
REMARK    3  A    between atoms: C_4  and  C_5
REMARK    4  A    between atoms: C_5  and  C_6
REMARK    5  A    between atoms: C_6  and  C_7
REMARK    6  A    between atoms: C_7  and  N_8
REMARK    7  A    between atoms: N_8  and  C_9
REMARK    8  A    between atoms: C_9  and  C_10
REMARK    9  A    between atoms: C_10  and  C_11
REMARK   10  A    between atoms: C_11  and  N_12
REMARK   11  A    between atoms: C_13  and  C_15
REMARK                            x       y       z     vdW  Elec       q    Type
REMARK                         _______ _______ _______ _____ _____    ______ ____
ROOT
ATOM      1  N   UNL     1       2.310   5.787  20.630  0.00  0.00    +0.000 NA
ATOM      2  H   UNL     1       3.287   5.543  20.473  0.00  0.00    +0.000 HD
ENDROOT
BRANCH   1   3
ATOM      3  C   UNL     1       1.480   4.852  19.869  0.00  0.00    +0.000 C 
BRANCH   3   4
ATOM      4  C   UNL     1       1.163   3.641  20.747  0.00  0.00    +0.000 C 
BRANCH   4   5
ATOM      5  C   UNL     1       2.436   2.903  21.163  0.00  0.00    +0.000 C 
BRANCH   5   6
ATOM      6  C   UNL     1       3.219   2.433  19.940  0.00  0.00    +0.000 C 
BRANCH   6   9
ATOM      7  O   UNL     1       3.821   3.503  17.400  0.00  0.00    +0.000 OA
ATOM      8  C   UNL     1       4.532   3.802  18.353  0.00  0.00    +0.000 C 
ATOM      9  N   UNL     1       4.309   3.329  19.625  0.00  0.00    +0.000 N 
ATOM     10  H   UNL     1       4.946   3.586  20.364  0.00  0.00    +0.000 HD
BRANCH   8  11
ATOM     11  C   UNL     1       5.670   4.688  18.215  0.00  0.00    +0.000 A 
ATOM     12  C   UNL     1       5.775   6.048  17.956  0.00  0.00    +0.000 A 
ATOM     13  C   UNL     1       7.146   6.369  17.935  0.00  0.00    +0.000 A 
ATOM     14 BR   UNL     1       7.821   8.088  17.632  0.00  0.00    +0.000 Br
ATOM     15  C   UNL     1       7.866   5.229  18.172  0.00  0.00    +0.000 A 
ATOM     16  N   UNL     1       6.963   4.213  18.342  0.00  0.00    +0.000 N 
ATOM     17  H   UNL     1       7.184   3.243  18.534  0.00  0.00    +0.000 HD
ENDBRANCH   8  11
ENDBRANCH   6   9
ENDBRANCH   5   6
ENDBRANCH   4   5
ENDBRANCH   3   4
ENDBRANCH   1   3
BRANCH   1  18
ATOM     18  C   UNL     1       2.068   7.171  20.217  0.00  0.00    +0.000 C 
BRANCH  18  19
ATOM     19  C   UNL     1       2.490   7.411  18.765  0.00  0.00    +0.000 C 
BRANCH  19  20
ATOM     20  C   UNL     1       1.495   8.277  17.997  0.00  0.00    +0.000 C 
BRANCH  20  21
ATOM     21  N   UNL     1       1.815   9.680  18.105  0.00  0.00    +0.000 N 
ATOM     22  C   UNL     1       1.077  10.555  18.865  0.00  0.00    +0.000 C 
ATOM     23  O   UNL     1       0.093  10.215  19.511  0.00  0.00    +0.000 OA
ATOM     24  H   UNL     1       2.675  10.000  17.687  0.00  0.00    +0.000 HD
BRANCH  22  25
ATOM     25  C   UNL     1       1.563  11.918  18.855  0.00  0.00    +0.000 A 
ATOM     26  C   UNL     1       2.578  12.538  18.140  0.00  0.00    +0.000 A 
ATOM     27  C   UNL     1       2.627  13.881  18.558  0.00  0.00    +0.000 A 
ATOM     28 BR   UNL     1       3.857  15.136  17.915  0.00  0.00    +0.000 Br
ATOM     29  C   UNL     1       1.646  14.084  19.491  0.00  0.00    +0.000 A 
ATOM     30  N   UNL     1       0.992  12.892  19.654  0.00  0.00    +0.000 N 
ATOM     31  H   UNL     1       0.208  12.717  20.273  0.00  0.00    +0.000 HD
ENDBRANCH  22  25
ENDBRANCH  20  21
ENDBRANCH  19  20
ENDBRANCH  18  19
ENDBRANCH   1  18
TORSDOF 11
ENDMDL
MODEL 8
REMARK VINA RESULT:      -6.3      2.807      3.730
REMARK  Name = 
REMARK  11 active torsions:
REMARK  status: ('A' for Active; 'I' for Inactive)
REMARK    1  A    between atoms: C_2  and  C_21
REMARK    2  A    between atoms: N_3  and  C_4
REMARK    3  A    between atoms: C_4  and  C_5
REMARK    4  A    between atoms: C_5  and  C_6
REMARK    5  A    between atoms: C_6  and  C_7
REMARK    6  A    between atoms: C_7  and  N_8
REMARK    7  A    between atoms: N_8  and  C_9
REMARK    8  A    between atoms: C_9  and  C_10
REMARK    9  A    between atoms: C_10  and  C_11
REMARK   10  A    between atoms: C_11  and  N_12
REMARK   11  A    between atoms: C_13  and  C_15
REMARK                            x       y       z     vdW  Elec       q    Type
REMARK                         _______ _______ _______ _____ _____    ______ ____
ROOT
ATOM      1  N   UNL     1       0.817   3.764  19.986  0.00  0.00    +0.000 NA
ATOM      2  H   UNL     1       0.698   4.148  19.049  0.00  0.00    +0.000 HD
ENDROOT
BRANCH   1   3
ATOM      3  C   UNL     1       1.396   4.807  20.835  0.00  0.00    +0.000 C 
BRANCH   3   4
ATOM      4  C   UNL     1       2.587   5.434  20.109  0.00  0.00    +0.000 C 
BRANCH   4   5
ATOM      5  C   UNL     1       2.270   6.852  19.634  0.00  0.00    +0.000 C 
BRANCH   5   6
ATOM      6  C   UNL     1       1.656   7.680  20.761  0.00  0.00    +0.000 C 
BRANCH   6   9
ATOM      7  O   UNL     1       1.140   9.995  22.288  0.00  0.00    +0.000 OA
ATOM      8  C   UNL     1       0.880  10.005  21.091  0.00  0.00    +0.000 C 
ATOM      9  N   UNL     1       1.102   8.923  20.271  0.00  0.00    +0.000 N 
ATOM     10  H   UNL     1       0.840   8.979  19.299  0.00  0.00    +0.000 HD
BRANCH   8  11
ATOM     11  C   UNL     1       0.316  11.169  20.436  0.00  0.00    +0.000 A 
ATOM     12  C   UNL     1       0.710  12.498  20.384  0.00  0.00    +0.000 A 
ATOM     13  C   UNL     1      -0.228  13.186  19.588  0.00  0.00    +0.000 A 
ATOM     14 BR   UNL     1      -0.142  15.015  19.201  0.00  0.00    +0.000 Br
ATOM     15  C   UNL     1      -1.178  12.296  19.166  0.00  0.00    +0.000 A 
ATOM     16  N   UNL     1      -0.840  11.072  19.683  0.00  0.00    +0.000 N 
ATOM     17  H   UNL     1      -1.349  10.206  19.550  0.00  0.00    +0.000 HD
ENDBRANCH   8  11
ENDBRANCH   6   9
ENDBRANCH   5   6
ENDBRANCH   4   5
ENDBRANCH   3   4
ENDBRANCH   1   3
BRANCH   1  18
ATOM     18  C   UNL     1       1.678   2.580  19.937  0.00  0.00    +0.000 C 
BRANCH  18  19
ATOM     19  C   UNL     1       2.039   2.202  18.498  0.00  0.00    +0.000 C 
BRANCH  19  20
ATOM     20  C   UNL     1       3.445   1.621  18.376  0.00  0.00    +0.000 C 
BRANCH  20  21
ATOM     21  N   UNL     1       4.455   2.651  18.433  0.00  0.00    +0.000 N 
ATOM     22  C   UNL     1       4.518   3.681  17.527  0.00  0.00    +0.000 C 
ATOM     23  O   UNL     1       3.724   3.809  16.601  0.00  0.00    +0.000 OA
ATOM     24  H   UNL     1       5.067   2.664  19.234  0.00  0.00    +0.000 HD
BRANCH  22  25
ATOM     25  C   UNL     1       5.594   4.620  17.758  0.00  0.00    +0.000 A 
ATOM     26  C   UNL     1       5.745   5.961  17.429  0.00  0.00    +0.000 A 
ATOM     27  C   UNL     1       7.016   6.364  17.878  0.00  0.00    +0.000 A 
ATOM     28 BR   UNL     1       7.717   8.083  17.642  0.00  0.00    +0.000 Br
ATOM     29  C   UNL     1       7.621   5.298  18.489  0.00  0.00    +0.000 A 
ATOM     30  N   UNL     1       6.744   4.248  18.429  0.00  0.00    +0.000 N 
ATOM     31  H   UNL     1       6.896   3.318  18.802  0.00  0.00    +0.000 HD
ENDBRANCH  22  25
ENDBRANCH  20  21
ENDBRANCH  19  20
ENDBRANCH  18  19
ENDBRANCH   1  18
TORSDOF 11
ENDMDL
MODEL 9
REMARK VINA RESULT:      -6.3      2.252      2.994
REMARK  Name = 
REMARK  11 active torsions:
REMARK  status: ('A' for Active; 'I' for Inactive)
REMARK    1  A    between atoms: C_2  and  C_21
REMARK    2  A    between atoms: N_3  and  C_4
REMARK    3  A    between atoms: C_4  and  C_5
REMARK    4  A    between atoms: C_5  and  C_6
REMARK    5  A    between atoms: C_6  and  C_7
REMARK    6  A    between atoms: C_7  and  N_8
REMARK    7  A    between atoms: N_8  and  C_9
REMARK    8  A    between atoms: C_9  and  C_10
REMARK    9  A    between atoms: C_10  and  C_11
REMARK   10  A    between atoms: C_11  and  N_12
REMARK   11  A    between atoms: C_13  and  C_15
REMARK                            x       y       z     vdW  Elec       q    Type
REMARK                         _______ _______ _______ _____ _____    ______ ____
ROOT
ATOM      1  N   UNL     1       2.325   4.032  18.897  0.00  0.00    +0.000 NA
ATOM      2  H   UNL     1       2.810   4.607  18.210  0.00  0.00    +0.000 HD
ENDROOT
BRANCH   1   3
ATOM      3  C   UNL     1       2.349   4.738  20.180  0.00  0.00    +0.000 C 
BRANCH   3   4
ATOM      4  C   UNL     1       2.063   6.221  19.935  0.00  0.00    +0.000 C 
BRANCH   4   5
ATOM      5  C   UNL     1       2.303   6.603  18.474  0.00  0.00    +0.000 C 
BRANCH   5   6
ATOM      6  C   UNL     1       2.570   8.100  18.339  0.00  0.00    +0.000 C 
BRANCH   6   9
ATOM      7  O   UNL     1       1.150   9.873  20.012  0.00  0.00    +0.000 OA
ATOM      8  C   UNL     1       0.738   9.674  18.875  0.00  0.00    +0.000 C 
ATOM      9  N   UNL     1       1.370   8.829  17.992  0.00  0.00    +0.000 N 
ATOM     10  H   UNL     1       0.968   8.680  17.079  0.00  0.00    +0.000 HD
BRANCH   8  11
ATOM     11  C   UNL     1      -0.454  10.321  18.363  0.00  0.00    +0.000 A 
ATOM     12  C   UNL     1      -1.376   9.955  17.393  0.00  0.00    +0.000 A 
ATOM     13  C   UNL     1      -2.338  10.981  17.317  0.00  0.00    +0.000 A 
ATOM     14 BR   UNL     1      -3.808  10.965  16.158  0.00  0.00    +0.000 Br
ATOM     15  C   UNL     1      -2.009  11.957  18.219  0.00  0.00    +0.000 A 
ATOM     16  N   UNL     1      -0.864  11.548  18.852  0.00  0.00    +0.000 N 
ATOM     17  H   UNL     1      -0.368  12.054  19.575  0.00  0.00    +0.000 HD
ENDBRANCH   8  11
ENDBRANCH   6   9
ENDBRANCH   5   6
ENDBRANCH   4   5
ENDBRANCH   3   4
ENDBRANCH   1   3
BRANCH   1  18
ATOM     18  C   UNL     1       2.973   2.722  18.999  0.00  0.00    +0.000 C 
BRANCH  18  19
ATOM     19  C   UNL     1       4.319   2.811  19.725  0.00  0.00    +0.000 C 
BRANCH  19  20
ATOM     20  C   UNL     1       5.142   4.022  19.294  0.00  0.00    +0.000 C 
BRANCH  20  21
ATOM     21  N   UNL     1       5.512   3.946  17.901  0.00  0.00    +0.000 N 
ATOM     22  C   UNL     1       5.687   5.060  17.116  0.00  0.00    +0.000 C 
ATOM     23  O   UNL     1       5.545   6.204  17.536  0.00  0.00    +0.000 OA
ATOM     24  H   UNL     1       5.752   3.041  17.527  0.00  0.00    +0.000 HD
BRANCH  22  25
ATOM     25  C   UNL     1       6.068   4.780  15.750  0.00  0.00    +0.000 A 
ATOM     26  C   UNL     1       5.500   3.975  14.772  0.00  0.00    +0.000 A 
ATOM     27  C   UNL     1       6.317   4.059  13.629  0.00  0.00    +0.000 A 
ATOM     28 BR   UNL     1       6.000   3.123  12.041  0.00  0.00    +0.000 Br
ATOM     29  C   UNL     1       7.350   4.918  13.894  0.00  0.00    +0.000 A 
ATOM     30  N   UNL     1       7.182   5.366  15.177  0.00  0.00    +0.000 N 
ATOM     31  H   UNL     1       7.781   6.022  15.666  0.00  0.00    +0.000 HD
ENDBRANCH  22  25
ENDBRANCH  20  21
ENDBRANCH  19  20
ENDBRANCH  18  19
ENDBRANCH   1  18
TORSDOF 11
ENDMDL
