MODEL 1
REMARK VINA RESULT:      -9.3      0.000      0.000
REMARK  Name = 
REMARK  2 active torsions:
REMARK  status: ('A' for Active; 'I' for Inactive)
REMARK    1  A    between atoms: N_30  and  C_31
REMARK    2  A    between atoms: C_31  and  C_32
REMARK                            x       y       z     vdW  Elec       q    Type
REMARK                         _______ _______ _______ _____ _____    ______ ____
ROOT
ATOM      1  O   UNL     1      -7.105  10.988  19.609  0.00  0.00    +0.000 OA
ATOM      2  C   UNL     1      -6.475  11.625  20.443  0.00  0.00    +0.000 C 
ATOM      3  N   UNL     1      -6.979  11.937  21.682  0.00  0.00    +0.000 N 
ATOM      4  C   UNL     1      -6.145  12.611  22.540  0.00  0.00    +0.000 C 
ATOM      5  O   UNL     1      -6.464  12.908  23.682  0.00  0.00    +0.000 OA
ATOM      6  C   UNL     1      -4.965  12.775  21.762  0.00  0.00    +0.000 A 
ATOM      7  C   UNL     1      -5.166  12.179  20.491  0.00  0.00    +0.000 A 
ATOM      8  C   UNL     1      -4.035  12.217  19.649  0.00  0.00    +0.000 A 
ATOM      9  C   UNL     1      -3.898  11.686  18.338  0.00  0.00    +0.000 A 
ATOM     10  C   UNL     1      -4.760  11.061  17.407  0.00  0.00    +0.000 A 
ATOM     11  C   UNL     1      -4.296  10.680  16.140  0.00  0.00    +0.000 A 
ATOM     12  C   UNL     1      -2.980  10.898  15.770  0.00  0.00    +0.000 A 
ATOM     13  C   UNL     1      -2.080  11.489  16.652  0.00  0.00    +0.000 A 
ATOM     14  C   UNL     1      -2.522  11.876  17.933  0.00  0.00    +0.000 A 
ATOM     15  N   UNL     1      -1.770  12.451  18.971  0.00  0.00    +0.000 N 
ATOM     16  C   UNL     1      -2.741  12.688  19.888  0.00  0.00    +0.000 A 
ATOM     17  C   UNL     1      -2.550  13.300  21.114  0.00  0.00    +0.000 A 
ATOM     18  C   UNL     1      -3.674  13.314  21.949  0.00  0.00    +0.000 A 
ATOM     19  C   UNL     1      -3.141  13.921  23.116  0.00  0.00    +0.000 A 
ATOM     20  C   UNL     1      -3.637  14.242  24.402  0.00  0.00    +0.000 A 
ATOM     21  C   UNL     1      -2.825  14.877  25.350  0.00  0.00    +0.000 A 
ATOM     22  C   UNL     1      -1.519  15.230  25.044  0.00  0.00    +0.000 A 
ATOM     23  C   UNL     1      -0.972  14.927  23.799  0.00  0.00    +0.000 A 
ATOM     24  C   UNL     1      -1.756  14.249  22.846  0.00  0.00    +0.000 A 
ATOM     25  N   UNL     1      -1.365  13.768  21.581  0.00  0.00    +0.000 N 
ATOM     26  C   UNL     1      -0.009  13.621  21.089  0.00  0.00    +0.000 C 
ATOM     27  C   UNL     1       0.344  14.677  20.048  0.00  0.00    +0.000 C 
ATOM     28  C   UNL     1       0.119  13.996  18.700  0.00  0.00    +0.000 C 
ATOM     29  C   UNL     1      -0.330  12.573  19.039  0.00  0.00    +0.000 C 
ATOM     30  N   UNL     1       0.176  12.349  20.390  0.00  0.00    +0.000 NA
ATOM     31  H   UNL     1      -7.892  11.629  21.971  0.00  0.00    +0.000 HD
ENDROOT
BRANCH  30  32
ATOM     32  C   UNL     1      -0.235  11.145  21.117  0.00  0.00    +0.000 C 
BRANCH  32  33
ATOM     33  C   UNL     1       0.468   9.873  20.698  0.00  0.00    +0.000 A 
ATOM     34  C   UNL     1       1.055   9.765  19.432  0.00  0.00    +0.000 A 
ATOM     35  C   UNL     1       1.766   8.617  19.077  0.00  0.00    +0.000 A 
ATOM     36  C   UNL     1       1.899   7.566  19.983  0.00  0.00    +0.000 A 
ATOM     37  C   UNL     1       1.321   7.659  21.246  0.00  0.00    +0.000 A 
ATOM     38  C   UNL     1       0.606   8.805  21.602  0.00  0.00    +0.000 A 
ENDBRANCH  32  33
ENDBRANCH  30  32
TORSDOF 2
ENDMDL
MODEL 2
REMARK VINA RESULT:      -9.1      1.697      5.976
REMARK  Name = 
REMARK  2 active torsions:
REMARK  status: ('A' for Active; 'I' for Inactive)
REMARK    1  A    between atoms: N_30  and  C_31
REMARK    2  A    between atoms: C_31  and  C_32
REMARK                            x       y       z     vdW  Elec       q    Type
REMARK                         _______ _______ _______ _____ _____    ______ ____
ROOT
ATOM      1  O   UNL     1      -6.923  15.206  21.558  0.00  0.00    +0.000 OA
ATOM      2  C   UNL     1      -6.487  14.435  20.713  0.00  0.00    +0.000 C 
ATOM      3  N   UNL     1      -7.171  14.124  19.563  0.00  0.00    +0.000 N 
ATOM      4  C   UNL     1      -6.543  13.285  18.675  0.00  0.00    +0.000 C 
ATOM      5  O   UNL     1      -7.032  12.967  17.600  0.00  0.00    +0.000 OA
ATOM      6  C   UNL     1      -5.312  13.002  19.331  0.00  0.00    +0.000 A 
ATOM      7  C   UNL     1      -5.280  13.698  20.566  0.00  0.00    +0.000 A 
ATOM      8  C   UNL     1      -4.074  13.549  21.281  0.00  0.00    +0.000 A 
ATOM      9  C   UNL     1      -3.713  14.135  22.525  0.00  0.00    +0.000 A 
ATOM     10  C   UNL     1      -4.367  14.932  23.493  0.00  0.00    +0.000 A 
ATOM     11  C   UNL     1      -3.709  15.320  24.669  0.00  0.00    +0.000 A 
ATOM     12  C   UNL     1      -2.401  14.939  24.911  0.00  0.00    +0.000 A 
ATOM     13  C   UNL     1      -1.700  14.172  23.985  0.00  0.00    +0.000 A 
ATOM     14  C   UNL     1      -2.337  13.775  22.793  0.00  0.00    +0.000 A 
ATOM     15  N   UNL     1      -1.797  13.036  21.727  0.00  0.00    +0.000 N 
ATOM     16  C   UNL     1      -2.892  12.884  20.942  0.00  0.00    +0.000 A 
ATOM     17  C   UNL     1      -2.932  12.177  19.753  0.00  0.00    +0.000 A 
ATOM     18  C   UNL     1      -4.137  12.274  19.048  0.00  0.00    +0.000 A 
ATOM     19  C   UNL     1      -3.832  11.526  17.880  0.00  0.00    +0.000 A 
ATOM     20  C   UNL     1      -4.515  11.201  16.684  0.00  0.00    +0.000 A 
ATOM     21  C   UNL     1      -3.914  10.399  15.705  0.00  0.00    +0.000 A 
ATOM     22  C   UNL     1      -2.641   9.882  15.895  0.00  0.00    +0.000 A 
ATOM     23  C   UNL     1      -1.915  10.180  17.047  0.00  0.00    +0.000 A 
ATOM     24  C   UNL     1      -2.483  11.020  18.024  0.00  0.00    +0.000 A 
ATOM     25  N   UNL     1      -1.884  11.517  19.198  0.00  0.00    +0.000 N 
ATOM     26  C   UNL     1      -0.473  11.498  19.528  0.00  0.00    +0.000 C 
ATOM     27  C   UNL     1      -0.145  10.468  20.603  0.00  0.00    +0.000 C 
ATOM     28  C   UNL     1      -0.116  11.255  21.911  0.00  0.00    +0.000 C 
ATOM     29  C   UNL     1      -0.405  12.705  21.514  0.00  0.00    +0.000 C 
ATOM     30  N   UNL     1      -0.036  12.771  20.103  0.00  0.00    +0.000 NA
ATOM     31  H   UNL     1      -8.061  14.540  19.351  0.00  0.00    +0.000 HD
ENDROOT
BRANCH  30  32
ATOM     32  C   UNL     1      -0.363  13.975  19.334  0.00  0.00    +0.000 C 
BRANCH  32  33
ATOM     33  C   UNL     1       0.830  14.777  18.862  0.00  0.00    +0.000 A 
ATOM     34  C   UNL     1       2.019  14.138  18.492  0.00  0.00    +0.000 A 
ATOM     35  C   UNL     1       3.092  14.876  17.989  0.00  0.00    +0.000 A 
ATOM     36  C   UNL     1       2.987  16.258  17.847  0.00  0.00    +0.000 A 
ATOM     37  C   UNL     1       1.810  16.908  18.210  0.00  0.00    +0.000 A 
ATOM     38  C   UNL     1       0.738  16.173  18.718  0.00  0.00    +0.000 A 
ENDBRANCH  32  33
ENDBRANCH  30  32
TORSDOF 2
ENDMDL
MODEL 3
REMARK VINA RESULT:      -9.1      2.083      5.518
REMARK  Name = 
REMARK  2 active torsions:
REMARK  status: ('A' for Active; 'I' for Inactive)
REMARK    1  A    between atoms: N_30  and  C_31
REMARK    2  A    between atoms: C_31  and  C_32
REMARK                            x       y       z     vdW  Elec       q    Type
REMARK                         _______ _______ _______ _____ _____    ______ ____
ROOT
ATOM      1  O   UNL     1      -6.386  12.352  16.696  0.00  0.00    +0.000 OA
ATOM      2  C   UNL     1      -5.299  11.826  16.893  0.00  0.00    +0.000 C 
ATOM      3  N   UNL     1      -4.627  11.116  15.929  0.00  0.00    +0.000 N 
ATOM      4  C   UNL     1      -3.391  10.622  16.269  0.00  0.00    +0.000 C 
ATOM      5  O   UNL     1      -2.680  10.010  15.486  0.00  0.00    +0.000 OA
ATOM      6  C   UNL     1      -3.249  11.044  17.621  0.00  0.00    +0.000 A 
ATOM      7  C   UNL     1      -4.406  11.771  17.999  0.00  0.00    +0.000 A 
ATOM      8  C   UNL     1      -4.354  12.303  19.304  0.00  0.00    +0.000 A 
ATOM      9  C   UNL     1      -5.327  13.098  19.968  0.00  0.00    +0.000 A 
ATOM     10  C   UNL     1      -6.633  13.551  19.671  0.00  0.00    +0.000 A 
ATOM     11  C   UNL     1      -7.357  14.316  20.597  0.00  0.00    +0.000 A 
ATOM     12  C   UNL     1      -6.810  14.655  21.822  0.00  0.00    +0.000 A 
ATOM     13  C   UNL     1      -5.520  14.255  22.161  0.00  0.00    +0.000 A 
ATOM     14  C   UNL     1      -4.770  13.491  21.245  0.00  0.00    +0.000 A 
ATOM     15  N   UNL     1      -3.453  13.023  21.382  0.00  0.00    +0.000 N 
ATOM     16  C   UNL     1      -3.328  12.281  20.253  0.00  0.00    +0.000 A 
ATOM     17  C   UNL     1      -2.211  11.544  19.901  0.00  0.00    +0.000 A 
ATOM     18  C   UNL     1      -2.261  10.969  18.626  0.00  0.00    +0.000 A 
ATOM     19  C   UNL     1      -0.976  10.368  18.545  0.00  0.00    +0.000 A 
ATOM     20  C   UNL     1      -0.262   9.644  17.562  0.00  0.00    +0.000 A 
ATOM     21  C   UNL     1       1.027   9.160  17.818  0.00  0.00    +0.000 A 
ATOM     22  C   UNL     1       1.628   9.359  19.052  0.00  0.00    +0.000 A 
ATOM     23  C   UNL     1       0.978  10.078  20.054  0.00  0.00    +0.000 A 
ATOM     24  C   UNL     1      -0.301  10.611  19.803  0.00  0.00    +0.000 A 
ATOM     25  N   UNL     1      -1.075  11.441  20.636  0.00  0.00    +0.000 N 
ATOM     26  C   UNL     1      -0.624  12.152  21.817  0.00  0.00    +0.000 C 
ATOM     27  C   UNL     1      -1.139  11.518  23.104  0.00  0.00    +0.000 C 
ATOM     28  C   UNL     1      -2.377  12.330  23.477  0.00  0.00    +0.000 C 
ATOM     29  C   UNL     1      -2.494  13.406  22.395  0.00  0.00    +0.000 C 
ATOM     30  N   UNL     1      -1.143  13.520  21.854  0.00  0.00    +0.000 NA
ATOM     31  H   UNL     1      -4.992  11.018  14.997  0.00  0.00    +0.000 HD
ENDROOT
BRANCH  30  32
ATOM     32  C   UNL     1      -0.917  14.331  20.655  0.00  0.00    +0.000 C 
BRANCH  32  33
ATOM     33  C   UNL     1       0.463  14.208  20.049  0.00  0.00    +0.000 A 
ATOM     34  C   UNL     1       1.605  14.471  20.814  0.00  0.00    +0.000 A 
ATOM     35  C   UNL     1       2.878  14.285  20.272  0.00  0.00    +0.000 A 
ATOM     36  C   UNL     1       3.024  13.833  18.962  0.00  0.00    +0.000 A 
ATOM     37  C   UNL     1       1.897  13.566  18.188  0.00  0.00    +0.000 A 
ATOM     38  C   UNL     1       0.622  13.754  18.727  0.00  0.00    +0.000 A 
ENDBRANCH  32  33
ENDBRANCH  30  32
TORSDOF 2
ENDMDL
MODEL 4
REMARK VINA RESULT:      -8.9      1.583      6.212
REMARK  Name = 
REMARK  2 active torsions:
REMARK  status: ('A' for Active; 'I' for Inactive)
REMARK    1  A    between atoms: N_30  and  C_31
REMARK    2  A    between atoms: C_31  and  C_32
REMARK                            x       y       z     vdW  Elec       q    Type
REMARK                         _______ _______ _______ _____ _____    ______ ____
ROOT
ATOM      1  O   UNL     1      -6.807  14.193  23.060  0.00  0.00    +0.000 OA
ATOM      2  C   UNL     1      -6.404  13.618  22.058  0.00  0.00    +0.000 C 
ATOM      3  N   UNL     1      -7.241  13.179  21.061  0.00  0.00    +0.000 N 
ATOM      4  C   UNL     1      -6.650  12.595  19.967  0.00  0.00    +0.000 C 
ATOM      5  O   UNL     1      -7.285  12.202  18.998  0.00  0.00    +0.000 OA
ATOM      6  C   UNL     1      -5.267  12.642  20.297  0.00  0.00    +0.000 A 
ATOM      7  C   UNL     1      -5.118  13.260  21.565  0.00  0.00    +0.000 A 
ATOM      8  C   UNL     1      -3.779  13.427  21.973  0.00  0.00    +0.000 A 
ATOM      9  C   UNL     1      -3.293  14.033  23.163  0.00  0.00    +0.000 A 
ATOM     10  C   UNL     1      -3.877  14.566  24.335  0.00  0.00    +0.000 A 
ATOM     11  C   UNL     1      -3.079  15.070  25.372  0.00  0.00    +0.000 A 
ATOM     12  C   UNL     1      -1.698  15.065  25.274  0.00  0.00    +0.000 A 
ATOM     13  C   UNL     1      -1.068  14.571  24.135  0.00  0.00    +0.000 A 
ATOM     14  C   UNL     1      -1.849  14.065  23.076  0.00  0.00    +0.000 A 
ATOM     15  N   UNL     1      -1.410  13.560  21.842  0.00  0.00    +0.000 N 
ATOM     16  C   UNL     1      -2.584  13.141  21.307  0.00  0.00    +0.000 A 
ATOM     17  C   UNL     1      -2.725  12.507  20.084  0.00  0.00    +0.000 A 
ATOM     18  C   UNL     1      -4.047  12.291  19.680  0.00  0.00    +0.000 A 
ATOM     19  C   UNL     1      -3.851  11.714  18.397  0.00  0.00    +0.000 A 
ATOM     20  C   UNL     1      -4.694  11.266  17.354  0.00  0.00    +0.000 A 
ATOM     21  C   UNL     1      -4.161  10.713  16.183  0.00  0.00    +0.000 A 
ATOM     22  C   UNL     1      -2.790  10.570  16.025  0.00  0.00    +0.000 A 
ATOM     23  C   UNL     1      -1.910  11.007  17.013  0.00  0.00    +0.000 A 
ATOM     24  C   UNL     1      -2.423  11.606  18.180  0.00  0.00    +0.000 A 
ATOM     25  N   UNL     1      -1.709  12.197  19.240  0.00  0.00    +0.000 N 
ATOM     26  C   UNL     1      -0.306  12.564  19.245  0.00  0.00    +0.000 C 
ATOM     27  C   UNL     1       0.534  11.621  20.098  0.00  0.00    +0.000 C 
ATOM     28  C   UNL     1       0.674  12.323  21.446  0.00  0.00    +0.000 C 
ATOM     29  C   UNL     1      -0.076  13.648  21.289  0.00  0.00    +0.000 C 
ATOM     30  N   UNL     1      -0.095  13.881  19.848  0.00  0.00    +0.000 NA
ATOM     31  H   UNL     1      -8.233  13.336  21.100  0.00  0.00    +0.000 HD
ENDROOT
BRANCH  30  32
ATOM     32  C   UNL     1      -0.906  14.977  19.311  0.00  0.00    +0.000 C 
BRANCH  32  33
ATOM     33  C   UNL     1      -0.122  16.090  18.652  0.00  0.00    +0.000 A 
ATOM     34  C   UNL     1       1.274  16.029  18.570  0.00  0.00    +0.000 A 
ATOM     35  C   UNL     1       1.988  17.022  17.897  0.00  0.00    +0.000 A 
ATOM     36  C   UNL     1       1.315  18.085  17.297  0.00  0.00    +0.000 A 
ATOM     37  C   UNL     1      -0.074  18.159  17.369  0.00  0.00    +0.000 A 
ATOM     38  C   UNL     1      -0.789  17.169  18.046  0.00  0.00    +0.000 A 
ENDBRANCH  32  33
ENDBRANCH  30  32
TORSDOF 2
ENDMDL
MODEL 5
REMARK VINA RESULT:      -8.8      1.452      1.950
REMARK  Name = 
REMARK  2 active torsions:
REMARK  status: ('A' for Active; 'I' for Inactive)
REMARK    1  A    between atoms: N_30  and  C_31
REMARK    2  A    between atoms: C_31  and  C_32
REMARK                            x       y       z     vdW  Elec       q    Type
REMARK                         _______ _______ _______ _____ _____    ______ ____
ROOT
ATOM      1  O   UNL     1      -7.027  10.411  19.589  0.00  0.00    +0.000 OA
ATOM      2  C   UNL     1      -6.781  11.378  20.298  0.00  0.00    +0.000 C 
ATOM      3  N   UNL     1      -7.664  11.862  21.233  0.00  0.00    +0.000 N 
ATOM      4  C   UNL     1      -7.239  12.921  21.998  0.00  0.00    +0.000 C 
ATOM      5  O   UNL     1      -7.917  13.413  22.888  0.00  0.00    +0.000 OA
ATOM      6  C   UNL     1      -5.932  13.168  21.489  0.00  0.00    +0.000 A 
ATOM      7  C   UNL     1      -5.657  12.234  20.458  0.00  0.00    +0.000 A 
ATOM      8  C   UNL     1      -4.357  12.335  19.920  0.00  0.00    +0.000 A 
ATOM      9  C   UNL     1      -3.762  11.535  18.906  0.00  0.00    +0.000 A 
ATOM     10  C   UNL     1      -4.201  10.497  18.052  0.00  0.00    +0.000 A 
ATOM     11  C   UNL     1      -3.337   9.931  17.105  0.00  0.00    +0.000 A 
ATOM     12  C   UNL     1      -2.029  10.367  16.985  0.00  0.00    +0.000 A 
ATOM     13  C   UNL     1      -1.535  11.371  17.814  0.00  0.00    +0.000 A 
ATOM     14  C   UNL     1      -2.383  11.952  18.777  0.00  0.00    +0.000 A 
ATOM     15  N   UNL     1      -2.069  12.944  19.721  0.00  0.00    +0.000 N 
ATOM     16  C   UNL     1      -3.287  13.159  20.278  0.00  0.00    +0.000 A 
ATOM     17  C   UNL     1      -3.563  14.094  21.261  0.00  0.00    +0.000 A 
ATOM     18  C   UNL     1      -4.862  14.041  21.778  0.00  0.00    +0.000 A 
ATOM     19  C   UNL     1      -4.798  15.042  22.783  0.00  0.00    +0.000 A 
ATOM     20  C   UNL     1      -5.687  15.549  23.760  0.00  0.00    +0.000 A 
ATOM     21  C   UNL     1      -5.302  16.589  24.615  0.00  0.00    +0.000 A 
ATOM     22  C   UNL     1      -4.045  17.166  24.511  0.00  0.00    +0.000 A 
ATOM     23  C   UNL     1      -3.122  16.698  23.578  0.00  0.00    +0.000 A 
ATOM     24  C   UNL     1      -3.472  15.624  22.737  0.00  0.00    +0.000 A 
ATOM     25  N   UNL     1      -2.660  14.947  21.807  0.00  0.00    +0.000 N 
ATOM     26  C   UNL     1      -1.216  15.021  21.699  0.00  0.00    +0.000 C 
ATOM     27  C   UNL     1      -0.769  15.827  20.484  0.00  0.00    +0.000 C 
ATOM     28  C   UNL     1      -0.479  14.788  19.404  0.00  0.00    +0.000 C 
ATOM     29  C   UNL     1      -0.752  13.434  20.064  0.00  0.00    +0.000 C 
ATOM     30  N   UNL     1      -0.622  13.699  21.494  0.00  0.00    +0.000 NA
ATOM     31  H   UNL     1      -8.553  11.422  21.395  0.00  0.00    +0.000 HD
ENDROOT
BRANCH  30  32
ATOM     32  C   UNL     1      -1.007  12.660  22.453  0.00  0.00    +0.000 C 
BRANCH  32  33
ATOM     33  C   UNL     1      -0.406  11.297  22.196  0.00  0.00    +0.000 A 
ATOM     34  C   UNL     1      -0.781  10.193  22.970  0.00  0.00    +0.000 A 
ATOM     35  C   UNL     1      -0.278   8.923  22.682  0.00  0.00    +0.000 A 
ATOM     36  C   UNL     1       0.601   8.741  21.617  0.00  0.00    +0.000 A 
ATOM     37  C   UNL     1       0.984   9.830  20.837  0.00  0.00    +0.000 A 
ATOM     38  C   UNL     1       0.486  11.102  21.125  0.00  0.00    +0.000 A 
ENDBRANCH  32  33
ENDBRANCH  30  32
TORSDOF 2
ENDMDL
MODEL 6
REMARK VINA RESULT:      -8.7      1.594      6.091
REMARK  Name = 
REMARK  2 active torsions:
REMARK  status: ('A' for Active; 'I' for Inactive)
REMARK    1  A    between atoms: N_30  and  C_31
REMARK    2  A    between atoms: C_31  and  C_32
REMARK                            x       y       z     vdW  Elec       q    Type
REMARK                         _______ _______ _______ _____ _____    ______ ____
ROOT
ATOM      1  O   UNL     1      -6.610  14.806  21.423  0.00  0.00    +0.000 OA
ATOM      2  C   UNL     1      -6.230  14.055  20.534  0.00  0.00    +0.000 C 
ATOM      3  N   UNL     1      -6.992  13.759  19.430  0.00  0.00    +0.000 N 
ATOM      4  C   UNL     1      -6.422  12.944  18.483  0.00  0.00    +0.000 C 
ATOM      5  O   UNL     1      -6.983  12.642  17.440  0.00  0.00    +0.000 OA
ATOM      6  C   UNL     1      -5.145  12.660  19.044  0.00  0.00    +0.000 A 
ATOM      7  C   UNL     1      -5.030  13.333  20.287  0.00  0.00    +0.000 A 
ATOM      8  C   UNL     1      -3.774  13.183  20.911  0.00  0.00    +0.000 A 
ATOM      9  C   UNL     1      -3.330  13.748  22.137  0.00  0.00    +0.000 A 
ATOM     10  C   UNL     1      -3.919  14.521  23.164  0.00  0.00    +0.000 A 
ATOM     11  C   UNL     1      -3.183  14.892  24.298  0.00  0.00    +0.000 A 
ATOM     12  C   UNL     1      -1.858  14.520  24.439  0.00  0.00    +0.000 A 
ATOM     13  C   UNL     1      -1.218  13.777  23.450  0.00  0.00    +0.000 A 
ATOM     14  C   UNL     1      -1.935  13.396  22.299  0.00  0.00    +0.000 A 
ATOM     15  N   UNL     1      -1.467  12.683  21.183  0.00  0.00    +0.000 N 
ATOM     16  C   UNL     1      -2.615  12.536  20.475  0.00  0.00    +0.000 A 
ATOM     17  C   UNL     1      -2.733  11.851  19.278  0.00  0.00    +0.000 A 
ATOM     18  C   UNL     1      -3.987  11.949  18.663  0.00  0.00    +0.000 A 
ATOM     19  C   UNL     1      -3.760  11.226  17.462  0.00  0.00    +0.000 A 
ATOM     20  C   UNL     1      -4.524  10.918  16.312  0.00  0.00    +0.000 A 
ATOM     21  C   UNL     1      -3.988  10.141  15.277  0.00  0.00    +0.000 A 
ATOM     22  C   UNL     1      -2.700   9.633  15.365  0.00  0.00    +0.000 A 
ATOM     23  C   UNL     1      -1.896   9.915  16.468  0.00  0.00    +0.000 A 
ATOM     24  C   UNL     1      -2.400  10.731  17.499  0.00  0.00    +0.000 A 
ATOM     25  N   UNL     1      -1.723  11.212  18.637  0.00  0.00    +0.000 N 
ATOM     26  C   UNL     1      -0.291  11.201  18.865  0.00  0.00    +0.000 C 
ATOM     27  C   UNL     1       0.121  10.154  19.894  0.00  0.00    +0.000 C 
ATOM     28  C   UNL     1       0.238  10.916  21.211  0.00  0.00    +0.000 C 
ATOM     29  C   UNL     1      -0.091  12.370  20.864  0.00  0.00    +0.000 C 
ATOM     30  N   UNL     1       0.175  12.467  19.432  0.00  0.00    +0.000 NA
ATOM     31  H   UNL     1      -7.898  14.171  19.290  0.00  0.00    +0.000 HD
ENDROOT
BRANCH  30  32
ATOM     32  C   UNL     1      -0.216  13.682  18.712  0.00  0.00    +0.000 C 
BRANCH  32  33
ATOM     33  C   UNL     1       0.277  14.975  19.322  0.00  0.00    +0.000 A 
ATOM     34  C   UNL     1      -0.622  15.888  19.884  0.00  0.00    +0.000 A 
ATOM     35  C   UNL     1      -0.156  17.045  20.511  0.00  0.00    +0.000 A 
ATOM     36  C   UNL     1       1.211  17.301  20.585  0.00  0.00    +0.000 A 
ATOM     37  C   UNL     1       2.119  16.401  20.031  0.00  0.00    +0.000 A 
ATOM     38  C   UNL     1       1.655  15.245  19.400  0.00  0.00    +0.000 A 
ENDBRANCH  32  33
ENDBRANCH  30  32
TORSDOF 2
ENDMDL
MODEL 7
REMARK VINA RESULT:      -8.4      7.531     11.136
REMARK  Name = 
REMARK  2 active torsions:
REMARK  status: ('A' for Active; 'I' for Inactive)
REMARK    1  A    between atoms: N_30  and  C_31
REMARK    2  A    between atoms: C_31  and  C_32
REMARK                            x       y       z     vdW  Elec       q    Type
REMARK                         _______ _______ _______ _____ _____    ______ ____
ROOT
ATOM      1  O   UNL     1       5.077  13.783  24.914  0.00  0.00    +0.000 OA
ATOM      2  C   UNL     1       5.972  13.430  24.159  0.00  0.00    +0.000 C 
ATOM      3  N   UNL     1       6.665  12.254  24.319  0.00  0.00    +0.000 N 
ATOM      4  C   UNL     1       7.609  11.956  23.368  0.00  0.00    +0.000 C 
ATOM      5  O   UNL     1       8.261  10.921  23.379  0.00  0.00    +0.000 OA
ATOM      6  C   UNL     1       7.537  13.077  22.494  0.00  0.00    +0.000 A 
ATOM      7  C   UNL     1       6.547  13.971  22.975  0.00  0.00    +0.000 A 
ATOM      8  C   UNL     1       6.335  15.095  22.151  0.00  0.00    +0.000 A 
ATOM      9  C   UNL     1       5.401  16.152  22.331  0.00  0.00    +0.000 A 
ATOM     10  C   UNL     1       4.478  16.523  23.337  0.00  0.00    +0.000 A 
ATOM     11  C   UNL     1       3.710  17.689  23.214  0.00  0.00    +0.000 A 
ATOM     12  C   UNL     1       3.828  18.505  22.102  0.00  0.00    +0.000 A 
ATOM     13  C   UNL     1       4.705  18.179  21.070  0.00  0.00    +0.000 A 
ATOM     14  C   UNL     1       5.484  17.009  21.168  0.00  0.00    +0.000 A 
ATOM     15  N   UNL     1       6.392  16.492  20.230  0.00  0.00    +0.000 N 
ATOM     16  C   UNL     1       6.894  15.435  20.917  0.00  0.00    +0.000 A 
ATOM     17  C   UNL     1       7.884  14.583  20.460  0.00  0.00    +0.000 A 
ATOM     18  C   UNL     1       8.143  13.483  21.286  0.00  0.00    +0.000 A 
ATOM     19  C   UNL     1       9.120  12.791  20.522  0.00  0.00    +0.000 A 
ATOM     20  C   UNL     1       9.836  11.579  20.662  0.00  0.00    +0.000 A 
ATOM     21  C   UNL     1      10.773  11.180  19.701  0.00  0.00    +0.000 A 
ATOM     22  C   UNL     1      11.040  11.975  18.597  0.00  0.00    +0.000 A 
ATOM     23  C   UNL     1      10.355  13.173  18.399  0.00  0.00    +0.000 A 
ATOM     24  C   UNL     1       9.377  13.572  19.330  0.00  0.00    +0.000 A 
ATOM     25  N   UNL     1       8.514  14.682  19.262  0.00  0.00    +0.000 N 
ATOM     26  C   UNL     1       8.249  15.507  18.100  0.00  0.00    +0.000 C 
ATOM     27  C   UNL     1       8.907  16.878  18.204  0.00  0.00    +0.000 C 
ATOM     28  C   UNL     1       7.811  17.807  18.718  0.00  0.00    +0.000 C 
ATOM     29  C   UNL     1       6.569  16.924  18.861  0.00  0.00    +0.000 C 
ATOM     30  N   UNL     1       6.822  15.802  17.961  0.00  0.00    +0.000 NA
ATOM     31  H   UNL     1       6.446  11.611  25.061  0.00  0.00    +0.000 HD
ENDROOT
BRANCH  30  32
ATOM     32  C   UNL     1       5.918  14.649  17.983  0.00  0.00    +0.000 C 
BRANCH  32  33
ATOM     33  C   UNL     1       4.473  14.974  18.289  0.00  0.00    +0.000 A 
ATOM     34  C   UNL     1       3.810  14.351  19.352  0.00  0.00    +0.000 A 
ATOM     35  C   UNL     1       2.499  14.708  19.676  0.00  0.00    +0.000 A 
ATOM     36  C   UNL     1       1.839  15.692  18.943  0.00  0.00    +0.000 A 
ATOM     37  C   UNL     1       2.485  16.321  17.881  0.00  0.00    +0.000 A 
ATOM     38  C   UNL     1       3.794  15.963  17.554  0.00  0.00    +0.000 A 
ENDBRANCH  32  33
ENDBRANCH  30  32
TORSDOF 2
ENDMDL
MODEL 8
REMARK VINA RESULT:      -8.4      2.179      5.815
REMARK  Name = 
REMARK  2 active torsions:
REMARK  status: ('A' for Active; 'I' for Inactive)
REMARK    1  A    between atoms: N_30  and  C_31
REMARK    2  A    between atoms: C_31  and  C_32
REMARK                            x       y       z     vdW  Elec       q    Type
REMARK                         _______ _______ _______ _____ _____    ______ ____
ROOT
ATOM      1  O   UNL     1      -7.888  13.303  18.127  0.00  0.00    +0.000 OA
ATOM      2  C   UNL     1      -6.790  12.762  18.101  0.00  0.00    +0.000 C 
ATOM      3  N   UNL     1      -6.378  11.957  17.068  0.00  0.00    +0.000 N 
ATOM      4  C   UNL     1      -5.101  11.457  17.142  0.00  0.00    +0.000 C 
ATOM      5  O   UNL     1      -4.607  10.762  16.265  0.00  0.00    +0.000 OA
ATOM      6  C   UNL     1      -4.632  11.983  18.378  0.00  0.00    +0.000 A 
ATOM      7  C   UNL     1      -5.656  12.773  18.959  0.00  0.00    +0.000 A 
ATOM      8  C   UNL     1      -5.283  13.407  20.162  0.00  0.00    +0.000 A 
ATOM      9  C   UNL     1      -6.059  14.282  20.970  0.00  0.00    +0.000 A 
ATOM     10  C   UNL     1      -7.395  14.747  20.959  0.00  0.00    +0.000 A 
ATOM     11  C   UNL     1      -7.866  15.606  21.963  0.00  0.00    +0.000 A 
ATOM     12  C   UNL     1      -7.035  16.028  22.986  0.00  0.00    +0.000 A 
ATOM     13  C   UNL     1      -5.704  15.620  23.036  0.00  0.00    +0.000 A 
ATOM     14  C   UNL     1      -5.206  14.761  22.036  0.00  0.00    +0.000 A 
ATOM     15  N   UNL     1      -3.899  14.268  21.891  0.00  0.00    +0.000 N 
ATOM     16  C   UNL     1      -4.058  13.433  20.834  0.00  0.00    +0.000 A 
ATOM     17  C   UNL     1      -3.066  12.638  20.287  0.00  0.00    +0.000 A 
ATOM     18  C   UNL     1      -3.429  11.962  19.117  0.00  0.00    +0.000 A 
ATOM     19  C   UNL     1      -2.208  11.320  18.781  0.00  0.00    +0.000 A 
ATOM     20  C   UNL     1      -1.760  10.497  17.721  0.00  0.00    +0.000 A 
ATOM     21  C   UNL     1      -0.451   9.998  17.699  0.00  0.00    +0.000 A 
ATOM     22  C   UNL     1       0.433  10.280  18.729  0.00  0.00    +0.000 A 
ATOM     23  C   UNL     1       0.052  11.096  19.793  0.00  0.00    +0.000 A 
ATOM     24  C   UNL     1      -1.245  11.644  19.813  0.00  0.00    +0.000 A 
ATOM     25  N   UNL     1      -1.787  12.562  20.733  0.00  0.00    +0.000 N 
ATOM     26  C   UNL     1      -1.056  13.353  21.704  0.00  0.00    +0.000 C 
ATOM     27  C   UNL     1      -1.249  12.843  23.127  0.00  0.00    +0.000 C 
ATOM     28  C   UNL     1      -2.352  13.718  23.717  0.00  0.00    +0.000 C 
ATOM     29  C   UNL     1      -2.719  14.705  22.605  0.00  0.00    +0.000 C 
ATOM     30  N   UNL     1      -1.539  14.734  21.747  0.00  0.00    +0.000 NA
ATOM     31  H   UNL     1      -6.960  11.793  16.264  0.00  0.00    +0.000 HD
ENDROOT
BRANCH  30  32
ATOM     32  C   UNL     1      -1.605  15.438  20.463  0.00  0.00    +0.000 C 
BRANCH  32  33
ATOM     33  C   UNL     1      -0.265  15.797  19.860  0.00  0.00    +0.000 A 
ATOM     34  C   UNL     1       0.293  17.064  20.064  0.00  0.00    +0.000 A 
ATOM     35  C   UNL     1       1.562  17.367  19.567  0.00  0.00    +0.000 A 
ATOM     36  C   UNL     1       2.288  16.407  18.865  0.00  0.00    +0.000 A 
ATOM     37  C   UNL     1       1.747  15.141  18.656  0.00  0.00    +0.000 A 
ATOM     38  C   UNL     1       0.476  14.837  19.148  0.00  0.00    +0.000 A 
ENDBRANCH  32  33
ENDBRANCH  30  32
TORSDOF 2
ENDMDL
MODEL 9
REMARK VINA RESULT:      -8.3      2.085      5.728
REMARK  Name = 
REMARK  2 active torsions:
REMARK  status: ('A' for Active; 'I' for Inactive)
REMARK    1  A    between atoms: N_30  and  C_31
REMARK    2  A    between atoms: C_31  and  C_32
REMARK                            x       y       z     vdW  Elec       q    Type
REMARK                         _______ _______ _______ _____ _____    ______ ____
ROOT
ATOM      1  O   UNL     1      -7.005  12.544  17.147  0.00  0.00    +0.000 OA
ATOM      2  C   UNL     1      -5.891  12.059  17.293  0.00  0.00    +0.000 C 
ATOM      3  N   UNL     1      -5.292  11.264  16.346  0.00  0.00    +0.000 N 
ATOM      4  C   UNL     1      -4.017  10.830  16.616  0.00  0.00    +0.000 C 
ATOM      5  O   UNL     1      -3.365  10.151  15.835  0.00  0.00    +0.000 OA
ATOM      6  C   UNL     1      -3.762  11.392  17.899  0.00  0.00    +0.000 A 
ATOM      7  C   UNL     1      -4.898  12.135  18.309  0.00  0.00    +0.000 A 
ATOM      8  C   UNL     1      -4.738  12.800  19.542  0.00  0.00    +0.000 A 
ATOM      9  C   UNL     1      -5.667  13.643  20.211  0.00  0.00    +0.000 A 
ATOM     10  C   UNL     1      -7.006  14.041  19.995  0.00  0.00    +0.000 A 
ATOM     11  C   UNL     1      -7.662  14.885  20.903  0.00  0.00    +0.000 A 
ATOM     12  C   UNL     1      -7.013  15.358  22.029  0.00  0.00    +0.000 A 
ATOM     13  C   UNL     1      -5.687  15.018  22.283  0.00  0.00    +0.000 A 
ATOM     14  C   UNL     1      -5.005  14.175  21.383  0.00  0.00    +0.000 A 
ATOM     15  N   UNL     1      -3.669  13.747  21.440  0.00  0.00    +0.000 N 
ATOM     16  C   UNL     1      -3.629  12.894  20.386  0.00  0.00    +0.000 A 
ATOM     17  C   UNL     1      -2.530  12.143  20.006  0.00  0.00    +0.000 A 
ATOM     18  C   UNL     1      -2.683  11.439  18.807  0.00  0.00    +0.000 A 
ATOM     19  C   UNL     1      -1.396  10.855  18.666  0.00  0.00    +0.000 A 
ATOM     20  C   UNL     1      -0.757  10.045  17.699  0.00  0.00    +0.000 A 
ATOM     21  C   UNL     1       0.563   9.612  17.879  0.00  0.00    +0.000 A 
ATOM     22  C   UNL     1       1.271   9.948  19.023  0.00  0.00    +0.000 A 
ATOM     23  C   UNL     1       0.698  10.755  20.004  0.00  0.00    +0.000 A 
ATOM     24  C   UNL     1      -0.613  11.238  19.823  0.00  0.00    +0.000 A 
ATOM     25  N   UNL     1      -1.329  12.137  20.637  0.00  0.00    +0.000 N 
ATOM     26  C   UNL     1      -0.789  12.973  21.691  0.00  0.00    +0.000 C 
ATOM     27  C   UNL     1      -1.166  12.469  23.079  0.00  0.00    +0.000 C 
ATOM     28  C   UNL     1      -2.385  13.294  23.484  0.00  0.00    +0.000 C 
ATOM     29  C   UNL     1      -2.630  14.249  22.313  0.00  0.00    +0.000 C 
ATOM     30  N   UNL     1      -1.339  14.329  21.638  0.00  0.00    +0.000 NA
ATOM     31  H   UNL     1      -5.739  11.064  15.468  0.00  0.00    +0.000 HD
ENDROOT
BRANCH  30  32
ATOM     32  C   UNL     1      -1.247  15.015  20.346  0.00  0.00    +0.000 C 
BRANCH  32  33
ATOM     33  C   UNL     1       0.149  15.428  19.938  0.00  0.00    +0.000 A 
ATOM     34  C   UNL     1       1.228  14.550  20.093  0.00  0.00    +0.000 A 
ATOM     35  C   UNL     1       2.502  14.909  19.648  0.00  0.00    +0.000 A 
ATOM     36  C   UNL     1       2.711  16.146  19.042  0.00  0.00    +0.000 A 
ATOM     37  C   UNL     1       1.647  17.030  18.880  0.00  0.00    +0.000 A 
ATOM     38  C   UNL     1       0.373  16.675  19.328  0.00  0.00    +0.000 A 
ENDBRANCH  32  33
ENDBRANCH  30  32
TORSDOF 2
ENDMDL
