MODEL 1
REMARK VINA RESULT:      -7.2      0.000      0.000
REMARK  Name = 
REMARK  13 active torsions:
REMARK  status: ('A' for Active; 'I' for Inactive)
REMARK    1  A    between atoms: C_1  and  C_2
REMARK    2  A    between atoms: C_2  and  C_3
REMARK    3  A    between atoms: C_3  and  C_4
REMARK    4  A    between atoms: C_4  and  C_5
REMARK    5  A    between atoms: C_4  and  N_6
REMARK    6  A    between atoms: C_9  and  C_10
REMARK    7  A    between atoms: C_12  and  N_13
REMARK    8  A    between atoms: N_13  and  C_14
REMARK    9  A    between atoms: C_14  and  C_15
REMARK   10  A    between atoms: C_14  and  C_22
REMARK   11  A    between atoms: C_15  and  C_16
REMARK   12  A    between atoms: N_24  and  C_25
REMARK   13  A    between atoms: C_25  and  C_26
REMARK                            x       y       z     vdW  Elec       q    Type
REMARK                         _______ _______ _______ _____ _____    ______ ____
ROOT
ATOM      1  C   UNL     1       1.302   8.471  19.750  0.00  0.00    +0.000 C 
ENDROOT
BRANCH   1   2
ATOM      2  C   UNL     1       0.992   9.081  21.153  0.00  0.00    +0.000 C 
ATOM      3  O   UNL     1       1.876   9.213  22.008  0.00  0.00    +0.000 OA
ATOM      4  N   UNL     1      -0.304   9.507  21.371  0.00  0.00    +0.000 N 
ATOM      5  H   UNL     1      -0.987   9.460  20.630  0.00  0.00    +0.000 HD
BRANCH   4   6
ATOM      6  C   UNL     1      -0.773   9.903  22.683  0.00  0.00    +0.000 C 
BRANCH   6   7
ATOM      7  C   UNL     1      -1.197  11.347  22.705  0.00  0.00    +0.000 A 
ATOM      8  C   UNL     1      -0.457  12.303  21.993  0.00  0.00    +0.000 A 
ATOM      9  C   UNL     1      -0.828  13.650  22.012  0.00  0.00    +0.000 A 
ATOM     10  C   UNL     1      -1.948  14.054  22.733  0.00  0.00    +0.000 A 
ATOM     11  C   UNL     1      -2.692  13.107  23.426  0.00  0.00    +0.000 A 
ATOM     12  F   UNL     1      -3.772  13.493  24.116  0.00  0.00    +0.000 F 
ATOM     13  C   UNL     1      -2.329  11.762  23.419  0.00  0.00    +0.000 A 
ENDBRANCH   6   7
ENDBRANCH   4   6
ENDBRANCH   1   2
BRANCH   1  14
ATOM     14  N   UNL     1       1.708   9.566  18.852  0.00  0.00    +0.000 N 
ATOM     15  H   UNL     1       2.718   9.707  18.858  0.00  0.00    +0.000 HD
BRANCH  14  22
ATOM     16  N   UNL     1      -2.219  12.078  17.804  0.00  0.00    +0.000 N 
ATOM     17  C   UNL     1      -0.906  11.947  18.221  0.00  0.00    +0.000 A 
ATOM     18  N   UNL     1      -0.304  13.126  18.419  0.00  0.00    +0.000 NA
ATOM     19  C   UNL     1       0.993  13.105  18.758  0.00  0.00    +0.000 A 
ATOM     20  C   UNL     1       1.664  14.429  18.964  0.00  0.00    +0.000 C 
ATOM     21  C   UNL     1       1.679  11.927  18.927  0.00  0.00    +0.000 A 
ATOM     22  C   UNL     1       0.980  10.747  18.741  0.00  0.00    +0.000 A 
ATOM     23  N   UNL     1      -0.311  10.748  18.372  0.00  0.00    +0.000 NA
ATOM     24  H   UNL     1      -2.456  13.042  18.019  0.00  0.00    +0.000 HD
BRANCH  16  25
ATOM     25  C   UNL     1      -3.184  11.074  18.226  0.00  0.00    +0.000 C 
ATOM     26  C   UNL     1      -3.514  10.178  17.032  0.00  0.00    +0.000 C 
BRANCH  25  27
ATOM     27  C   UNL     1      -4.431  11.827  18.746  0.00  0.00    +0.000 C 
BRANCH  27  29
ATOM     28  C   UNL     1      -5.349  12.526  20.986  0.00  0.00    +0.000 C 
ATOM     29  C   UNL     1      -4.185  12.646  20.014  0.00  0.00    +0.000 C 
ENDBRANCH  27  29
ENDBRANCH  25  27
ENDBRANCH  16  25
ENDBRANCH  14  22
ENDBRANCH   1  14
BRANCH   1  30
ATOM     30  C   UNL     1       2.407   7.398  19.834  0.00  0.00    +0.000 C 
BRANCH  30  31
ATOM     31  C   UNL     1       1.975   5.977  19.528  0.00  0.00    +0.000 A 
ATOM     32  C   UNL     1       1.468   5.133  20.525  0.00  0.00    +0.000 A 
ATOM     33  C   UNL     1       1.027   3.846  20.207  0.00  0.00    +0.000 A 
ATOM     34  C   UNL     1       1.092   3.388  18.893  0.00  0.00    +0.000 A 
ATOM     35  C   UNL     1       1.622   4.206  17.899  0.00  0.00    +0.000 A 
ATOM     36  C   UNL     1       2.061   5.491  18.215  0.00  0.00    +0.000 A 
ENDBRANCH  30  31
ENDBRANCH   1  30
TORSDOF 10
ENDMDL
MODEL 2
REMARK VINA RESULT:      -7.2      2.896      7.556
REMARK  Name = 
REMARK  13 active torsions:
REMARK  status: ('A' for Active; 'I' for Inactive)
REMARK    1  A    between atoms: C_1  and  C_2
REMARK    2  A    between atoms: C_2  and  C_3
REMARK    3  A    between atoms: C_3  and  C_4
REMARK    4  A    between atoms: C_4  and  C_5
REMARK    5  A    between atoms: C_4  and  N_6
REMARK    6  A    between atoms: C_9  and  C_10
REMARK    7  A    between atoms: C_12  and  N_13
REMARK    8  A    between atoms: N_13  and  C_14
REMARK    9  A    between atoms: C_14  and  C_15
REMARK   10  A    between atoms: C_14  and  C_22
REMARK   11  A    between atoms: C_15  and  C_16
REMARK   12  A    between atoms: N_24  and  C_25
REMARK   13  A    between atoms: C_25  and  C_26
REMARK                            x       y       z     vdW  Elec       q    Type
REMARK                         _______ _______ _______ _____ _____    ______ ____
ROOT
ATOM      1  C   UNL     1       0.804   9.416  18.845  0.00  0.00    +0.000 C 
ENDROOT
BRANCH   1   2
ATOM      2  C   UNL     1       1.783  10.445  18.197  0.00  0.00    +0.000 C 
ATOM      3  O   UNL     1       2.642  10.093  17.381  0.00  0.00    +0.000 OA
ATOM      4  N   UNL     1       1.607  11.771  18.544  0.00  0.00    +0.000 N 
ATOM      5  H   UNL     1       0.847  12.042  19.152  0.00  0.00    +0.000 HD
BRANCH   4   6
ATOM      6  C   UNL     1       2.562  12.796  18.178  0.00  0.00    +0.000 C 
BRANCH   6   7
ATOM      7  C   UNL     1       1.996  14.176  18.382  0.00  0.00    +0.000 A 
ATOM      8  C   UNL     1       2.797  15.302  18.139  0.00  0.00    +0.000 A 
ATOM      9  C   UNL     1       2.293  16.590  18.335  0.00  0.00    +0.000 A 
ATOM     10  C   UNL     1       0.980  16.766  18.765  0.00  0.00    +0.000 A 
ATOM     11  C   UNL     1       0.180  15.653  18.990  0.00  0.00    +0.000 A 
ATOM     12  F   UNL     1      -1.083  15.821  19.398  0.00  0.00    +0.000 F 
ATOM     13  C   UNL     1       0.673  14.364  18.803  0.00  0.00    +0.000 A 
ENDBRANCH   6   7
ENDBRANCH   4   6
ENDBRANCH   1   2
BRANCH   1  14
ATOM     14  N   UNL     1       1.539   8.673  19.883  0.00  0.00    +0.000 N 
ATOM     15  H   UNL     1       2.165   9.280  20.413  0.00  0.00    +0.000 HD
BRANCH  14  22
ATOM     16  N   UNL     1       4.003   5.434  17.379  0.00  0.00    +0.000 N 
ATOM     17  C   UNL     1       3.223   5.845  18.447  0.00  0.00    +0.000 A 
ATOM     18  N   UNL     1       2.877   4.836  19.255  0.00  0.00    +0.000 NA
ATOM     19  C   UNL     1       2.063   5.122  20.282  0.00  0.00    +0.000 A 
ATOM     20  C   UNL     1       1.669   3.985  21.175  0.00  0.00    +0.000 C 
ATOM     21  C   UNL     1       1.621   6.400  20.522  0.00  0.00    +0.000 A 
ATOM     22  C   UNL     1       2.051   7.398  19.664  0.00  0.00    +0.000 A 
ATOM     23  N   UNL     1       2.842   7.125  18.614  0.00  0.00    +0.000 NA
ATOM     24  H   UNL     1       4.327   4.509  17.646  0.00  0.00    +0.000 HD
BRANCH  16  25
ATOM     25  C   UNL     1       5.018   6.344  16.871  0.00  0.00    +0.000 C 
ATOM     26  C   UNL     1       5.385   5.924  15.448  0.00  0.00    +0.000 C 
BRANCH  25  27
ATOM     27  C   UNL     1       6.229   6.260  17.829  0.00  0.00    +0.000 C 
BRANCH  27  29
ATOM     28  C   UNL     1       7.723   8.283  17.671  0.00  0.00    +0.000 C 
ATOM     29  C   UNL     1       7.525   6.833  17.253  0.00  0.00    +0.000 C 
ENDBRANCH  27  29
ENDBRANCH  25  27
ENDBRANCH  16  25
ENDBRANCH  14  22
ENDBRANCH   1  14
BRANCH   1  30
ATOM     30  C   UNL     1      -0.431  10.117  19.449  0.00  0.00    +0.000 C 
BRANCH  30  31
ATOM     31  C   UNL     1      -1.564  10.409  18.484  0.00  0.00    +0.000 A 
ATOM     32  C   UNL     1      -2.562  11.345  18.786  0.00  0.00    +0.000 A 
ATOM     33  C   UNL     1      -3.566  11.634  17.859  0.00  0.00    +0.000 A 
ATOM     34  C   UNL     1      -3.585  10.989  16.624  0.00  0.00    +0.000 A 
ATOM     35  C   UNL     1      -2.616  10.036  16.324  0.00  0.00    +0.000 A 
ATOM     36  C   UNL     1      -1.613   9.747  17.249  0.00  0.00    +0.000 A 
ENDBRANCH  30  31
ENDBRANCH   1  30
TORSDOF 10
ENDMDL
MODEL 3
REMARK VINA RESULT:      -7.1      2.521      6.384
REMARK  Name = 
REMARK  13 active torsions:
REMARK  status: ('A' for Active; 'I' for Inactive)
REMARK    1  A    between atoms: C_1  and  C_2
REMARK    2  A    between atoms: C_2  and  C_3
REMARK    3  A    between atoms: C_3  and  C_4
REMARK    4  A    between atoms: C_4  and  C_5
REMARK    5  A    between atoms: C_4  and  N_6
REMARK    6  A    between atoms: C_9  and  C_10
REMARK    7  A    between atoms: C_12  and  N_13
REMARK    8  A    between atoms: N_13  and  C_14
REMARK    9  A    between atoms: C_14  and  C_15
REMARK   10  A    between atoms: C_14  and  C_22
REMARK   11  A    between atoms: C_15  and  C_16
REMARK   12  A    between atoms: N_24  and  C_25
REMARK   13  A    between atoms: C_25  and  C_26
REMARK                            x       y       z     vdW  Elec       q    Type
REMARK                         _______ _______ _______ _____ _____    ______ ____
ROOT
ATOM      1  C   UNL     1       0.405  10.152  18.803  0.00  0.00    +0.000 C 
ENDROOT
BRANCH   1   2
ATOM      2  C   UNL     1       1.201   9.031  19.542  0.00  0.00    +0.000 C 
ATOM      3  O   UNL     1       1.215   8.957  20.776  0.00  0.00    +0.000 OA
ATOM      4  N   UNL     1       1.847   8.103  18.748  0.00  0.00    +0.000 N 
ATOM      5  H   UNL     1       1.756   8.141  17.743  0.00  0.00    +0.000 HD
BRANCH   4   6
ATOM      6  C   UNL     1       2.778   7.138  19.295  0.00  0.00    +0.000 C 
BRANCH   6   7
ATOM      7  C   UNL     1       2.217   5.742  19.247  0.00  0.00    +0.000 A 
ATOM      8  C   UNL     1       2.101   5.077  18.017  0.00  0.00    +0.000 A 
ATOM      9  C   UNL     1       1.571   3.786  17.952  0.00  0.00    +0.000 A 
ATOM     10  C   UNL     1       1.161   3.141  19.116  0.00  0.00    +0.000 A 
ATOM     11  C   UNL     1       1.290   3.791  20.337  0.00  0.00    +0.000 A 
ATOM     12  F   UNL     1       0.901   3.172  21.458  0.00  0.00    +0.000 F 
ATOM     13  C   UNL     1       1.813   5.081  20.414  0.00  0.00    +0.000 A 
ENDBRANCH   6   7
ENDBRANCH   4   6
ENDBRANCH   1   2
BRANCH   1  14
ATOM     14  N   UNL     1       1.369  11.148  18.304  0.00  0.00    +0.000 N 
ATOM     15  H   UNL     1       2.328  10.802  18.344  0.00  0.00    +0.000 HD
BRANCH  14  22
ATOM     16  N   UNL     1      -1.032  15.012  19.764  0.00  0.00    +0.000 N 
ATOM     17  C   UNL     1       0.087  14.358  19.278  0.00  0.00    +0.000 A 
ATOM     18  N   UNL     1       1.087  15.195  18.976  0.00  0.00    +0.000 NA
ATOM     19  C   UNL     1       2.191  14.663  18.432  0.00  0.00    +0.000 A 
ATOM     20  C   UNL     1       3.300  15.607  18.083  0.00  0.00    +0.000 C 
ATOM     21  C   UNL     1       2.315  13.312  18.217  0.00  0.00    +0.000 A 
ATOM     22  C   UNL     1       1.253  12.505  18.590  0.00  0.00    +0.000 A 
ATOM     23  N   UNL     1       0.128  13.023  19.108  0.00  0.00    +0.000 NA
ATOM     24  H   UNL     1      -0.694  15.937  20.013  0.00  0.00    +0.000 HD
BRANCH  16  25
ATOM     25  C   UNL     1      -1.848  14.341  20.764  0.00  0.00    +0.000 C 
ATOM     26  C   UNL     1      -3.176  15.087  20.896  0.00  0.00    +0.000 C 
BRANCH  25  27
ATOM     27  C   UNL     1      -1.048  14.348  22.088  0.00  0.00    +0.000 C 
BRANCH  27  29
ATOM     28  C   UNL     1      -1.659  11.907  21.967  0.00  0.00    +0.000 C 
ATOM     29  C   UNL     1      -1.018  13.000  22.809  0.00  0.00    +0.000 C 
ENDBRANCH  27  29
ENDBRANCH  25  27
ENDBRANCH  16  25
ENDBRANCH  14  22
ENDBRANCH   1  14
BRANCH   1  30
ATOM     30  C   UNL     1      -0.431   9.575  17.641  0.00  0.00    +0.000 C 
BRANCH  30  31
ATOM     31  C   UNL     1      -1.792  10.210  17.428  0.00  0.00    +0.000 A 
ATOM     32  C   UNL     1      -2.455  10.888  18.459  0.00  0.00    +0.000 A 
ATOM     33  C   UNL     1      -3.684  11.509  18.223  0.00  0.00    +0.000 A 
ATOM     34  C   UNL     1      -4.264  11.454  16.958  0.00  0.00    +0.000 A 
ATOM     35  C   UNL     1      -3.630  10.757  15.933  0.00  0.00    +0.000 A 
ATOM     36  C   UNL     1      -2.403  10.138  16.167  0.00  0.00    +0.000 A 
ENDBRANCH  30  31
ENDBRANCH   1  30
TORSDOF 10
ENDMDL
MODEL 4
REMARK VINA RESULT:      -7.1      4.332      7.487
REMARK  Name = 
REMARK  13 active torsions:
REMARK  status: ('A' for Active; 'I' for Inactive)
REMARK    1  A    between atoms: C_1  and  C_2
REMARK    2  A    between atoms: C_2  and  C_3
REMARK    3  A    between atoms: C_3  and  C_4
REMARK    4  A    between atoms: C_4  and  C_5
REMARK    5  A    between atoms: C_4  and  N_6
REMARK    6  A    between atoms: C_9  and  C_10
REMARK    7  A    between atoms: C_12  and  N_13
REMARK    8  A    between atoms: N_13  and  C_14
REMARK    9  A    between atoms: C_14  and  C_15
REMARK   10  A    between atoms: C_14  and  C_22
REMARK   11  A    between atoms: C_15  and  C_16
REMARK   12  A    between atoms: N_24  and  C_25
REMARK   13  A    between atoms: C_25  and  C_26
REMARK                            x       y       z     vdW  Elec       q    Type
REMARK                         _______ _______ _______ _____ _____    ______ ____
ROOT
ATOM      1  C   UNL     1       2.922   6.840  18.488  0.00  0.00    +0.000 C 
ENDROOT
BRANCH   1   2
ATOM      2  C   UNL     1       4.388   6.776  17.953  0.00  0.00    +0.000 C 
ATOM      3  O   UNL     1       4.825   7.626  17.168  0.00  0.00    +0.000 OA
ATOM      4  N   UNL     1       5.181   5.755  18.438  0.00  0.00    +0.000 N 
ATOM      5  H   UNL     1       4.823   5.121  19.138  0.00  0.00    +0.000 HD
BRANCH   4   6
ATOM      6  C   UNL     1       6.484   5.461  17.879  0.00  0.00    +0.000 C 
BRANCH   6   7
ATOM      7  C   UNL     1       6.376   4.933  16.474  0.00  0.00    +0.000 A 
ATOM      8  C   UNL     1       5.419   3.954  16.167  0.00  0.00    +0.000 A 
ATOM      9  C   UNL     1       5.312   3.444  14.871  0.00  0.00    +0.000 A 
ATOM     10  C   UNL     1       6.153   3.914  13.865  0.00  0.00    +0.000 A 
ATOM     11  C   UNL     1       7.091   4.895  14.163  0.00  0.00    +0.000 A 
ATOM     12  F   UNL     1       7.897   5.351  13.197  0.00  0.00    +0.000 F 
ATOM     13  C   UNL     1       7.210   5.408  15.453  0.00  0.00    +0.000 A 
ENDBRANCH   6   7
ENDBRANCH   4   6
ENDBRANCH   1   2
BRANCH   1  14
ATOM     14  N   UNL     1       2.368   8.164  18.156  0.00  0.00    +0.000 N 
ATOM     15  H   UNL     1       3.094   8.814  17.854  0.00  0.00    +0.000 HD
BRANCH  14  22
ATOM     16  N   UNL     1      -1.588  10.792  18.683  0.00  0.00    +0.000 N 
ATOM     17  C   UNL     1      -0.528  10.037  19.157  0.00  0.00    +0.000 A 
ATOM     18  N   UNL     1      -0.468  10.009  20.493  0.00  0.00    +0.000 NA
ATOM     19  C   UNL     1       0.566   9.359  21.049  0.00  0.00    +0.000 A 
ATOM     20  C   UNL     1       0.635   9.344  22.545  0.00  0.00    +0.000 C 
ATOM     21  C   UNL     1       1.513   8.720  20.288  0.00  0.00    +0.000 A 
ATOM     22  C   UNL     1       1.363   8.760  18.912  0.00  0.00    +0.000 A 
ATOM     23  N   UNL     1       0.352   9.431  18.337  0.00  0.00    +0.000 NA
ATOM     24  H   UNL     1      -2.196  10.904  19.488  0.00  0.00    +0.000 HD
BRANCH  16  25
ATOM     25  C   UNL     1      -2.234  10.379  17.447  0.00  0.00    +0.000 C 
ATOM     26  C   UNL     1      -2.187  11.543  16.457  0.00  0.00    +0.000 C 
BRANCH  25  27
ATOM     27  C   UNL     1      -3.687   9.981  17.801  0.00  0.00    +0.000 C 
BRANCH  27  29
ATOM     28  C   UNL     1      -5.231  11.706  18.793  0.00  0.00    +0.000 C 
ATOM     29  C   UNL     1      -4.722  11.068  17.510  0.00  0.00    +0.000 C 
ENDBRANCH  27  29
ENDBRANCH  25  27
ENDBRANCH  16  25
ENDBRANCH  14  22
ENDBRANCH   1  14
BRANCH   1  30
ATOM     30  C   UNL     1       2.053   5.718  17.881  0.00  0.00    +0.000 C 
BRANCH  30  31
ATOM     31  C   UNL     1       1.815   4.512  18.770  0.00  0.00    +0.000 A 
ATOM     32  C   UNL     1       1.590   4.648  20.146  0.00  0.00    +0.000 A 
ATOM     33  C   UNL     1       1.321   3.526  20.934  0.00  0.00    +0.000 A 
ATOM     34  C   UNL     1       1.279   2.259  20.356  0.00  0.00    +0.000 A 
ATOM     35  C   UNL     1       1.531   2.108  18.995  0.00  0.00    +0.000 A 
ATOM     36  C   UNL     1       1.799   3.227  18.208  0.00  0.00    +0.000 A 
ENDBRANCH  30  31
ENDBRANCH   1  30
TORSDOF 10
ENDMDL
MODEL 5
REMARK VINA RESULT:      -7.1      3.192      7.235
REMARK  Name = 
REMARK  13 active torsions:
REMARK  status: ('A' for Active; 'I' for Inactive)
REMARK    1  A    between atoms: C_1  and  C_2
REMARK    2  A    between atoms: C_2  and  C_3
REMARK    3  A    between atoms: C_3  and  C_4
REMARK    4  A    between atoms: C_4  and  C_5
REMARK    5  A    between atoms: C_4  and  N_6
REMARK    6  A    between atoms: C_9  and  C_10
REMARK    7  A    between atoms: C_12  and  N_13
REMARK    8  A    between atoms: N_13  and  C_14
REMARK    9  A    between atoms: C_14  and  C_15
REMARK   10  A    between atoms: C_14  and  C_22
REMARK   11  A    between atoms: C_15  and  C_16
REMARK   12  A    between atoms: N_24  and  C_25
REMARK   13  A    between atoms: C_25  and  C_26
REMARK                            x       y       z     vdW  Elec       q    Type
REMARK                         _______ _______ _______ _____ _____    ______ ____
ROOT
ATOM      1  C   UNL     1       0.485   9.601  19.590  0.00  0.00    +0.000 C 
ENDROOT
BRANCH   1   2
ATOM      2  C   UNL     1       1.658   8.726  19.047  0.00  0.00    +0.000 C 
ATOM      3  O   UNL     1       2.253   9.020  18.004  0.00  0.00    +0.000 OA
ATOM      4  N   UNL     1       2.027   7.639  19.815  0.00  0.00    +0.000 N 
ATOM      5  H   UNL     1       1.577   7.465  20.703  0.00  0.00    +0.000 HD
BRANCH   4   6
ATOM      6  C   UNL     1       2.956   6.636  19.335  0.00  0.00    +0.000 C 
BRANCH   6   7
ATOM      7  C   UNL     1       2.341   5.263  19.349  0.00  0.00    +0.000 A 
ATOM      8  C   UNL     1       1.522   4.875  20.420  0.00  0.00    +0.000 A 
ATOM      9  C   UNL     1       0.953   3.599  20.457  0.00  0.00    +0.000 A 
ATOM     10  C   UNL     1       1.187   2.702  19.418  0.00  0.00    +0.000 A 
ATOM     11  C   UNL     1       1.985   3.089  18.348  0.00  0.00    +0.000 A 
ATOM     12  F   UNL     1       2.207   2.230  17.346  0.00  0.00    +0.000 F 
ATOM     13  C   UNL     1       2.562   4.357  18.303  0.00  0.00    +0.000 A 
ENDBRANCH   6   7
ENDBRANCH   4   6
ENDBRANCH   1   2
BRANCH   1  14
ATOM     14  N   UNL     1       0.911  10.200  20.867  0.00  0.00    +0.000 N 
ATOM     15  H   UNL     1       1.103   9.490  21.573  0.00  0.00    +0.000 HD
BRANCH  14  22
ATOM     16  N   UNL     1       0.861  14.866  21.896  0.00  0.00    +0.000 N 
ATOM     17  C   UNL     1       0.317  13.593  21.884  0.00  0.00    +0.000 A 
ATOM     18  N   UNL     1      -0.846  13.519  22.543  0.00  0.00    +0.000 NA
ATOM     19  C   UNL     1      -1.418  12.310  22.647  0.00  0.00    +0.000 A 
ATOM     20  C   UNL     1      -2.712  12.232  23.399  0.00  0.00    +0.000 C 
ATOM     21  C   UNL     1      -0.859  11.192  22.078  0.00  0.00    +0.000 A 
ATOM     22  C   UNL     1       0.326  11.354  21.379  0.00  0.00    +0.000 A 
ATOM     23  N   UNL     1       0.928  12.550  21.291  0.00  0.00    +0.000 NA
ATOM     24  H   UNL     1       0.091  15.465  22.179  0.00  0.00    +0.000 HD
BRANCH  16  25
ATOM     25  C   UNL     1       1.620  15.306  20.736  0.00  0.00    +0.000 C 
ATOM     26  C   UNL     1       2.385  16.577  21.105  0.00  0.00    +0.000 C 
BRANCH  25  27
ATOM     27  C   UNL     1       0.607  15.553  19.593  0.00  0.00    +0.000 C 
BRANCH  27  29
ATOM     28  C   UNL     1      -0.871  17.253  18.463  0.00  0.00    +0.000 C 
ATOM     29  C   UNL     1       0.428  17.026  19.223  0.00  0.00    +0.000 C 
ENDBRANCH  27  29
ENDBRANCH  25  27
ENDBRANCH  16  25
ENDBRANCH  14  22
ENDBRANCH   1  14
BRANCH   1  30
ATOM     30  C   UNL     1       0.088  10.698  18.580  0.00  0.00    +0.000 C 
BRANCH  30  31
ATOM     31  C   UNL     1      -1.364  10.697  18.140  0.00  0.00    +0.000 A 
ATOM     32  C   UNL     1      -2.315  11.529  18.746  0.00  0.00    +0.000 A 
ATOM     33  C   UNL     1      -3.635  11.548  18.287  0.00  0.00    +0.000 A 
ATOM     34  C   UNL     1      -4.017  10.733  17.224  0.00  0.00    +0.000 A 
ATOM     35  C   UNL     1      -3.089   9.880  16.634  0.00  0.00    +0.000 A 
ATOM     36  C   UNL     1      -1.772   9.861  17.090  0.00  0.00    +0.000 A 
ENDBRANCH  30  31
ENDBRANCH   1  30
TORSDOF 10
ENDMDL
MODEL 6
REMARK VINA RESULT:      -7.0      2.883      7.118
REMARK  Name = 
REMARK  13 active torsions:
REMARK  status: ('A' for Active; 'I' for Inactive)
REMARK    1  A    between atoms: C_1  and  C_2
REMARK    2  A    between atoms: C_2  and  C_3
REMARK    3  A    between atoms: C_3  and  C_4
REMARK    4  A    between atoms: C_4  and  C_5
REMARK    5  A    between atoms: C_4  and  N_6
REMARK    6  A    between atoms: C_9  and  C_10
REMARK    7  A    between atoms: C_12  and  N_13
REMARK    8  A    between atoms: N_13  and  C_14
REMARK    9  A    between atoms: C_14  and  C_15
REMARK   10  A    between atoms: C_14  and  C_22
REMARK   11  A    between atoms: C_15  and  C_16
REMARK   12  A    between atoms: N_24  and  C_25
REMARK   13  A    between atoms: C_25  and  C_26
REMARK                            x       y       z     vdW  Elec       q    Type
REMARK                         _______ _______ _______ _____ _____    ______ ____
ROOT
ATOM      1  C   UNL     1       0.131  10.031  18.447  0.00  0.00    +0.000 C 
ENDROOT
BRANCH   1   2
ATOM      2  C   UNL     1       1.469   9.228  18.470  0.00  0.00    +0.000 C 
ATOM      3  O   UNL     1       2.387   9.481  17.682  0.00  0.00    +0.000 OA
ATOM      4  N   UNL     1       1.592   8.258  19.446  0.00  0.00    +0.000 N 
ATOM      5  H   UNL     1       0.859   8.124  20.127  0.00  0.00    +0.000 HD
BRANCH   4   6
ATOM      6  C   UNL     1       2.688   7.310  19.455  0.00  0.00    +0.000 C 
BRANCH   6   7
ATOM      7  C   UNL     1       2.194   5.895  19.326  0.00  0.00    +0.000 A 
ATOM      8  C   UNL     1       2.170   5.276  18.066  0.00  0.00    +0.000 A 
ATOM      9  C   UNL     1       1.703   3.967  17.925  0.00  0.00    +0.000 A 
ATOM     10  C   UNL     1       1.265   3.258  19.041  0.00  0.00    +0.000 A 
ATOM     11  C   UNL     1       1.303   3.863  20.292  0.00  0.00    +0.000 A 
ATOM     12  F   UNL     1       0.887   3.183  21.366  0.00  0.00    +0.000 F 
ATOM     13  C   UNL     1       1.762   5.170  20.444  0.00  0.00    +0.000 A 
ENDBRANCH   6   7
ENDBRANCH   4   6
ENDBRANCH   1   2
BRANCH   1  14
ATOM     14  N   UNL     1       0.437  11.425  18.081  0.00  0.00    +0.000 N 
ATOM     15  H   UNL     1       1.168  11.479  17.371  0.00  0.00    +0.000 HD
BRANCH  14  22
ATOM     16  N   UNL     1       2.024  15.616  19.740  0.00  0.00    +0.000 N 
ATOM     17  C   UNL     1       1.277  14.453  19.821  0.00  0.00    +0.000 A 
ATOM     18  N   UNL     1       0.659  14.313  21.000  0.00  0.00    +0.000 NA
ATOM     19  C   UNL     1      -0.034  13.182  21.200  0.00  0.00    +0.000 A 
ATOM     20  C   UNL     1      -0.712  13.027  22.527  0.00  0.00    +0.000 C 
ATOM     21  C   UNL     1      -0.138  12.214  20.232  0.00  0.00    +0.000 A 
ATOM     22  C   UNL     1       0.498  12.446  19.024  0.00  0.00    +0.000 A 
ATOM     23  N   UNL     1       1.221  13.558  18.816  0.00  0.00    +0.000 NA
ATOM     24  H   UNL     1       1.683  16.186  20.509  0.00  0.00    +0.000 HD
BRANCH  16  25
ATOM     25  C   UNL     1       2.133  16.282  18.451  0.00  0.00    +0.000 C 
ATOM     26  C   UNL     1       3.613  16.494  18.133  0.00  0.00    +0.000 C 
BRANCH  25  27
ATOM     27  C   UNL     1       1.368  17.621  18.562  0.00  0.00    +0.000 C 
BRANCH  27  29
ATOM     28  C   UNL     1       0.392  18.573  16.442  0.00  0.00    +0.000 C 
ATOM     29  C   UNL     1       0.130  17.710  17.668  0.00  0.00    +0.000 C 
ENDBRANCH  27  29
ENDBRANCH  25  27
ENDBRANCH  16  25
ENDBRANCH  14  22
ENDBRANCH   1  14
BRANCH   1  30
ATOM     30  C   UNL     1      -0.876   9.417  17.453  0.00  0.00    +0.000 C 
BRANCH  30  31
ATOM     31  C   UNL     1      -2.173  10.181  17.268  0.00  0.00    +0.000 A 
ATOM     32  C   UNL     1      -2.840  10.768  18.352  0.00  0.00    +0.000 A 
ATOM     33  C   UNL     1      -4.006  11.511  18.148  0.00  0.00    +0.000 A 
ATOM     34  C   UNL     1      -4.518  11.671  16.863  0.00  0.00    +0.000 A 
ATOM     35  C   UNL     1      -3.882  11.068  15.782  0.00  0.00    +0.000 A 
ATOM     36  C   UNL     1      -2.718  10.326  15.983  0.00  0.00    +0.000 A 
ENDBRANCH  30  31
ENDBRANCH   1  30
TORSDOF 10
ENDMDL
MODEL 7
REMARK VINA RESULT:      -7.0      4.306      7.752
REMARK  Name = 
REMARK  13 active torsions:
REMARK  status: ('A' for Active; 'I' for Inactive)
REMARK    1  A    between atoms: C_1  and  C_2
REMARK    2  A    between atoms: C_2  and  C_3
REMARK    3  A    between atoms: C_3  and  C_4
REMARK    4  A    between atoms: C_4  and  C_5
REMARK    5  A    between atoms: C_4  and  N_6
REMARK    6  A    between atoms: C_9  and  C_10
REMARK    7  A    between atoms: C_12  and  N_13
REMARK    8  A    between atoms: N_13  and  C_14
REMARK    9  A    between atoms: C_14  and  C_15
REMARK   10  A    between atoms: C_14  and  C_22
REMARK   11  A    between atoms: C_15  and  C_16
REMARK   12  A    between atoms: N_24  and  C_25
REMARK   13  A    between atoms: C_25  and  C_26
REMARK                            x       y       z     vdW  Elec       q    Type
REMARK                         _______ _______ _______ _____ _____    ______ ____
ROOT
ATOM      1  C   UNL     1       2.714   6.893  18.554  0.00  0.00    +0.000 C 
ENDROOT
BRANCH   1   2
ATOM      2  C   UNL     1       4.199   6.781  18.084  0.00  0.00    +0.000 C 
ATOM      3  O   UNL     1       4.681   7.581  17.274  0.00  0.00    +0.000 OA
ATOM      4  N   UNL     1       4.955   5.776  18.654  0.00  0.00    +0.000 N 
ATOM      5  H   UNL     1       4.559   5.185  19.371  0.00  0.00    +0.000 HD
BRANCH   4   6
ATOM      6  C   UNL     1       6.275   5.434  18.166  0.00  0.00    +0.000 C 
BRANCH   6   7
ATOM      7  C   UNL     1       6.225   4.925  16.751  0.00  0.00    +0.000 A 
ATOM      8  C   UNL     1       5.270   3.963  16.388  0.00  0.00    +0.000 A 
ATOM      9  C   UNL     1       5.217   3.470  15.082  0.00  0.00    +0.000 A 
ATOM     10  C   UNL     1       6.111   3.939  14.122  0.00  0.00    +0.000 A 
ATOM     11  C   UNL     1       7.048   4.902  14.476  0.00  0.00    +0.000 A 
ATOM     12  F   UNL     1       7.904   5.358  13.554  0.00  0.00    +0.000 F 
ATOM     13  C   UNL     1       7.113   5.399  15.776  0.00  0.00    +0.000 A 
ENDBRANCH   6   7
ENDBRANCH   4   6
ENDBRANCH   1   2
BRANCH   1  14
ATOM     14  N   UNL     1       2.199   8.210  18.140  0.00  0.00    +0.000 N 
ATOM     15  H   UNL     1       2.828   8.674  17.485  0.00  0.00    +0.000 HD
BRANCH  14  22
ATOM     16  N   UNL     1       1.064  12.553  19.777  0.00  0.00    +0.000 N 
ATOM     17  C   UNL     1       1.051  11.170  19.819  0.00  0.00    +0.000 A 
ATOM     18  N   UNL     1       0.450  10.690  20.915  0.00  0.00    +0.000 NA
ATOM     19  C   UNL     1       0.447   9.359  21.082  0.00  0.00    +0.000 A 
ATOM     20  C   UNL     1      -0.214   8.830  22.317  0.00  0.00    +0.000 C 
ATOM     21  C   UNL     1       1.008   8.511  20.158  0.00  0.00    +0.000 A 
ATOM     22  C   UNL     1       1.578   9.080  19.031  0.00  0.00    +0.000 A 
ATOM     23  N   UNL     1       1.617  10.411  18.862  0.00  0.00    +0.000 NA
ATOM     24  H   UNL     1       0.372  12.832  20.466  0.00  0.00    +0.000 HD
BRANCH  16  25
ATOM     25  C   UNL     1       0.974  13.208  18.481  0.00  0.00    +0.000 C 
ATOM     26  C   UNL     1       2.330  13.833  18.152  0.00  0.00    +0.000 C 
BRANCH  25  27
ATOM     27  C   UNL     1      -0.144  14.272  18.582  0.00  0.00    +0.000 C 
BRANCH  27  29
ATOM     28  C   UNL     1      -0.440  16.754  18.260  0.00  0.00    +0.000 C 
ATOM     29  C   UNL     1       0.353  15.666  18.969  0.00  0.00    +0.000 C 
ENDBRANCH  27  29
ENDBRANCH  25  27
ENDBRANCH  16  25
ENDBRANCH  14  22
ENDBRANCH   1  14
BRANCH   1  30
ATOM     30  C   UNL     1       1.850   5.760  17.962  0.00  0.00    +0.000 C 
BRANCH  30  31
ATOM     31  C   UNL     1       1.677   4.534  18.839  0.00  0.00    +0.000 A 
ATOM     32  C   UNL     1       1.668   3.241  18.298  0.00  0.00    +0.000 A 
ATOM     33  C   UNL     1       1.560   2.126  19.133  0.00  0.00    +0.000 A 
ATOM     34  C   UNL     1       1.454   2.291  20.512  0.00  0.00    +0.000 A 
ATOM     35  C   UNL     1       1.431   3.571  21.058  0.00  0.00    +0.000 A 
ATOM     36  C   UNL     1       1.540   4.685  20.227  0.00  0.00    +0.000 A 
ENDBRANCH  30  31
ENDBRANCH   1  30
TORSDOF 10
ENDMDL
MODEL 8
REMARK VINA RESULT:      -7.0      4.311      7.932
REMARK  Name = 
REMARK  13 active torsions:
REMARK  status: ('A' for Active; 'I' for Inactive)
REMARK    1  A    between atoms: C_1  and  C_2
REMARK    2  A    between atoms: C_2  and  C_3
REMARK    3  A    between atoms: C_3  and  C_4
REMARK    4  A    between atoms: C_4  and  C_5
REMARK    5  A    between atoms: C_4  and  N_6
REMARK    6  A    between atoms: C_9  and  C_10
REMARK    7  A    between atoms: C_12  and  N_13
REMARK    8  A    between atoms: N_13  and  C_14
REMARK    9  A    between atoms: C_14  and  C_15
REMARK   10  A    between atoms: C_14  and  C_22
REMARK   11  A    between atoms: C_15  and  C_16
REMARK   12  A    between atoms: N_24  and  C_25
REMARK   13  A    between atoms: C_25  and  C_26
REMARK                            x       y       z     vdW  Elec       q    Type
REMARK                         _______ _______ _______ _____ _____    ______ ____
ROOT
ATOM      1  C   UNL     1       2.875   7.508  17.662  0.00  0.00    +0.000 C 
ENDROOT
BRANCH   1   2
ATOM      2  C   UNL     1       2.183   8.893  17.866  0.00  0.00    +0.000 C 
ATOM      3  O   UNL     1       2.713   9.941  17.481  0.00  0.00    +0.000 OA
ATOM      4  N   UNL     1       0.933   8.880  18.453  0.00  0.00    +0.000 N 
ATOM      5  H   UNL     1       0.489   8.004  18.688  0.00  0.00    +0.000 HD
BRANCH   4   6
ATOM      6  C   UNL     1       0.272  10.096  18.882  0.00  0.00    +0.000 C 
BRANCH   6   7
ATOM      7  C   UNL     1      -0.006  10.080  20.361  0.00  0.00    +0.000 A 
ATOM      8  C   UNL     1       0.054   8.870  21.071  0.00  0.00    +0.000 A 
ATOM      9  C   UNL     1      -0.213   8.835  22.441  0.00  0.00    +0.000 A 
ATOM     10  C   UNL     1      -0.533  10.008  23.120  0.00  0.00    +0.000 A 
ATOM     11  C   UNL     1      -0.578  11.209  22.423  0.00  0.00    +0.000 A 
ATOM     12  F   UNL     1      -0.880  12.339  23.074  0.00  0.00    +0.000 F 
ATOM     13  C   UNL     1      -0.318  11.257  21.055  0.00  0.00    +0.000 A 
ENDBRANCH   6   7
ENDBRANCH   4   6
ENDBRANCH   1   2
BRANCH   1  14
ATOM     14  N   UNL     1       4.162   7.733  16.981  0.00  0.00    +0.000 N 
ATOM     15  H   UNL     1       4.049   8.280  16.128  0.00  0.00    +0.000 HD
BRANCH  14  22
ATOM     16  N   UNL     1       6.190   3.918  14.941  0.00  0.00    +0.000 N 
ATOM     17  C   UNL     1       6.095   4.902  15.910  0.00  0.00    +0.000 A 
ATOM     18  N   UNL     1       7.004   4.762  16.882  0.00  0.00    +0.000 NA
ATOM     19  C   UNL     1       6.948   5.628  17.905  0.00  0.00    +0.000 A 
ATOM     20  C   UNL     1       7.959   5.457  18.997  0.00  0.00    +0.000 C 
ATOM     21  C   UNL     1       6.020   6.640  17.948  0.00  0.00    +0.000 A 
ATOM     22  C   UNL     1       5.136   6.744  16.887  0.00  0.00    +0.000 A 
ATOM     23  N   UNL     1       5.158   5.868  15.870  0.00  0.00    +0.000 NA
ATOM     24  H   UNL     1       7.105   3.504  15.092  0.00  0.00    +0.000 HD
BRANCH  16  25
ATOM     25  C   UNL     1       5.867   4.265  13.566  0.00  0.00    +0.000 C 
ATOM     26  C   UNL     1       4.493   3.686  13.224  0.00  0.00    +0.000 C 
BRANCH  25  27
ATOM     27  C   UNL     1       6.981   3.675  12.670  0.00  0.00    +0.000 C 
BRANCH  27  29
ATOM     28  C   UNL     1       7.542   1.813  11.068  0.00  0.00    +0.000 C 
ATOM     29  C   UNL     1       6.469   2.783  11.539  0.00  0.00    +0.000 C 
ENDBRANCH  27  29
ENDBRANCH  25  27
ENDBRANCH  16  25
ENDBRANCH  14  22
ENDBRANCH   1  14
BRANCH   1  30
ATOM     30  C   UNL     1       3.089   6.782  19.006  0.00  0.00    +0.000 C 
BRANCH  30  31
ATOM     31  C   UNL     1       2.339   5.476  19.180  0.00  0.00    +0.000 A 
ATOM     32  C   UNL     1       1.854   5.068  20.430  0.00  0.00    +0.000 A 
ATOM     33  C   UNL     1       1.121   3.885  20.554  0.00  0.00    +0.000 A 
ATOM     34  C   UNL     1       0.869   3.097  19.433  0.00  0.00    +0.000 A 
ATOM     35  C   UNL     1       1.372   3.475  18.191  0.00  0.00    +0.000 A 
ATOM     36  C   UNL     1       2.103   4.656  18.066  0.00  0.00    +0.000 A 
ENDBRANCH  30  31
ENDBRANCH   1  30
TORSDOF 10
ENDMDL
MODEL 9
REMARK VINA RESULT:      -6.9      2.618      7.024
REMARK  Name = 
REMARK  13 active torsions:
REMARK  status: ('A' for Active; 'I' for Inactive)
REMARK    1  A    between atoms: C_1  and  C_2
REMARK    2  A    between atoms: C_2  and  C_3
REMARK    3  A    between atoms: C_3  and  C_4
REMARK    4  A    between atoms: C_4  and  C_5
REMARK    5  A    between atoms: C_4  and  N_6
REMARK    6  A    between atoms: C_9  and  C_10
REMARK    7  A    between atoms: C_12  and  N_13
REMARK    8  A    between atoms: N_13  and  C_14
REMARK    9  A    between atoms: C_14  and  C_15
REMARK   10  A    between atoms: C_14  and  C_22
REMARK   11  A    between atoms: C_15  and  C_16
REMARK   12  A    between atoms: N_24  and  C_25
REMARK   13  A    between atoms: C_25  and  C_26
REMARK                            x       y       z     vdW  Elec       q    Type
REMARK                         _______ _______ _______ _____ _____    ______ ____
ROOT
ATOM      1  C   UNL     1       0.682   9.851  18.800  0.00  0.00    +0.000 C 
ENDROOT
BRANCH   1   2
ATOM      2  C   UNL     1       1.500  11.176  18.680  0.00  0.00    +0.000 C 
ATOM      3  O   UNL     1       2.364  11.323  17.809  0.00  0.00    +0.000 OA
ATOM      4  N   UNL     1       1.174  12.187  19.564  0.00  0.00    +0.000 N 
ATOM      5  H   UNL     1       0.410  12.068  20.214  0.00  0.00    +0.000 HD
BRANCH   4   6
ATOM      6  C   UNL     1       1.980  13.383  19.696  0.00  0.00    +0.000 C 
BRANCH   6   7
ATOM      7  C   UNL     1       1.171  14.625  19.434  0.00  0.00    +0.000 A 
ATOM      8  C   UNL     1       1.735  15.687  18.712  0.00  0.00    +0.000 A 
ATOM      9  C   UNL     1       1.004  16.852  18.470  0.00  0.00    +0.000 A 
ATOM     10  C   UNL     1      -0.303  16.964  18.938  0.00  0.00    +0.000 A 
ATOM     11  C   UNL     1      -0.870  15.908  19.640  0.00  0.00    +0.000 A 
ATOM     12  F   UNL     1      -2.127  16.011  20.086  0.00  0.00    +0.000 F 
ATOM     13  C   UNL     1      -0.148  14.742  19.891  0.00  0.00    +0.000 A 
ENDBRANCH   6   7
ENDBRANCH   4   6
ENDBRANCH   1   2
BRANCH   1  14
ATOM     14  N   UNL     1       1.392   8.954  19.728  0.00  0.00    +0.000 N 
ATOM     15  H   UNL     1       1.863   9.472  20.470  0.00  0.00    +0.000 HD
BRANCH  14  22
ATOM     16  N   UNL     1       2.991   4.473  20.165  0.00  0.00    +0.000 N 
ATOM     17  C   UNL     1       2.875   5.690  19.516  0.00  0.00    +0.000 A 
ATOM     18  N   UNL     1       3.631   5.765  18.414  0.00  0.00    +0.000 NA
ATOM     19  C   UNL     1       3.640   6.932  17.753  0.00  0.00    +0.000 A 
ATOM     20  C   UNL     1       4.500   7.014  16.529  0.00  0.00    +0.000 C 
ATOM     21  C   UNL     1       2.885   8.003  18.163  0.00  0.00    +0.000 A 
ATOM     22  C   UNL     1       2.098   7.838  19.291  0.00  0.00    +0.000 A 
ATOM     23  N   UNL     1       2.100   6.688  19.982  0.00  0.00    +0.000 NA
ATOM     24  H   UNL     1       3.420   3.861  19.477  0.00  0.00    +0.000 HD
BRANCH  16  25
ATOM     25  C   UNL     1       1.826   3.940  20.854  0.00  0.00    +0.000 C 
ATOM     26  C   UNL     1       2.278   2.814  21.784  0.00  0.00    +0.000 C 
BRANCH  25  27
ATOM     27  C   UNL     1       0.845   3.435  19.769  0.00  0.00    +0.000 C 
BRANCH  27  29
ATOM     28  C   UNL     1       2.153   2.282  17.950  0.00  0.00    +0.000 C 
ATOM     29  C   UNL     1       1.235   2.093  19.149  0.00  0.00    +0.000 C 
ENDBRANCH  27  29
ENDBRANCH  25  27
ENDBRANCH  16  25
ENDBRANCH  14  22
ENDBRANCH   1  14
BRANCH   1  30
ATOM     30  C   UNL     1      -0.755  10.120  19.294  0.00  0.00    +0.000 C 
BRANCH  30  31
ATOM     31  C   UNL     1      -1.786  10.388  18.215  0.00  0.00    +0.000 A 
ATOM     32  C   UNL     1      -2.831  11.302  18.410  0.00  0.00    +0.000 A 
ATOM     33  C   UNL     1      -3.738  11.570  17.381  0.00  0.00    +0.000 A 
ATOM     34  C   UNL     1      -3.613  10.925  16.152  0.00  0.00    +0.000 A 
ATOM     35  C   UNL     1      -2.599   9.992  15.957  0.00  0.00    +0.000 A 
ATOM     36  C   UNL     1      -1.692   9.724  16.983  0.00  0.00    +0.000 A 
ENDBRANCH  30  31
ENDBRANCH   1  30
TORSDOF 10
ENDMDL
