MODEL 1
REMARK VINA RESULT:      -6.9      0.000      0.000
REMARK  Name = 
REMARK  6 active torsions:
REMARK  status: ('A' for Active; 'I' for Inactive)
REMARK    1  A    between atoms: C_2  and  C_3
REMARK    2  A    between atoms: C_3  and  N_4
REMARK    3  A    between atoms: N_6  and  C_7
REMARK    4  A    between atoms: N_16  and  C_17
REMARK    5  A    between atoms: C_17  and  C_18
REMARK    6  A    between atoms: C_17  and  C_24
REMARK                            x       y       z     vdW  Elec       q    Type
REMARK                         _______ _______ _______ _____ _____    ______ ____
ROOT
ATOM      1  N   UNL     1       3.671  15.654  20.777  0.00  0.00    +0.000 N 
ATOM      2  C   UNL     1       2.960  16.858  20.481  0.00  0.00    +0.000 C 
ATOM      3  N   UNL     1       1.700  16.397  19.902  0.00  0.00    +0.000 N 
ATOM      4  C   UNL     1       1.476  14.964  20.306  0.00  0.00    +0.000 C 
ATOM      5  C   UNL     1       1.188  13.974  19.186  0.00  0.00    +0.000 C 
ATOM      6  C   UNL     1      -0.254  14.012  18.729  0.00  0.00    +0.000 C 
ATOM      7  N   UNL     1      -1.263  13.972  19.804  0.00  0.00    +0.000 NA
ATOM      8  C   UNL     1      -0.944  14.830  20.976  0.00  0.00    +0.000 C 
ATOM      9  C   UNL     1       0.492  14.797  21.455  0.00  0.00    +0.000 C 
ATOM     10  C   UNL     1       2.857  14.552  20.853  0.00  0.00    +0.000 C 
ATOM     11  O   UNL     1       3.189  13.441  21.250  0.00  0.00    +0.000 OA
ENDROOT
BRANCH   3  12
ATOM     12  C   UNL     1       1.117  17.109  18.859  0.00  0.00    +0.000 A 
ATOM     13  C   UNL     1       1.817  17.475  17.701  0.00  0.00    +0.000 A 
ATOM     14  C   UNL     1       1.214  18.151  16.624  0.00  0.00    +0.000 A 
ATOM     15  C   UNL     1      -0.132  18.478  16.652  0.00  0.00    +0.000 A 
ATOM     16  C   UNL     1      -0.856  18.175  17.783  0.00  0.00    +0.000 A 
ATOM     17  C   UNL     1      -0.219  17.543  18.862  0.00  0.00    +0.000 A 
ENDBRANCH   3  12
BRANCH   1  18
ATOM     18  C   UNL     1       5.084  15.634  21.055  0.00  0.00    +0.000 C 
BRANCH  18  20
ATOM     19  C   UNL     1       6.314  17.758  20.030  0.00  0.00    +0.000 C 
ATOM     20  C   UNL     1       5.757  16.803  20.489  0.00  0.00    +0.000 C 
ENDBRANCH  18  20
ENDBRANCH   1  18
BRANCH   7  21
ATOM     21  C   UNL     1      -1.578  12.582  20.231  0.00  0.00    +0.000 C 
BRANCH  21  22
ATOM     22  C   UNL     1      -2.686  12.590  21.292  0.00  0.00    +0.000 A 
ATOM     23  C   UNL     1      -3.905  13.262  21.078  0.00  0.00    +0.000 A 
ATOM     24  C   UNL     1      -4.820  13.431  22.113  0.00  0.00    +0.000 A 
ATOM     25  C   UNL     1      -4.517  12.954  23.385  0.00  0.00    +0.000 A 
ATOM     26  C   UNL     1      -3.313  12.289  23.617  0.00  0.00    +0.000 A 
ATOM     27  C   UNL     1      -2.408  12.094  22.576  0.00  0.00    +0.000 A 
ENDBRANCH  21  22
BRANCH  21  28
ATOM     28  C   UNL     1      -1.897  11.622  19.081  0.00  0.00    +0.000 A 
ATOM     29  C   UNL     1      -3.165  11.676  18.475  0.00  0.00    +0.000 A 
ATOM     30  C   UNL     1      -3.483  10.835  17.408  0.00  0.00    +0.000 A 
ATOM     31  C   UNL     1      -2.538   9.933  16.925  0.00  0.00    +0.000 A 
ATOM     32  C   UNL     1      -1.295   9.832  17.543  0.00  0.00    +0.000 A 
ATOM     33  C   UNL     1      -0.987  10.652  18.628  0.00  0.00    +0.000 A 
ENDBRANCH  21  28
ENDBRANCH   7  21
TORSDOF 6
ENDMDL
MODEL 2
REMARK VINA RESULT:      -6.8      0.567      1.356
REMARK  Name = 
REMARK  6 active torsions:
REMARK  status: ('A' for Active; 'I' for Inactive)
REMARK    1  A    between atoms: C_2  and  C_3
REMARK    2  A    between atoms: C_3  and  N_4
REMARK    3  A    between atoms: N_6  and  C_7
REMARK    4  A    between atoms: N_16  and  C_17
REMARK    5  A    between atoms: C_17  and  C_18
REMARK    6  A    between atoms: C_17  and  C_24
REMARK                            x       y       z     vdW  Elec       q    Type
REMARK                         _______ _______ _______ _____ _____    ______ ____
ROOT
ATOM      1  N   UNL     1       3.650  15.608  20.871  0.00  0.00    +0.000 N 
ATOM      2  C   UNL     1       2.938  16.808  20.563  0.00  0.00    +0.000 C 
ATOM      3  N   UNL     1       1.697  16.339  19.949  0.00  0.00    +0.000 N 
ATOM      4  C   UNL     1       1.474  14.903  20.340  0.00  0.00    +0.000 C 
ATOM      5  C   UNL     1       1.223  13.916  19.209  0.00  0.00    +0.000 C 
ATOM      6  C   UNL     1      -0.207  13.945  18.715  0.00  0.00    +0.000 C 
ATOM      7  N   UNL     1      -1.243  13.892  19.762  0.00  0.00    +0.000 NA
ATOM      8  C   UNL     1      -0.961  14.747  20.947  0.00  0.00    +0.000 C 
ATOM      9  C   UNL     1       0.462  14.724  21.463  0.00  0.00    +0.000 C 
ATOM     10  C   UNL     1       2.844  14.499  20.921  0.00  0.00    +0.000 C 
ATOM     11  O   UNL     1       3.174  13.389  21.322  0.00  0.00    +0.000 OA
ENDROOT
BRANCH   3  12
ATOM     12  C   UNL     1       1.136  17.052  18.895  0.00  0.00    +0.000 A 
ATOM     13  C   UNL     1      -0.178  17.540  18.919  0.00  0.00    +0.000 A 
ATOM     14  C   UNL     1      -0.730  18.305  17.874  0.00  0.00    +0.000 A 
ATOM     15  C   UNL     1       0.022  18.631  16.756  0.00  0.00    +0.000 A 
ATOM     16  C   UNL     1       1.305  18.144  16.666  0.00  0.00    +0.000 A 
ATOM     17  C   UNL     1       1.816  17.344  17.700  0.00  0.00    +0.000 A 
ENDBRANCH   3  12
BRANCH   1  18
ATOM     18  C   UNL     1       5.056  15.598  21.186  0.00  0.00    +0.000 C 
BRANCH  18  20
ATOM     19  C   UNL     1       5.612  17.198  23.237  0.00  0.00    +0.000 C 
ATOM     20  C   UNL     1       5.358  16.480  22.313  0.00  0.00    +0.000 C 
ENDBRANCH  18  20
ENDBRANCH   1  18
BRANCH   7  21
ATOM     21  C   UNL     1      -1.558  12.498  20.175  0.00  0.00    +0.000 C 
BRANCH  21  22
ATOM     22  C   UNL     1      -2.603  12.499  21.298  0.00  0.00    +0.000 A 
ATOM     23  C   UNL     1      -3.834  13.168  21.157  0.00  0.00    +0.000 A 
ATOM     24  C   UNL     1      -4.688  13.330  22.244  0.00  0.00    +0.000 A 
ATOM     25  C   UNL     1      -4.312  12.849  23.494  0.00  0.00    +0.000 A 
ATOM     26  C   UNL     1      -3.095  12.186  23.654  0.00  0.00    +0.000 A 
ATOM     27  C   UNL     1      -2.251  11.998  22.562  0.00  0.00    +0.000 A 
ENDBRANCH  21  22
BRANCH  21  28
ATOM     28  C   UNL     1      -1.960  11.571  19.024  0.00  0.00    +0.000 A 
ATOM     29  C   UNL     1      -1.042  10.608  18.568  0.00  0.00    +0.000 A 
ATOM     30  C   UNL     1      -1.382   9.729  17.539  0.00  0.00    +0.000 A 
ATOM     31  C   UNL     1      -2.645   9.792  16.956  0.00  0.00    +0.000 A 
ATOM     32  C   UNL     1      -3.549  10.769  17.362  0.00  0.00    +0.000 A 
ATOM     33  C   UNL     1      -3.199  11.667  18.370  0.00  0.00    +0.000 A 
ENDBRANCH  21  28
ENDBRANCH   7  21
TORSDOF 6
ENDMDL
MODEL 3
REMARK VINA RESULT:      -6.8      0.397      1.494
REMARK  Name = 
REMARK  6 active torsions:
REMARK  status: ('A' for Active; 'I' for Inactive)
REMARK    1  A    between atoms: C_2  and  C_3
REMARK    2  A    between atoms: C_3  and  N_4
REMARK    3  A    between atoms: N_6  and  C_7
REMARK    4  A    between atoms: N_16  and  C_17
REMARK    5  A    between atoms: C_17  and  C_18
REMARK    6  A    between atoms: C_17  and  C_24
REMARK                            x       y       z     vdW  Elec       q    Type
REMARK                         _______ _______ _______ _____ _____    ______ ____
ROOT
ATOM      1  N   UNL     1       3.801  15.673  20.814  0.00  0.00    +0.000 N 
ATOM      2  C   UNL     1       3.137  16.882  20.443  0.00  0.00    +0.000 C 
ATOM      3  N   UNL     1       1.877  16.432  19.854  0.00  0.00    +0.000 N 
ATOM      4  C   UNL     1       1.597  15.029  20.322  0.00  0.00    +0.000 C 
ATOM      5  C   UNL     1       1.304  13.993  19.245  0.00  0.00    +0.000 C 
ATOM      6  C   UNL     1      -0.124  14.053  18.750  0.00  0.00    +0.000 C 
ATOM      7  N   UNL     1      -1.159  14.098  19.799  0.00  0.00    +0.000 NA
ATOM      8  C   UNL     1      -0.840  15.002  20.936  0.00  0.00    +0.000 C 
ATOM      9  C   UNL     1       0.581  14.949  21.452  0.00  0.00    +0.000 C 
ATOM     10  C   UNL     1       2.951  14.601  20.924  0.00  0.00    +0.000 C 
ATOM     11  O   UNL     1       3.238  13.501  21.382  0.00  0.00    +0.000 OA
ENDROOT
BRANCH   3  12
ATOM     12  C   UNL     1       1.342  17.109  18.764  0.00  0.00    +0.000 A 
ATOM     13  C   UNL     1       0.080  17.718  18.789  0.00  0.00    +0.000 A 
ATOM     14  C   UNL     1      -0.441  18.447  17.703  0.00  0.00    +0.000 A 
ATOM     15  C   UNL     1       0.294  18.613  16.540  0.00  0.00    +0.000 A 
ATOM     16  C   UNL     1       1.524  18.003  16.450  0.00  0.00    +0.000 A 
ATOM     17  C   UNL     1       1.999  17.242  17.529  0.00  0.00    +0.000 A 
ENDBRANCH   3  12
BRANCH   1  18
ATOM     18  C   UNL     1       5.206  15.623  21.129  0.00  0.00    +0.000 C 
BRANCH  18  20
ATOM     19  C   UNL     1       6.682  16.605  19.145  0.00  0.00    +0.000 C 
ATOM     20  C   UNL     1       6.017  16.167  20.040  0.00  0.00    +0.000 C 
ENDBRANCH  18  20
ENDBRANCH   1  18
BRANCH   7  21
ATOM     21  C   UNL     1      -1.529  12.741  20.286  0.00  0.00    +0.000 C 
BRANCH  21  22
ATOM     22  C   UNL     1      -2.524  12.845  21.448  0.00  0.00    +0.000 A 
ATOM     23  C   UNL     1      -2.298  12.188  22.672  0.00  0.00    +0.000 A 
ATOM     24  C   UNL     1      -3.291  12.126  23.645  0.00  0.00    +0.000 A 
ATOM     25  C   UNL     1      -4.535  12.696  23.397  0.00  0.00    +0.000 A 
ATOM     26  C   UNL     1      -4.780  13.349  22.189  0.00  0.00    +0.000 A 
ATOM     27  C   UNL     1      -3.778  13.437  21.225  0.00  0.00    +0.000 A 
ENDBRANCH  21  22
BRANCH  21  28
ATOM     28  C   UNL     1      -2.026  11.789  19.194  0.00  0.00    +0.000 A 
ATOM     29  C   UNL     1      -1.160  10.797  18.702  0.00  0.00    +0.000 A 
ATOM     30  C   UNL     1      -1.586   9.896  17.727  0.00  0.00    +0.000 A 
ATOM     31  C   UNL     1      -2.887   9.966  17.233  0.00  0.00    +0.000 A 
ATOM     32  C   UNL     1      -3.743  10.970  17.673  0.00  0.00    +0.000 A 
ATOM     33  C   UNL     1      -3.308  11.890  18.627  0.00  0.00    +0.000 A 
ENDBRANCH  21  28
ENDBRANCH   7  21
TORSDOF 6
ENDMDL
MODEL 4
REMARK VINA RESULT:      -6.7      2.205      7.523
REMARK  Name = 
REMARK  6 active torsions:
REMARK  status: ('A' for Active; 'I' for Inactive)
REMARK    1  A    between atoms: C_2  and  C_3
REMARK    2  A    between atoms: C_3  and  N_4
REMARK    3  A    between atoms: N_6  and  C_7
REMARK    4  A    between atoms: N_16  and  C_17
REMARK    5  A    between atoms: C_17  and  C_18
REMARK    6  A    between atoms: C_17  and  C_24
REMARK                            x       y       z     vdW  Elec       q    Type
REMARK                         _______ _______ _______ _____ _____    ______ ____
ROOT
ATOM      1  N   UNL     1       1.374  10.219  18.341  0.00  0.00    +0.000 N 
ATOM      2  C   UNL     1       0.053  10.186  18.884  0.00  0.00    +0.000 C 
ATOM      3  N   UNL     1      -0.045  11.420  19.661  0.00  0.00    +0.000 N 
ATOM      4  C   UNL     1       1.008  12.381  19.180  0.00  0.00    +0.000 C 
ATOM      5  C   UNL     1       1.926  12.978  20.238  0.00  0.00    +0.000 C 
ATOM      6  C   UNL     1       1.290  14.133  20.979  0.00  0.00    +0.000 C 
ATOM      7  N   UNL     1       0.650  15.156  20.132  0.00  0.00    +0.000 NA
ATOM      8  C   UNL     1      -0.148  14.606  19.004  0.00  0.00    +0.000 C 
ATOM      9  C   UNL     1       0.476  13.456  18.244  0.00  0.00    +0.000 C 
ATOM     10  C   UNL     1       1.922  11.477  18.329  0.00  0.00    +0.000 C 
ATOM     11  O   UNL     1       2.964  11.800  17.772  0.00  0.00    +0.000 OA
ENDROOT
BRANCH   3  12
ATOM     12  C   UNL     1      -0.747  11.427  20.861  0.00  0.00    +0.000 A 
ATOM     13  C   UNL     1      -0.398  10.621  21.954  0.00  0.00    +0.000 A 
ATOM     14  C   UNL     1      -1.076  10.664  23.186  0.00  0.00    +0.000 A 
ATOM     15  C   UNL     1      -2.134  11.537  23.385  0.00  0.00    +0.000 A 
ATOM     16  C   UNL     1      -2.542  12.323  22.333  0.00  0.00    +0.000 A 
ATOM     17  C   UNL     1      -1.878  12.226  21.099  0.00  0.00    +0.000 A 
ENDBRANCH   3  12
BRANCH   1  18
ATOM     18  C   UNL     1       2.013   9.055  17.781  0.00  0.00    +0.000 C 
BRANCH  18  20
ATOM     19  C   UNL     1       2.281   7.121  19.588  0.00  0.00    +0.000 C 
ATOM     20  C   UNL     1       2.159   7.995  18.778  0.00  0.00    +0.000 C 
ENDBRANCH  18  20
ENDBRANCH   1  18
BRANCH   7  21
ATOM     21  C   UNL     1       1.619  16.178  19.650  0.00  0.00    +0.000 C 
BRANCH  21  22
ATOM     22  C   UNL     1       0.925  17.165  18.703  0.00  0.00    +0.000 A 
ATOM     23  C   UNL     1      -0.445  17.461  18.825  0.00  0.00    +0.000 A 
ATOM     24  C   UNL     1      -1.107  18.200  17.848  0.00  0.00    +0.000 A 
ATOM     25  C   UNL     1      -0.413  18.629  16.720  0.00  0.00    +0.000 A 
ATOM     26  C   UNL     1       0.944  18.341  16.581  0.00  0.00    +0.000 A 
ATOM     27  C   UNL     1       1.615  17.627  17.571  0.00  0.00    +0.000 A 
ENDBRANCH  21  22
BRANCH  21  28
ATOM     28  C   UNL     1       2.386  16.899  20.763  0.00  0.00    +0.000 A 
ATOM     29  C   UNL     1       1.679  17.713  21.665  0.00  0.00    +0.000 A 
ATOM     30  C   UNL     1       2.340  18.365  22.707  0.00  0.00    +0.000 A 
ATOM     31  C   UNL     1       3.714  18.208  22.868  0.00  0.00    +0.000 A 
ATOM     32  C   UNL     1       4.437  17.445  21.957  0.00  0.00    +0.000 A 
ATOM     33  C   UNL     1       3.782  16.817  20.898  0.00  0.00    +0.000 A 
ENDBRANCH  21  28
ENDBRANCH   7  21
TORSDOF 6
ENDMDL
MODEL 5
REMARK VINA RESULT:      -6.7      2.162      7.607
REMARK  Name = 
REMARK  6 active torsions:
REMARK  status: ('A' for Active; 'I' for Inactive)
REMARK    1  A    between atoms: C_2  and  C_3
REMARK    2  A    between atoms: C_3  and  N_4
REMARK    3  A    between atoms: N_6  and  C_7
REMARK    4  A    between atoms: N_16  and  C_17
REMARK    5  A    between atoms: C_17  and  C_18
REMARK    6  A    between atoms: C_17  and  C_24
REMARK                            x       y       z     vdW  Elec       q    Type
REMARK                         _______ _______ _______ _____ _____    ______ ____
ROOT
ATOM      1  N   UNL     1       1.255  10.129  18.400  0.00  0.00    +0.000 N 
ATOM      2  C   UNL     1      -0.056  10.153  18.968  0.00  0.00    +0.000 C 
ATOM      3  N   UNL     1      -0.103  11.414  19.704  0.00  0.00    +0.000 N 
ATOM      4  C   UNL     1       0.969  12.327  19.172  0.00  0.00    +0.000 C 
ATOM      5  C   UNL     1       1.923  12.931  20.194  0.00  0.00    +0.000 C 
ATOM      6  C   UNL     1       1.335  14.129  20.906  0.00  0.00    +0.000 C 
ATOM      7  N   UNL     1       0.709  15.142  20.037  0.00  0.00    +0.000 NA
ATOM      8  C   UNL     1      -0.125  14.579  18.942  0.00  0.00    +0.000 C 
ATOM      9  C   UNL     1       0.451  13.386  18.210  0.00  0.00    +0.000 C 
ATOM     10  C   UNL     1       1.840  11.368  18.336  0.00  0.00    +0.000 C 
ATOM     11  O   UNL     1       2.881  11.642  17.751  0.00  0.00    +0.000 OA
ENDROOT
BRANCH   3  12
ATOM     12  C   UNL     1      -0.782  11.482  20.916  0.00  0.00    +0.000 A 
ATOM     13  C   UNL     1      -1.882  12.326  21.127  0.00  0.00    +0.000 A 
ATOM     14  C   UNL     1      -2.602  12.358  22.336  0.00  0.00    +0.000 A 
ATOM     15  C   UNL     1      -2.258  11.527  23.391  0.00  0.00    +0.000 A 
ATOM     16  C   UNL     1      -1.163  10.707  23.249  0.00  0.00    +0.000 A 
ATOM     17  C   UNL     1      -0.434  10.729  22.049  0.00  0.00    +0.000 A 
ENDBRANCH   3  12
BRANCH   1  18
ATOM     18  C   UNL     1       1.850   8.928  17.870  0.00  0.00    +0.000 C 
BRANCH  18  20
ATOM     19  C   UNL     1       2.274   7.121  19.775  0.00  0.00    +0.000 C 
ATOM     20  C   UNL     1       2.084   7.938  18.920  0.00  0.00    +0.000 C 
ENDBRANCH  18  20
ENDBRANCH   1  18
BRANCH   7  21
ATOM     21  C   UNL     1       1.699  16.117  19.504  0.00  0.00    +0.000 C 
BRANCH  21  22
ATOM     22  C   UNL     1       1.007  17.126  18.578  0.00  0.00    +0.000 A 
ATOM     23  C   UNL     1      -0.337  17.498  18.769  0.00  0.00    +0.000 A 
ATOM     24  C   UNL     1      -1.012  18.256  17.817  0.00  0.00    +0.000 A 
ATOM     25  C   UNL     1      -0.360  18.631  16.646  0.00  0.00    +0.000 A 
ATOM     26  C   UNL     1       0.971  18.269  16.438  0.00  0.00    +0.000 A 
ATOM     27  C   UNL     1       1.657  17.534  17.402  0.00  0.00    +0.000 A 
ENDBRANCH  21  22
BRANCH  21  28
ATOM     28  C   UNL     1       2.544  16.814  20.575  0.00  0.00    +0.000 A 
ATOM     29  C   UNL     1       3.930  16.583  20.611  0.00  0.00    +0.000 A 
ATOM     30  C   UNL     1       4.735  17.220  21.556  0.00  0.00    +0.000 A 
ATOM     31  C   UNL     1       4.170  18.102  22.473  0.00  0.00    +0.000 A 
ATOM     32  C   UNL     1       2.794  18.306  22.484  0.00  0.00    +0.000 A 
ATOM     33  C   UNL     1       1.984  17.647  21.558  0.00  0.00    +0.000 A 
ENDBRANCH  21  28
ENDBRANCH   7  21
TORSDOF 6
ENDMDL
MODEL 6
REMARK VINA RESULT:      -6.5      2.554      4.431
REMARK  Name = 
REMARK  6 active torsions:
REMARK  status: ('A' for Active; 'I' for Inactive)
REMARK    1  A    between atoms: C_2  and  C_3
REMARK    2  A    between atoms: C_3  and  N_4
REMARK    3  A    between atoms: N_6  and  C_7
REMARK    4  A    between atoms: N_16  and  C_17
REMARK    5  A    between atoms: C_17  and  C_18
REMARK    6  A    between atoms: C_17  and  C_24
REMARK                            x       y       z     vdW  Elec       q    Type
REMARK                         _______ _______ _______ _____ _____    ______ ____
ROOT
ATOM      1  N   UNL     1       0.104  16.729  22.002  0.00  0.00    +0.000 N 
ATOM      2  C   UNL     1       0.781  17.186  20.829  0.00  0.00    +0.000 C 
ATOM      3  N   UNL     1       1.206  15.958  20.161  0.00  0.00    +0.000 N 
ATOM      4  C   UNL     1       0.370  14.814  20.670  0.00  0.00    +0.000 C 
ATOM      5  C   UNL     1       1.120  13.595  21.189  0.00  0.00    +0.000 C 
ATOM      6  C   UNL     1       1.591  12.683  20.078  0.00  0.00    +0.000 C 
ATOM      7  N   UNL     1       0.579  12.343  19.062  0.00  0.00    +0.000 NA
ATOM      8  C   UNL     1      -0.264  13.490  18.629  0.00  0.00    +0.000 C 
ATOM      9  C   UNL     1      -0.754  14.408  19.728  0.00  0.00    +0.000 C 
ATOM     10  C   UNL     1      -0.305  15.423  21.916  0.00  0.00    +0.000 C 
ATOM     11  O   UNL     1      -1.042  14.847  22.708  0.00  0.00    +0.000 OA
ENDROOT
BRANCH   3  12
ATOM     12  C   UNL     1       2.431  15.916  19.505  0.00  0.00    +0.000 A 
ATOM     13  C   UNL     1       3.655  16.093  20.165  0.00  0.00    +0.000 A 
ATOM     14  C   UNL     1       4.898  16.000  19.511  0.00  0.00    +0.000 A 
ATOM     15  C   UNL     1       4.971  15.707  18.158  0.00  0.00    +0.000 A 
ATOM     16  C   UNL     1       3.797  15.563  17.456  0.00  0.00    +0.000 A 
ATOM     17  C   UNL     1       2.570  15.707  18.123  0.00  0.00    +0.000 A 
ENDBRANCH   3  12
BRANCH   1  18
ATOM     18  C   UNL     1      -0.191  17.595  23.116  0.00  0.00    +0.000 C 
BRANCH  18  20
ATOM     19  C   UNL     1       1.815  17.647  24.862  0.00  0.00    +0.000 C 
ATOM     20  C   UNL     1       0.909  17.622  24.079  0.00  0.00    +0.000 C 
ENDBRANCH  18  20
ENDBRANCH   1  18
BRANCH   7  21
ATOM     21  C   UNL     1      -0.264  11.186  19.469  0.00  0.00    +0.000 C 
BRANCH  21  22
ATOM     22  C   UNL     1      -1.433  11.009  18.491  0.00  0.00    +0.000 A 
ATOM     23  C   UNL     1      -2.708  11.540  18.766  0.00  0.00    +0.000 A 
ATOM     24  C   UNL     1      -3.805  11.210  17.976  0.00  0.00    +0.000 A 
ATOM     25  C   UNL     1      -3.649  10.322  16.916  0.00  0.00    +0.000 A 
ATOM     26  C   UNL     1      -2.395   9.784  16.631  0.00  0.00    +0.000 A 
ATOM     27  C   UNL     1      -1.289  10.134  17.403  0.00  0.00    +0.000 A 
ENDBRANCH  21  22
BRANCH  21  28
ATOM     28  C   UNL     1       0.509   9.880  19.674  0.00  0.00    +0.000 A 
ATOM     29  C   UNL     1       1.332   9.401  18.641  0.00  0.00    +0.000 A 
ATOM     30  C   UNL     1       2.071   8.229  18.802  0.00  0.00    +0.000 A 
ATOM     31  C   UNL     1       2.006   7.521  19.999  0.00  0.00    +0.000 A 
ATOM     32  C   UNL     1       1.160   7.954  21.016  0.00  0.00    +0.000 A 
ATOM     33  C   UNL     1       0.398   9.110  20.844  0.00  0.00    +0.000 A 
ENDBRANCH  21  28
ENDBRANCH   7  21
TORSDOF 6
ENDMDL
MODEL 7
REMARK VINA RESULT:      -6.5      2.529      4.186
REMARK  Name = 
REMARK  6 active torsions:
REMARK  status: ('A' for Active; 'I' for Inactive)
REMARK    1  A    between atoms: C_2  and  C_3
REMARK    2  A    between atoms: C_3  and  N_4
REMARK    3  A    between atoms: N_6  and  C_7
REMARK    4  A    between atoms: N_16  and  C_17
REMARK    5  A    between atoms: C_17  and  C_18
REMARK    6  A    between atoms: C_17  and  C_24
REMARK                            x       y       z     vdW  Elec       q    Type
REMARK                         _______ _______ _______ _____ _____    ______ ____
ROOT
ATOM      1  N   UNL     1       0.967  16.644  22.550  0.00  0.00    +0.000 N 
ATOM      2  C   UNL     1       1.511  17.130  21.322  0.00  0.00    +0.000 C 
ATOM      3  N   UNL     1       1.632  15.937  20.487  0.00  0.00    +0.000 N 
ATOM      4  C   UNL     1       0.723  14.869  21.033  0.00  0.00    +0.000 C 
ATOM      5  C   UNL     1       1.350  13.510  21.308  0.00  0.00    +0.000 C 
ATOM      6  C   UNL     1       1.495  12.669  20.059  0.00  0.00    +0.000 C 
ATOM      7  N   UNL     1       0.295  12.585  19.207  0.00  0.00    +0.000 NA
ATOM      8  C   UNL     1      -0.421  13.876  19.027  0.00  0.00    +0.000 C 
ATOM      9  C   UNL     1      -0.585  14.726  20.268  0.00  0.00    +0.000 C 
ATOM     10  C   UNL     1       0.354  15.423  22.424  0.00  0.00    +0.000 C 
ATOM     11  O   UNL     1      -0.327  14.870  23.279  0.00  0.00    +0.000 OA
ENDROOT
BRANCH   3  12
ATOM     12  C   UNL     1       2.717  15.801  19.629  0.00  0.00    +0.000 A 
ATOM     13  C   UNL     1       4.038  15.675  20.083  0.00  0.00    +0.000 A 
ATOM     14  C   UNL     1       5.131  15.486  19.216  0.00  0.00    +0.000 A 
ATOM     15  C   UNL     1       4.946  15.398  17.846  0.00  0.00    +0.000 A 
ATOM     16  C   UNL     1       3.674  15.554  17.345  0.00  0.00    +0.000 A 
ATOM     17  C   UNL     1       2.608  15.789  18.228  0.00  0.00    +0.000 A 
ENDBRANCH   3  12
BRANCH   1  18
ATOM     18  C   UNL     1       0.987  17.415  23.768  0.00  0.00    +0.000 C 
BRANCH  18  20
ATOM     19  C   UNL     1       3.460  18.140  24.427  0.00  0.00    +0.000 C 
ATOM     20  C   UNL     1       2.348  17.810  24.128  0.00  0.00    +0.000 C 
ENDBRANCH  18  20
ENDBRANCH   1  18
BRANCH   7  21
ATOM     21  C   UNL     1      -0.640  11.515  19.653  0.00  0.00    +0.000 C 
BRANCH  21  22
ATOM     22  C   UNL     1      -1.681  11.231  18.563  0.00  0.00    +0.000 A 
ATOM     23  C   UNL     1      -3.016  11.660  18.690  0.00  0.00    +0.000 A 
ATOM     24  C   UNL     1      -3.994  11.231  17.797  0.00  0.00    +0.000 A 
ATOM     25  C   UNL     1      -3.657  10.343  16.781  0.00  0.00    +0.000 A 
ATOM     26  C   UNL     1      -2.341   9.903  16.641  0.00  0.00    +0.000 A 
ATOM     27  C   UNL     1      -1.354  10.353  17.516  0.00  0.00    +0.000 A 
ENDBRANCH  21  22
BRANCH  21  28
ATOM     28  C   UNL     1       0.046  10.234  20.134  0.00  0.00    +0.000 A 
ATOM     29  C   UNL     1      -0.267   9.726  21.407  0.00  0.00    +0.000 A 
ATOM     30  C   UNL     1       0.318   8.546  21.869  0.00  0.00    +0.000 A 
ATOM     31  C   UNL     1       1.217   7.852  21.065  0.00  0.00    +0.000 A 
ATOM     32  C   UNL     1       1.576   8.364  19.822  0.00  0.00    +0.000 A 
ATOM     33  C   UNL     1       1.013   9.559  19.371  0.00  0.00    +0.000 A 
ENDBRANCH  21  28
ENDBRANCH   7  21
TORSDOF 6
ENDMDL
MODEL 8
REMARK VINA RESULT:      -6.5      2.260      4.104
REMARK  Name = 
REMARK  6 active torsions:
REMARK  status: ('A' for Active; 'I' for Inactive)
REMARK    1  A    between atoms: C_2  and  C_3
REMARK    2  A    between atoms: C_3  and  N_4
REMARK    3  A    between atoms: N_6  and  C_7
REMARK    4  A    between atoms: N_16  and  C_17
REMARK    5  A    between atoms: C_17  and  C_18
REMARK    6  A    between atoms: C_17  and  C_24
REMARK                            x       y       z     vdW  Elec       q    Type
REMARK                         _______ _______ _______ _____ _____    ______ ____
ROOT
ATOM      1  N   UNL     1       1.627  17.216  22.720  0.00  0.00    +0.000 N 
ATOM      2  C   UNL     1       2.192  17.520  21.442  0.00  0.00    +0.000 C 
ATOM      3  N   UNL     1       1.961  16.313  20.653  0.00  0.00    +0.000 N 
ATOM      4  C   UNL     1       0.855  15.518  21.294  0.00  0.00    +0.000 C 
ATOM      5  C   UNL     1       1.147  14.053  21.588  0.00  0.00    +0.000 C 
ATOM      6  C   UNL     1       0.998  13.171  20.368  0.00  0.00    +0.000 C 
ATOM      7  N   UNL     1      -0.240  13.364  19.591  0.00  0.00    +0.000 NA
ATOM      8  C   UNL     1      -0.628  14.787  19.399  0.00  0.00    +0.000 C 
ATOM      9  C   UNL     1      -0.495  15.684  20.612  0.00  0.00    +0.000 C 
ATOM     10  C   UNL     1       0.727  16.182  22.679  0.00  0.00    +0.000 C 
ATOM     11  O   UNL     1      -0.011  15.836  23.595  0.00  0.00    +0.000 OA
ENDROOT
BRANCH   3  12
ATOM     12  C   UNL     1       2.920  15.891  19.739  0.00  0.00    +0.000 A 
ATOM     13  C   UNL     1       2.700  15.875  18.355  0.00  0.00    +0.000 A 
ATOM     14  C   UNL     1       3.687  15.496  17.426  0.00  0.00    +0.000 A 
ATOM     15  C   UNL     1       4.956  15.129  17.847  0.00  0.00    +0.000 A 
ATOM     16  C   UNL     1       5.212  15.090  19.198  0.00  0.00    +0.000 A 
ATOM     17  C   UNL     1       4.195  15.427  20.104  0.00  0.00    +0.000 A 
ENDBRANCH   3  12
BRANCH   1  18
ATOM     18  C   UNL     1       1.916  17.989  23.901  0.00  0.00    +0.000 C 
BRANCH  18  20
ATOM     19  C   UNL     1       4.046  17.036  25.179  0.00  0.00    +0.000 C 
ATOM     20  C   UNL     1       3.087  17.468  24.607  0.00  0.00    +0.000 C 
ENDBRANCH  18  20
ENDBRANCH   1  18
BRANCH   7  21
ATOM     21  C   UNL     1      -1.377  12.571  20.134  0.00  0.00    +0.000 C 
BRANCH  21  22
ATOM     22  C   UNL     1      -2.325  12.157  19.002  0.00  0.00    +0.000 A 
ATOM     23  C   UNL     1      -3.712  12.033  19.212  0.00  0.00    +0.000 A 
ATOM     24  C   UNL     1      -4.535  11.471  18.241  0.00  0.00    +0.000 A 
ATOM     25  C   UNL     1      -3.979  10.997  17.056  0.00  0.00    +0.000 A 
ATOM     26  C   UNL     1      -2.607  11.107  16.832  0.00  0.00    +0.000 A 
ATOM     27  C   UNL     1      -1.785  11.696  17.791  0.00  0.00    +0.000 A 
ENDBRANCH  21  22
BRANCH  21  28
ATOM     28  C   UNL     1      -0.962  11.375  20.996  0.00  0.00    +0.000 A 
ATOM     29  C   UNL     1      -0.397  10.247  20.375  0.00  0.00    +0.000 A 
ATOM     30  C   UNL     1       0.017   9.150  21.131  0.00  0.00    +0.000 A 
ATOM     31  C   UNL     1      -0.119   9.165  22.516  0.00  0.00    +0.000 A 
ATOM     32  C   UNL     1      -0.719  10.252  23.143  0.00  0.00    +0.000 A 
ATOM     33  C   UNL     1      -1.160  11.337  22.386  0.00  0.00    +0.000 A 
ENDBRANCH  21  28
ENDBRANCH   7  21
TORSDOF 6
ENDMDL
MODEL 9
REMARK VINA RESULT:      -6.4      2.577      4.318
REMARK  Name = 
REMARK  6 active torsions:
REMARK  status: ('A' for Active; 'I' for Inactive)
REMARK    1  A    between atoms: C_2  and  C_3
REMARK    2  A    between atoms: C_3  and  N_4
REMARK    3  A    between atoms: N_6  and  C_7
REMARK    4  A    between atoms: N_16  and  C_17
REMARK    5  A    between atoms: C_17  and  C_18
REMARK    6  A    between atoms: C_17  and  C_24
REMARK                            x       y       z     vdW  Elec       q    Type
REMARK                         _______ _______ _______ _____ _____    ______ ____
ROOT
ATOM      1  N   UNL     1       0.772  16.361  22.485  0.00  0.00    +0.000 N 
ATOM      2  C   UNL     1       1.274  16.879  21.252  0.00  0.00    +0.000 C 
ATOM      3  N   UNL     1       1.442  15.696  20.410  0.00  0.00    +0.000 N 
ATOM      4  C   UNL     1       0.594  14.582  20.963  0.00  0.00    +0.000 C 
ATOM      5  C   UNL     1       1.292  13.254  21.223  0.00  0.00    +0.000 C 
ATOM      6  C   UNL     1       1.460  12.427  19.967  0.00  0.00    +0.000 C 
ATOM      7  N   UNL     1       0.253  12.287  19.132  0.00  0.00    +0.000 NA
ATOM      8  C   UNL     1      -0.528  13.542  18.968  0.00  0.00    +0.000 C 
ATOM      9  C   UNL     1      -0.716  14.379  20.215  0.00  0.00    +0.000 C 
ATOM     10  C   UNL     1       0.218  15.112  22.362  0.00  0.00    +0.000 C 
ATOM     11  O   UNL     1      -0.422  14.522  23.224  0.00  0.00    +0.000 OA
ENDROOT
BRANCH   3  12
ATOM     12  C   UNL     1       2.520  15.617  19.536  0.00  0.00    +0.000 A 
ATOM     13  C   UNL     1       2.383  15.724  18.144  0.00  0.00    +0.000 A 
ATOM     14  C   UNL     1       3.480  15.695  17.262  0.00  0.00    +0.000 A 
ATOM     15  C   UNL     1       4.775  15.574  17.741  0.00  0.00    +0.000 A 
ATOM     16  C   UNL     1       4.962  15.427  19.096  0.00  0.00    +0.000 A 
ATOM     17  C   UNL     1       3.848  15.411  19.949  0.00  0.00    +0.000 A 
ENDBRANCH   3  12
BRANCH   1  18
ATOM     18  C   UNL     1       0.772  17.126  23.706  0.00  0.00    +0.000 C 
BRANCH  18  20
ATOM     19  C   UNL     1       3.230  17.886  24.381  0.00  0.00    +0.000 C 
ATOM     20  C   UNL     1       2.123  17.547  24.074  0.00  0.00    +0.000 C 
ENDBRANCH  18  20
ENDBRANCH   1  18
BRANCH   7  21
ATOM     21  C   UNL     1      -0.621  11.171  19.585  0.00  0.00    +0.000 C 
BRANCH  21  22
ATOM     22  C   UNL     1      -1.705  10.886  18.539  0.00  0.00    +0.000 A 
ATOM     23  C   UNL     1      -1.427  10.144  17.375  0.00  0.00    +0.000 A 
ATOM     24  C   UNL     1      -2.357  10.057  16.343  0.00  0.00    +0.000 A 
ATOM     25  C   UNL     1      -3.568  10.735  16.447  0.00  0.00    +0.000 A 
ATOM     26  C   UNL     1      -3.859  11.478  17.590  0.00  0.00    +0.000 A 
ATOM     27  C   UNL     1      -2.942  11.543  18.637  0.00  0.00    +0.000 A 
ENDBRANCH  21  22
BRANCH  21  28
ATOM     28  C   UNL     1       0.131   9.899  19.988  0.00  0.00    +0.000 A 
ATOM     29  C   UNL     1       1.102   9.373  19.118  0.00  0.00    +0.000 A 
ATOM     30  C   UNL     1       1.825   8.231  19.462  0.00  0.00    +0.000 A 
ATOM     31  C   UNL     1       1.597   7.602  20.684  0.00  0.00    +0.000 A 
ATOM     32  C   UNL     1       0.607   8.080  21.536  0.00  0.00    +0.000 A 
ATOM     33  C   UNL     1      -0.137   9.205  21.180  0.00  0.00    +0.000 A 
ENDBRANCH  21  28
ENDBRANCH   7  21
TORSDOF 6
ENDMDL
