MODEL 1
REMARK VINA RESULT:      -9.3      0.000      0.000
REMARK  Name = 
REMARK  7 active torsions:
REMARK  status: ('A' for Active; 'I' for Inactive)
REMARK    1  A    between atoms: C_1  and  O_2
REMARK    2  A    between atoms: O_2  and  C_3
REMARK    3  A    between atoms: C_3  and  C_5
REMARK    4  A    between atoms: C_15  and  C_16
REMARK    5  A    between atoms: C_19  and  C_20
REMARK    6  A    between atoms: C_24  and  O_25
REMARK    7  A    between atoms: O_25  and  C_26
REMARK                            x       y       z     vdW  Elec       q    Type
REMARK                         _______ _______ _______ _____ _____    ______ ____
ROOT
ATOM      1  C   UNL     1       5.588   4.280  18.379  0.00  0.00    +0.000 C 
ATOM      2  C   UNL     1       4.580   5.047  17.272  0.00  0.00    +0.000 C 
ATOM      3  C   UNL     1       3.582   4.011  16.652  0.00  0.00    +0.000 C 
ATOM      4  C   UNL     1       3.310   3.147  17.861  0.00  0.00    +0.000 C 
ATOM      5  C   UNL     1       3.267   1.736  18.367  0.00  0.00    +0.000 C 
ATOM      6  C   UNL     1       4.159   2.000  19.645  0.00  0.00    +0.000 C 
ATOM      7  C   UNL     1       4.699   3.528  19.582  0.00  0.00    +0.000 C 
ATOM      8  N   UNL     1       3.342   3.887  19.178  0.00  0.00    +0.000 NA
ATOM      9  C   UNL     1       3.187   5.328  19.274  0.00  0.00    +0.000 C 
ATOM     10  C   UNL     1       3.658   5.989  18.033  0.00  0.00    +0.000 C 
ATOM     11  C   UNL     1       3.207   7.196  17.653  0.00  0.00    +0.000 C 
ENDROOT
BRANCH  11  12
ATOM     12  C   UNL     1       2.333   8.016  18.512  0.00  0.00    +0.000 A 
ATOM     13  C   UNL     1       1.671   9.123  17.980  0.00  0.00    +0.000 A 
ATOM     14  C   UNL     1       0.818   9.889  18.784  0.00  0.00    +0.000 A 
ATOM     15  C   UNL     1       0.613   9.588  20.146  0.00  0.00    +0.000 A 
ATOM     16  C   UNL     1       1.309   8.477  20.659  0.00  0.00    +0.000 A 
ATOM     17  C   UNL     1       2.160   7.711  19.863  0.00  0.00    +0.000 A 
BRANCH  15  18
ATOM     18  C   UNL     1      -0.288  10.404  20.994  0.00  0.00    +0.000 A 
ATOM     19  C   UNL     1      -0.423  10.184  22.356  0.00  0.00    +0.000 A 
ATOM     20  C   UNL     1      -1.290  10.979  23.142  0.00  0.00    +0.000 A 
ATOM     21  C   UNL     1      -2.033  11.991  22.537  0.00  0.00    +0.000 A 
ATOM     22  C   UNL     1      -1.922  12.230  21.183  0.00  0.00    +0.000 A 
ATOM     23  C   UNL     1      -1.050  11.450  20.418  0.00  0.00    +0.000 A 
BRANCH  22  24
ATOM     24  O   UNL     1      -2.681  13.256  20.698  0.00  0.00    +0.000 OA
ATOM     25  C   UNL     1      -4.013  12.944  20.288  0.00  0.00    +0.000 C 
ENDBRANCH  22  24
ENDBRANCH  15  18
ENDBRANCH  11  12
BRANCH   1  26
ATOM     26  C   UNL     1       6.633   5.322  18.766  0.00  0.00    +0.000 C 
ATOM     27  O   UNL     1       7.029   5.473  19.942  0.00  0.00    +0.000 OA
BRANCH  26  29
ATOM     28  C   UNL     1       7.827   7.246  18.122  0.00  0.00    +0.000 C 
ATOM     29  O   UNL     1       6.960   6.163  17.759  0.00  0.00    +0.000 OA
ENDBRANCH  26  29
ENDBRANCH   1  26
TORSDOF 5
ENDMDL
MODEL 2
REMARK VINA RESULT:      -9.1      0.784      1.196
REMARK  Name = 
REMARK  7 active torsions:
REMARK  status: ('A' for Active; 'I' for Inactive)
REMARK    1  A    between atoms: C_1  and  O_2
REMARK    2  A    between atoms: O_2  and  C_3
REMARK    3  A    between atoms: C_3  and  C_5
REMARK    4  A    between atoms: C_15  and  C_16
REMARK    5  A    between atoms: C_19  and  C_20
REMARK    6  A    between atoms: C_24  and  O_25
REMARK    7  A    between atoms: O_25  and  C_26
REMARK                            x       y       z     vdW  Elec       q    Type
REMARK                         _______ _______ _______ _____ _____    ______ ____
ROOT
ATOM      1  C   UNL     1       5.585   4.092  18.282  0.00  0.00    +0.000 C 
ATOM      2  C   UNL     1       4.548   4.870  17.210  0.00  0.00    +0.000 C 
ATOM      3  C   UNL     1       3.508   3.848  16.638  0.00  0.00    +0.000 C 
ATOM      4  C   UNL     1       3.269   2.998  17.863  0.00  0.00    +0.000 C 
ATOM      5  C   UNL     1       3.220   1.591  18.380  0.00  0.00    +0.000 C 
ATOM      6  C   UNL     1       4.167   1.846  19.619  0.00  0.00    +0.000 C 
ATOM      7  C   UNL     1       4.732   3.363  19.524  0.00  0.00    +0.000 C 
ATOM      8  N   UNL     1       3.366   3.745  19.172  0.00  0.00    +0.000 NA
ATOM      9  C   UNL     1       3.241   5.189  19.264  0.00  0.00    +0.000 C 
ATOM     10  C   UNL     1       3.674   5.834  18.000  0.00  0.00    +0.000 C 
ATOM     11  C   UNL     1       3.230   7.046  17.631  0.00  0.00    +0.000 C 
ENDROOT
BRANCH  11  12
ATOM     12  C   UNL     1       2.407   7.888  18.517  0.00  0.00    +0.000 A 
ATOM     13  C   UNL     1       2.192   7.507  19.842  0.00  0.00    +0.000 A 
ATOM     14  C   UNL     1       1.433   8.317  20.696  0.00  0.00    +0.000 A 
ATOM     15  C   UNL     1       0.850   9.522  20.252  0.00  0.00    +0.000 A 
ATOM     16  C   UNL     1       1.068   9.870  18.906  0.00  0.00    +0.000 A 
ATOM     17  C   UNL     1       1.822   9.067  18.051  0.00  0.00    +0.000 A 
BRANCH  15  18
ATOM     18  C   UNL     1       0.045  10.373  21.159  0.00  0.00    +0.000 A 
ATOM     19  C   UNL     1      -0.466   9.901  22.358  0.00  0.00    +0.000 A 
ATOM     20  C   UNL     1      -1.232  10.736  23.205  0.00  0.00    +0.000 A 
ATOM     21  C   UNL     1      -1.491  12.051  22.822  0.00  0.00    +0.000 A 
ATOM     22  C   UNL     1      -1.001  12.546  21.633  0.00  0.00    +0.000 A 
ATOM     23  C   UNL     1      -0.230  11.718  20.811  0.00  0.00    +0.000 A 
BRANCH  22  24
ATOM     24  O   UNL     1      -1.300  13.851  21.365  0.00  0.00    +0.000 OA
ATOM     25  C   UNL     1      -0.903  14.363  20.093  0.00  0.00    +0.000 C 
ENDBRANCH  22  24
ENDBRANCH  15  18
ENDBRANCH  11  12
BRANCH   1  26
ATOM     26  C   UNL     1       6.664   5.117  18.619  0.00  0.00    +0.000 C 
ATOM     27  O   UNL     1       6.911   5.471  19.792  0.00  0.00    +0.000 OA
BRANCH  26  29
ATOM     28  C   UNL     1       7.444   7.124  17.667  0.00  0.00    +0.000 C 
ATOM     29  O   UNL     1       7.201   5.716  17.533  0.00  0.00    +0.000 OA
ENDBRANCH  26  29
ENDBRANCH   1  26
TORSDOF 5
ENDMDL
MODEL 3
REMARK VINA RESULT:      -8.7      2.581      4.071
REMARK  Name = 
REMARK  7 active torsions:
REMARK  status: ('A' for Active; 'I' for Inactive)
REMARK    1  A    between atoms: C_1  and  O_2
REMARK    2  A    between atoms: O_2  and  C_3
REMARK    3  A    between atoms: C_3  and  C_5
REMARK    4  A    between atoms: C_15  and  C_16
REMARK    5  A    between atoms: C_19  and  C_20
REMARK    6  A    between atoms: C_24  and  O_25
REMARK    7  A    between atoms: O_25  and  C_26
REMARK                            x       y       z     vdW  Elec       q    Type
REMARK                         _______ _______ _______ _____ _____    ______ ____
ROOT
ATOM      1  C   UNL     1       4.282   3.195  17.541  0.00  0.00    +0.000 C 
ATOM      2  C   UNL     1       4.430   3.992  19.015  0.00  0.00    +0.000 C 
ATOM      3  C   UNL     1       5.923   4.402  19.252  0.00  0.00    +0.000 C 
ATOM      4  C   UNL     1       6.326   4.767  17.843  0.00  0.00    +0.000 C 
ATOM      5  C   UNL     1       7.355   4.548  16.774  0.00  0.00    +0.000 C 
ATOM      6  C   UNL     1       6.320   4.210  15.628  0.00  0.00    +0.000 C 
ATOM      7  C   UNL     1       4.837   4.149  16.282  0.00  0.00    +0.000 C 
ATOM      8  N   UNL     1       5.215   5.360  17.008  0.00  0.00    +0.000 NA
ATOM      9  C   UNL     1       4.024   5.951  17.591  0.00  0.00    +0.000 C 
ATOM     10  C   UNL     1       3.725   5.337  18.908  0.00  0.00    +0.000 C 
ATOM     11  C   UNL     1       3.019   5.982  19.851  0.00  0.00    +0.000 C 
ENDROOT
BRANCH  11  12
ATOM     12  C   UNL     1       2.363   7.277  19.596  0.00  0.00    +0.000 A 
ATOM     13  C   UNL     1       1.639   7.906  20.610  0.00  0.00    +0.000 A 
ATOM     14  C   UNL     1       1.037   9.150  20.381  0.00  0.00    +0.000 A 
ATOM     15  C   UNL     1       1.121   9.796  19.131  0.00  0.00    +0.000 A 
ATOM     16  C   UNL     1       1.841   9.128  18.121  0.00  0.00    +0.000 A 
ATOM     17  C   UNL     1       2.442   7.890  18.344  0.00  0.00    +0.000 A 
BRANCH  15  18
ATOM     18  C   UNL     1       0.478  11.110  18.892  0.00  0.00    +0.000 A 
ATOM     19  C   UNL     1      -0.887  11.240  18.694  0.00  0.00    +0.000 A 
ATOM     20  C   UNL     1      -1.475  12.507  18.469  0.00  0.00    +0.000 A 
ATOM     21  C   UNL     1      -0.667  13.643  18.430  0.00  0.00    +0.000 A 
ATOM     22  C   UNL     1       0.695  13.543  18.619  0.00  0.00    +0.000 A 
ATOM     23  C   UNL     1       1.263  12.288  18.857  0.00  0.00    +0.000 A 
BRANCH  22  24
ATOM     24  O   UNL     1       1.387  14.718  18.577  0.00  0.00    +0.000 OA
ATOM     25  C   UNL     1       2.811  14.635  18.538  0.00  0.00    +0.000 C 
ENDBRANCH  22  24
ENDBRANCH  15  18
ENDBRANCH  11  12
BRANCH   1  26
ATOM     26  C   UNL     1       2.849   2.673  17.504  0.00  0.00    +0.000 C 
ATOM     27  O   UNL     1       2.002   3.091  16.686  0.00  0.00    +0.000 OA
BRANCH  26  29
ATOM     28  C   UNL     1       1.287   2.105  19.172  0.00  0.00    +0.000 C 
ATOM     29  O   UNL     1       2.545   1.849  18.532  0.00  0.00    +0.000 OA
ENDBRANCH  26  29
ENDBRANCH   1  26
TORSDOF 5
ENDMDL
MODEL 4
REMARK VINA RESULT:      -8.7      1.178      1.675
REMARK  Name = 
REMARK  7 active torsions:
REMARK  status: ('A' for Active; 'I' for Inactive)
REMARK    1  A    between atoms: C_1  and  O_2
REMARK    2  A    between atoms: O_2  and  C_3
REMARK    3  A    between atoms: C_3  and  C_5
REMARK    4  A    between atoms: C_15  and  C_16
REMARK    5  A    between atoms: C_19  and  C_20
REMARK    6  A    between atoms: C_24  and  O_25
REMARK    7  A    between atoms: O_25  and  C_26
REMARK                            x       y       z     vdW  Elec       q    Type
REMARK                         _______ _______ _______ _____ _____    ______ ____
ROOT
ATOM      1  C   UNL     1       5.012   4.147  18.501  0.00  0.00    +0.000 C 
ATOM      2  C   UNL     1       3.957   4.889  17.421  0.00  0.00    +0.000 C 
ATOM      3  C   UNL     1       2.792   3.909  17.055  0.00  0.00    +0.000 C 
ATOM      4  C   UNL     1       2.586   3.230  18.388  0.00  0.00    +0.000 C 
ATOM      5  C   UNL     1       2.463   1.903  19.074  0.00  0.00    +0.000 C 
ATOM      6  C   UNL     1       3.528   2.210  20.201  0.00  0.00    +0.000 C 
ATOM      7  C   UNL     1       4.207   3.647  19.882  0.00  0.00    +0.000 C 
ATOM      8  N   UNL     1       2.853   4.111  19.586  0.00  0.00    +0.000 NA
ATOM      9  C   UNL     1       2.856   5.561  19.511  0.00  0.00    +0.000 C 
ATOM     10  C   UNL     1       3.235   6.014  18.150  0.00  0.00    +0.000 C 
ATOM     11  C   UNL     1       2.864   7.212  17.669  0.00  0.00    +0.000 C 
ENDROOT
BRANCH  11  12
ATOM     12  C   UNL     1       2.189   8.222  18.505  0.00  0.00    +0.000 A 
ATOM     13  C   UNL     1       1.843   7.921  19.822  0.00  0.00    +0.000 A 
ATOM     14  C   UNL     1       1.227   8.887  20.629  0.00  0.00    +0.000 A 
ATOM     15  C   UNL     1       0.921  10.174  20.142  0.00  0.00    +0.000 A 
ATOM     16  C   UNL     1       1.265  10.441  18.803  0.00  0.00    +0.000 A 
ATOM     17  C   UNL     1       1.877   9.483  17.996  0.00  0.00    +0.000 A 
BRANCH  15  18
ATOM     18  C   UNL     1       0.265  11.190  20.998  0.00  0.00    +0.000 A 
ATOM     19  C   UNL     1       0.656  12.520  20.999  0.00  0.00    +0.000 A 
ATOM     20  C   UNL     1       0.013  13.471  21.826  0.00  0.00    +0.000 A 
ATOM     21  C   UNL     1      -1.022  13.062  22.666  0.00  0.00    +0.000 A 
ATOM     22  C   UNL     1      -1.429  11.745  22.690  0.00  0.00    +0.000 A 
ATOM     23  C   UNL     1      -0.798  10.817  21.856  0.00  0.00    +0.000 A 
BRANCH  22  24
ATOM     24  O   UNL     1      -2.462  11.458  23.535  0.00  0.00    +0.000 OA
ATOM     25  C   UNL     1      -3.444  12.475  23.732  0.00  0.00    +0.000 C 
ENDBRANCH  22  24
ENDBRANCH  15  18
ENDBRANCH  11  12
BRANCH   1  26
ATOM     26  C   UNL     1       6.196   5.100  18.633  0.00  0.00    +0.000 C 
ATOM     27  O   UNL     1       6.705   5.391  19.737  0.00  0.00    +0.000 OA
BRANCH  26  29
ATOM     28  C   UNL     1       7.457   6.801  17.604  0.00  0.00    +0.000 C 
ATOM     29  O   UNL     1       6.527   5.716  17.476  0.00  0.00    +0.000 OA
ENDBRANCH  26  29
ENDBRANCH   1  26
TORSDOF 5
ENDMDL
MODEL 5
REMARK VINA RESULT:      -8.7      2.248      3.665
REMARK  Name = 
REMARK  7 active torsions:
REMARK  status: ('A' for Active; 'I' for Inactive)
REMARK    1  A    between atoms: C_1  and  O_2
REMARK    2  A    between atoms: O_2  and  C_3
REMARK    3  A    between atoms: C_3  and  C_5
REMARK    4  A    between atoms: C_15  and  C_16
REMARK    5  A    between atoms: C_19  and  C_20
REMARK    6  A    between atoms: C_24  and  O_25
REMARK    7  A    between atoms: O_25  and  C_26
REMARK                            x       y       z     vdW  Elec       q    Type
REMARK                         _______ _______ _______ _____ _____    ______ ____
ROOT
ATOM      1  C   UNL     1       4.275   3.170  17.547  0.00  0.00    +0.000 C 
ATOM      2  C   UNL     1       4.510   3.993  18.995  0.00  0.00    +0.000 C 
ATOM      3  C   UNL     1       5.995   4.479  19.097  0.00  0.00    +0.000 C 
ATOM      4  C   UNL     1       6.256   4.844  17.655  0.00  0.00    +0.000 C 
ATOM      5  C   UNL     1       7.198   4.662  16.503  0.00  0.00    +0.000 C 
ATOM      6  C   UNL     1       6.086   4.258  15.454  0.00  0.00    +0.000 C 
ATOM      7  C   UNL     1       4.671   4.133  16.236  0.00  0.00    +0.000 C 
ATOM      8  N   UNL     1       5.049   5.370  16.915  0.00  0.00    +0.000 NA
ATOM      9  C   UNL     1       3.885   5.910  17.594  0.00  0.00    +0.000 C 
ATOM     10  C   UNL     1       3.732   5.300  18.938  0.00  0.00    +0.000 C 
ATOM     11  C   UNL     1       3.079   5.923  19.932  0.00  0.00    +0.000 C 
ENDROOT
BRANCH  11  12
ATOM     12  C   UNL     1       2.339   7.180  19.724  0.00  0.00    +0.000 A 
ATOM     13  C   UNL     1       1.585   7.729  20.762  0.00  0.00    +0.000 A 
ATOM     14  C   UNL     1       0.903   8.938  20.578  0.00  0.00    +0.000 A 
ATOM     15  C   UNL     1       0.935   9.628  19.349  0.00  0.00    +0.000 A 
ATOM     16  C   UNL     1       1.687   9.040  18.314  0.00  0.00    +0.000 A 
ATOM     17  C   UNL     1       2.368   7.836  18.492  0.00  0.00    +0.000 A 
BRANCH  15  18
ATOM     18  C   UNL     1       0.207  10.904  19.157  0.00  0.00    +0.000 A 
ATOM     19  C   UNL     1       0.853  12.077  18.798  0.00  0.00    +0.000 A 
ATOM     20  C   UNL     1       0.134  13.283  18.621  0.00  0.00    +0.000 A 
ATOM     21  C   UNL     1      -1.245  13.297  18.827  0.00  0.00    +0.000 A 
ATOM     22  C   UNL     1      -1.913  12.147  19.190  0.00  0.00    +0.000 A 
ATOM     23  C   UNL     1      -1.195  10.957  19.345  0.00  0.00    +0.000 A 
BRANCH  22  24
ATOM     24  O   UNL     1      -3.263  12.270  19.347  0.00  0.00    +0.000 OA
ATOM     25  C   UNL     1      -3.722  12.995  20.488  0.00  0.00    +0.000 C 
ENDBRANCH  22  24
ENDBRANCH  15  18
ENDBRANCH  11  12
BRANCH   1  26
ATOM     26  C   UNL     1       2.872   2.577  17.640  0.00  0.00    +0.000 C 
ATOM     27  O   UNL     1       1.949   2.910  16.865  0.00  0.00    +0.000 OA
BRANCH  26  29
ATOM     28  C   UNL     1       1.494   2.070  19.480  0.00  0.00    +0.000 C 
ATOM     29  O   UNL     1       2.684   1.796  18.727  0.00  0.00    +0.000 OA
ENDBRANCH  26  29
ENDBRANCH   1  26
TORSDOF 5
ENDMDL
MODEL 6
REMARK VINA RESULT:      -8.6      2.425      3.765
REMARK  Name = 
REMARK  7 active torsions:
REMARK  status: ('A' for Active; 'I' for Inactive)
REMARK    1  A    between atoms: C_1  and  O_2
REMARK    2  A    between atoms: O_2  and  C_3
REMARK    3  A    between atoms: C_3  and  C_5
REMARK    4  A    between atoms: C_15  and  C_16
REMARK    5  A    between atoms: C_19  and  C_20
REMARK    6  A    between atoms: C_24  and  O_25
REMARK    7  A    between atoms: O_25  and  C_26
REMARK                            x       y       z     vdW  Elec       q    Type
REMARK                         _______ _______ _______ _____ _____    ______ ____
ROOT
ATOM      1  C   UNL     1       4.502   3.126  17.521  0.00  0.00    +0.000 C 
ATOM      2  C   UNL     1       4.861   4.115  18.833  0.00  0.00    +0.000 C 
ATOM      3  C   UNL     1       6.287   4.737  18.658  0.00  0.00    +0.000 C 
ATOM      4  C   UNL     1       6.295   4.969  17.166  0.00  0.00    +0.000 C 
ATOM      5  C   UNL     1       7.071   4.750  15.902  0.00  0.00    +0.000 C 
ATOM      6  C   UNL     1       5.865   4.142  15.080  0.00  0.00    +0.000 C 
ATOM      7  C   UNL     1       4.600   3.976  16.081  0.00  0.00    +0.000 C 
ATOM      8  N   UNL     1       4.944   5.307  16.578  0.00  0.00    +0.000 NA
ATOM      9  C   UNL     1       3.843   5.811  17.378  0.00  0.00    +0.000 C 
ATOM     10  C   UNL     1       3.952   5.335  18.779  0.00  0.00    +0.000 C 
ATOM     11  C   UNL     1       3.392   5.999  19.803  0.00  0.00    +0.000 C 
ENDROOT
BRANCH  11  12
ATOM     12  C   UNL     1       2.504   7.158  19.599  0.00  0.00    +0.000 A 
ATOM     13  C   UNL     1       1.714   7.627  20.649  0.00  0.00    +0.000 A 
ATOM     14  C   UNL     1       0.890   8.745  20.468  0.00  0.00    +0.000 A 
ATOM     15  C   UNL     1       0.812   9.417  19.232  0.00  0.00    +0.000 A 
ATOM     16  C   UNL     1       1.606   8.909  18.186  0.00  0.00    +0.000 A 
ATOM     17  C   UNL     1       2.428   7.797  18.360  0.00  0.00    +0.000 A 
BRANCH  15  18
ATOM     18  C   UNL     1      -0.065  10.597  19.045  0.00  0.00    +0.000 A 
ATOM     19  C   UNL     1       0.150  11.792  19.713  0.00  0.00    +0.000 A 
ATOM     20  C   UNL     1      -0.703  12.904  19.515  0.00  0.00    +0.000 A 
ATOM     21  C   UNL     1      -1.788  12.792  18.646  0.00  0.00    +0.000 A 
ATOM     22  C   UNL     1      -2.029  11.613  17.972  0.00  0.00    +0.000 A 
ATOM     23  C   UNL     1      -1.169  10.527  18.162  0.00  0.00    +0.000 A 
BRANCH  22  24
ATOM     24  O   UNL     1      -3.106  11.620  17.134  0.00  0.00    +0.000 OA
ATOM     25  C   UNL     1      -2.948  10.985  15.865  0.00  0.00    +0.000 C 
ENDBRANCH  22  24
ENDBRANCH  15  18
ENDBRANCH  11  12
BRANCH   1  26
ATOM     26  C   UNL     1       3.196   2.426  17.885  0.00  0.00    +0.000 C 
ATOM     27  O   UNL     1       2.200   2.425  17.130  0.00  0.00    +0.000 OA
BRANCH  26  29
ATOM     28  C   UNL     1       1.970   2.246  19.887  0.00  0.00    +0.000 C 
ATOM     29  O   UNL     1       3.168   1.956  19.152  0.00  0.00    +0.000 OA
ENDBRANCH  26  29
ENDBRANCH   1  26
TORSDOF 5
ENDMDL
MODEL 7
REMARK VINA RESULT:      -8.6      1.433      1.658
REMARK  Name = 
REMARK  7 active torsions:
REMARK  status: ('A' for Active; 'I' for Inactive)
REMARK    1  A    between atoms: C_1  and  O_2
REMARK    2  A    between atoms: O_2  and  C_3
REMARK    3  A    between atoms: C_3  and  C_5
REMARK    4  A    between atoms: C_15  and  C_16
REMARK    5  A    between atoms: C_19  and  C_20
REMARK    6  A    between atoms: C_24  and  O_25
REMARK    7  A    between atoms: O_25  and  C_26
REMARK                            x       y       z     vdW  Elec       q    Type
REMARK                         _______ _______ _______ _____ _____    ______ ____
ROOT
ATOM      1  C   UNL     1       4.481   4.147  18.615  0.00  0.00    +0.000 C 
ATOM      2  C   UNL     1       3.436   4.948  17.568  0.00  0.00    +0.000 C 
ATOM      3  C   UNL     1       2.203   4.039  17.246  0.00  0.00    +0.000 C 
ATOM      4  C   UNL     1       2.002   3.376  18.588  0.00  0.00    +0.000 C 
ATOM      5  C   UNL     1       1.825   2.060  19.284  0.00  0.00    +0.000 C 
ATOM      6  C   UNL     1       2.944   2.306  20.373  0.00  0.00    +0.000 C 
ATOM      7  C   UNL     1       3.696   3.699  20.024  0.00  0.00    +0.000 C 
ATOM      8  N   UNL     1       2.363   4.242  19.773  0.00  0.00    +0.000 NA
ATOM      9  C   UNL     1       2.450   5.689  19.692  0.00  0.00    +0.000 C 
ATOM     10  C   UNL     1       2.807   6.116  18.317  0.00  0.00    +0.000 C 
ATOM     11  C   UNL     1       2.492   7.332  17.844  0.00  0.00    +0.000 C 
ENDROOT
BRANCH  11  12
ATOM     12  C   UNL     1       1.908   8.383  18.697  0.00  0.00    +0.000 A 
ATOM     13  C   UNL     1       1.624   9.640  18.163  0.00  0.00    +0.000 A 
ATOM     14  C   UNL     1       1.042  10.632  18.963  0.00  0.00    +0.000 A 
ATOM     15  C   UNL     1       0.744  10.409  20.323  0.00  0.00    +0.000 A 
ATOM     16  C   UNL     1       1.060   9.138  20.838  0.00  0.00    +0.000 A 
ATOM     17  C   UNL     1       1.639   8.146  20.047  0.00  0.00    +0.000 A 
BRANCH  15  18
ATOM     18  C   UNL     1       0.134  11.464  21.166  0.00  0.00    +0.000 A 
ATOM     19  C   UNL     1       0.607  12.767  21.179  0.00  0.00    +0.000 A 
ATOM     20  C   UNL     1       0.005  13.755  21.993  0.00  0.00    +0.000 A 
ATOM     21  C   UNL     1      -1.073  13.411  22.808  0.00  0.00    +0.000 A 
ATOM     22  C   UNL     1      -1.562  12.122  22.819  0.00  0.00    +0.000 A 
ATOM     23  C   UNL     1      -0.970  11.157  21.998  0.00  0.00    +0.000 A 
BRANCH  22  24
ATOM     24  O   UNL     1      -2.630  11.899  23.640  0.00  0.00    +0.000 OA
ATOM     25  C   UNL     1      -3.784  12.715  23.442  0.00  0.00    +0.000 C 
ENDBRANCH  22  24
ENDBRANCH  15  18
ENDBRANCH  11  12
BRANCH   1  26
ATOM     26  C   UNL     1       5.724   5.028  18.702  0.00  0.00    +0.000 C 
ATOM     27  O   UNL     1       6.346   5.210  19.771  0.00  0.00    +0.000 OA
BRANCH  26  29
ATOM     28  C   UNL     1       7.056   5.196  16.768  0.00  0.00    +0.000 C 
ATOM     29  O   UNL     1       5.983   5.714  17.566  0.00  0.00    +0.000 OA
ENDBRANCH  26  29
ENDBRANCH   1  26
TORSDOF 5
ENDMDL
MODEL 8
REMARK VINA RESULT:      -8.5      1.802      2.348
REMARK  Name = 
REMARK  7 active torsions:
REMARK  status: ('A' for Active; 'I' for Inactive)
REMARK    1  A    between atoms: C_1  and  O_2
REMARK    2  A    between atoms: O_2  and  C_3
REMARK    3  A    between atoms: C_3  and  C_5
REMARK    4  A    between atoms: C_15  and  C_16
REMARK    5  A    between atoms: C_19  and  C_20
REMARK    6  A    between atoms: C_24  and  O_25
REMARK    7  A    between atoms: O_25  and  C_26
REMARK                            x       y       z     vdW  Elec       q    Type
REMARK                         _______ _______ _______ _____ _____    ______ ____
ROOT
ATOM      1  C   UNL     1       4.108   4.386  18.776  0.00  0.00    +0.000 C 
ATOM      2  C   UNL     1       2.985   5.122  17.763  0.00  0.00    +0.000 C 
ATOM      3  C   UNL     1       1.679   4.260  17.698  0.00  0.00    +0.000 C 
ATOM      4  C   UNL     1       1.609   3.774  19.126  0.00  0.00    +0.000 C 
ATOM      5  C   UNL     1       1.452   2.563  19.996  0.00  0.00    +0.000 C 
ATOM      6  C   UNL     1       2.705   2.865  20.912  0.00  0.00    +0.000 C 
ATOM      7  C   UNL     1       3.476   4.158  20.310  0.00  0.00    +0.000 C 
ATOM      8  N   UNL     1       2.150   4.750  20.146  0.00  0.00    +0.000 NA
ATOM      9  C   UNL     1       2.297   6.168  19.875  0.00  0.00    +0.000 C 
ATOM     10  C   UNL     1       2.508   6.407  18.426  0.00  0.00    +0.000 C 
ATOM     11  C   UNL     1       2.197   7.576  17.844  0.00  0.00    +0.000 C 
ENDROOT
BRANCH  11  12
ATOM     12  C   UNL     1       1.771   8.755  18.621  0.00  0.00    +0.000 A 
ATOM     13  C   UNL     1       1.320   8.602  19.932  0.00  0.00    +0.000 A 
ATOM     14  C   UNL     1       0.940   9.721  20.684  0.00  0.00    +0.000 A 
ATOM     15  C   UNL     1       0.981  11.024  20.147  0.00  0.00    +0.000 A 
ATOM     16  C   UNL     1       1.422  11.145  18.815  0.00  0.00    +0.000 A 
ATOM     17  C   UNL     1       1.801  10.033  18.062  0.00  0.00    +0.000 A 
BRANCH  15  18
ATOM     18  C   UNL     1       0.574  12.205  20.944  0.00  0.00    +0.000 A 
ATOM     19  C   UNL     1       1.214  13.429  20.832  0.00  0.00    +0.000 A 
ATOM     20  C   UNL     1       0.805  14.541  21.606  0.00  0.00    +0.000 A 
ATOM     21  C   UNL     1      -0.249  14.400  22.508  0.00  0.00    +0.000 A 
ATOM     22  C   UNL     1      -0.900  13.193  22.644  0.00  0.00    +0.000 A 
ATOM     23  C   UNL     1      -0.499  12.105  21.862  0.00  0.00    +0.000 A 
BRANCH  22  24
ATOM     24  O   UNL     1      -1.928  13.171  23.542  0.00  0.00    +0.000 OA
ATOM     25  C   UNL     1      -2.955  12.201  23.335  0.00  0.00    +0.000 C 
ENDBRANCH  22  24
ENDBRANCH  15  18
ENDBRANCH  11  12
BRANCH   1  26
ATOM     26  C   UNL     1       5.393   5.191  18.612  0.00  0.00    +0.000 C 
ATOM     27  O   UNL     1       5.763   5.650  17.510  0.00  0.00    +0.000 OA
BRANCH  26  29
ATOM     28  C   UNL     1       7.508   5.673  19.527  0.00  0.00    +0.000 C 
ATOM     29  O   UNL     1       6.162   5.217  19.723  0.00  0.00    +0.000 OA
ENDBRANCH  26  29
ENDBRANCH   1  26
TORSDOF 5
ENDMDL
MODEL 9
REMARK VINA RESULT:      -8.4      2.341      3.554
REMARK  Name = 
REMARK  7 active torsions:
REMARK  status: ('A' for Active; 'I' for Inactive)
REMARK    1  A    between atoms: C_1  and  O_2
REMARK    2  A    between atoms: O_2  and  C_3
REMARK    3  A    between atoms: C_3  and  C_5
REMARK    4  A    between atoms: C_15  and  C_16
REMARK    5  A    between atoms: C_19  and  C_20
REMARK    6  A    between atoms: C_24  and  O_25
REMARK    7  A    between atoms: O_25  and  C_26
REMARK                            x       y       z     vdW  Elec       q    Type
REMARK                         _______ _______ _______ _____ _____    ______ ____
ROOT
ATOM      1  C   UNL     1       4.333   3.400  17.386  0.00  0.00    +0.000 C 
ATOM      2  C   UNL     1       4.585   4.179  18.856  0.00  0.00    +0.000 C 
ATOM      3  C   UNL     1       6.054   4.717  18.930  0.00  0.00    +0.000 C 
ATOM      4  C   UNL     1       6.255   5.142  17.495  0.00  0.00    +0.000 C 
ATOM      5  C   UNL     1       7.165   5.038  16.308  0.00  0.00    +0.000 C 
ATOM      6  C   UNL     1       6.035   4.629  15.280  0.00  0.00    +0.000 C 
ATOM      7  C   UNL     1       4.651   4.423  16.100  0.00  0.00    +0.000 C 
ATOM      8  N   UNL     1       5.005   5.649  16.812  0.00  0.00    +0.000 NA
ATOM      9  C   UNL     1       3.845   6.120  17.546  0.00  0.00    +0.000 C 
ATOM     10  C   UNL     1       3.757   5.457  18.870  0.00  0.00    +0.000 C 
ATOM     11  C   UNL     1       3.115   6.018  19.907  0.00  0.00    +0.000 C 
ENDROOT
BRANCH  11  12
ATOM     12  C   UNL     1       2.323   7.254  19.768  0.00  0.00    +0.000 A 
ATOM     13  C   UNL     1       2.297   7.935  18.550  0.00  0.00    +0.000 A 
ATOM     14  C   UNL     1       1.523   9.093  18.405  0.00  0.00    +0.000 A 
ATOM     15  C   UNL     1       0.768   9.620  19.472  0.00  0.00    +0.000 A 
ATOM     16  C   UNL     1       0.829   8.922  20.693  0.00  0.00    +0.000 A 
ATOM     17  C   UNL     1       1.597   7.768  20.844  0.00  0.00    +0.000 A 
BRANCH  15  18
ATOM     18  C   UNL     1      -0.045  10.849  19.314  0.00  0.00    +0.000 A 
ATOM     19  C   UNL     1       0.482  12.115  19.516  0.00  0.00    +0.000 A 
ATOM     20  C   UNL     1      -0.317  13.272  19.358  0.00  0.00    +0.000 A 
ATOM     21  C   UNL     1      -1.660  13.138  19.009  0.00  0.00    +0.000 A 
ATOM     22  C   UNL     1      -2.212  11.891  18.807  0.00  0.00    +0.000 A 
ATOM     23  C   UNL     1      -1.410  10.755  18.949  0.00  0.00    +0.000 A 
BRANCH  22  24
ATOM     24  O   UNL     1      -3.530  11.876  18.452  0.00  0.00    +0.000 OA
ATOM     25  C   UNL     1      -4.473  12.319  19.429  0.00  0.00    +0.000 C 
ENDBRANCH  22  24
ENDBRANCH  15  18
ENDBRANCH  11  12
BRANCH   1  26
ATOM     26  C   UNL     1       2.957   2.752  17.500  0.00  0.00    +0.000 C 
ATOM     27  O   UNL     1       1.968   3.155  16.850  0.00  0.00    +0.000 OA
BRANCH  26  29
ATOM     28  C   UNL     1       1.795   2.006  19.407  0.00  0.00    +0.000 C 
ATOM     29  O   UNL     1       2.874   1.824  18.480  0.00  0.00    +0.000 OA
ENDBRANCH  26  29
ENDBRANCH   1  26
TORSDOF 5
ENDMDL
