MODEL 1
REMARK VINA RESULT:      -8.3      0.000      0.000
REMARK  Name = 
REMARK  5 active torsions:
REMARK  status: ('A' for Active; 'I' for Inactive)
REMARK    1  A    between atoms: C_1  and  C_2
REMARK    2  A    between atoms: C_5  and  C_6
REMARK    3  A    between atoms: C_7  and  C_8
REMARK    4  A    between atoms: N_10  and  C_11
REMARK    5  A    between atoms: C_16  and  N_17
REMARK                            x       y       z     vdW  Elec       q    Type
REMARK                         _______ _______ _______ _____ _____    ______ ____
ROOT
ATOM      1  C   UNL     1       2.933   4.145  18.364  0.00  0.00    +0.000 A 
ATOM      2  C   UNL     1       2.772   2.748  18.336  0.00  0.00    +0.000 A 
ATOM      3  C   UNL     1       1.849   2.125  19.167  0.00  0.00    +0.000 A 
ATOM      4  C   UNL     1       1.052   2.898  19.996  0.00  0.00    +0.000 A 
ATOM      5  C   UNL     1       1.179   4.293  19.988  0.00  0.00    +0.000 A 
ATOM      6  C   UNL     1       2.118   4.973  19.181  0.00  0.00    +0.000 A 
ENDROOT
BRANCH   6   7
ATOM      7  N   UNL     1       2.193   6.360  19.218  0.00  0.00    +0.000 N 
ATOM      8  C   UNL     1       2.130   7.144  20.463  0.00  0.00    +0.000 C 
ATOM      9  C   UNL     1       1.260   8.386  20.208  0.00  0.00    +0.000 C 
ATOM     10  O   UNL     1       1.818   9.193  19.154  0.00  0.00    +0.000 OA
ATOM     11  C   UNL     1       1.895   8.430  17.938  0.00  0.00    +0.000 C 
ATOM     12  C   UNL     1       2.745   7.156  18.105  0.00  0.00    +0.000 C 
ENDBRANCH   6   7
BRANCH   1  15
ATOM     13  C   UNL     1       5.293   4.573  17.914  0.00  0.00    +0.000 C 
ATOM     14  O   UNL     1       5.689   4.028  18.938  0.00  0.00    +0.000 OA
ATOM     15  N   UNL     1       3.963   4.647  17.528  0.00  0.00    +0.000 N 
ATOM     16  H   UNL     1       3.833   4.470  16.543  0.00  0.00    +0.000 HD
BRANCH  13  23
ATOM     17  C   UNL     1       5.745   3.660  14.839  0.00  0.00    +0.000 C 
ATOM     18  C   UNL     1       6.434   4.732  15.598  0.00  0.00    +0.000 A 
ATOM     19  N   UNL     1       7.394   5.446  15.000  0.00  0.00    +0.000 NA
ATOM     20  O   UNL     1       7.856   6.322  15.953  0.00  0.00    +0.000 OA
ATOM     21  C   UNL     1       7.179   6.141  17.119  0.00  0.00    +0.000 A 
ATOM     22  C   UNL     1       7.639   6.999  18.228  0.00  0.00    +0.000 C 
ATOM     23  C   UNL     1       6.234   5.142  16.952  0.00  0.00    +0.000 A 
ENDBRANCH  13  23
ENDBRANCH   1  15
TORSDOF 3
ENDMDL
MODEL 2
REMARK VINA RESULT:      -8.2      1.666      3.652
REMARK  Name = 
REMARK  5 active torsions:
REMARK  status: ('A' for Active; 'I' for Inactive)
REMARK    1  A    between atoms: C_1  and  C_2
REMARK    2  A    between atoms: C_5  and  C_6
REMARK    3  A    between atoms: C_7  and  C_8
REMARK    4  A    between atoms: N_10  and  C_11
REMARK    5  A    between atoms: C_16  and  N_17
REMARK                            x       y       z     vdW  Elec       q    Type
REMARK                         _______ _______ _______ _____ _____    ______ ____
ROOT
ATOM      1  C   UNL     1       2.904   6.210  19.155  0.00  0.00    +0.000 A 
ATOM      2  C   UNL     1       2.567   7.511  19.572  0.00  0.00    +0.000 A 
ATOM      3  C   UNL     1       1.549   7.717  20.496  0.00  0.00    +0.000 A 
ATOM      4  C   UNL     1       0.896   6.624  21.040  0.00  0.00    +0.000 A 
ATOM      5  C   UNL     1       1.265   5.327  20.661  0.00  0.00    +0.000 A 
ATOM      6  C   UNL     1       2.274   5.064  19.709  0.00  0.00    +0.000 A 
ENDROOT
BRANCH   6   7
ATOM      7  N   UNL     1       2.595   3.753  19.378  0.00  0.00    +0.000 N 
ATOM      8  C   UNL     1       3.424   2.882  20.227  0.00  0.00    +0.000 C 
ATOM      9  C   UNL     1       4.377   2.087  19.319  0.00  0.00    +0.000 C 
ATOM     10  O   UNL     1       3.637   1.286  18.377  0.00  0.00    +0.000 OA
ATOM     11  C   UNL     1       2.815   2.130  17.554  0.00  0.00    +0.000 C 
ATOM     12  C   UNL     1       1.830   2.973  18.386  0.00  0.00    +0.000 C 
ENDBRANCH   6   7
BRANCH   1  15
ATOM     13  C   UNL     1       5.213   5.821  18.469  0.00  0.00    +0.000 C 
ATOM     14  O   UNL     1       5.600   5.514  19.590  0.00  0.00    +0.000 OA
ATOM     15  N   UNL     1       3.902   6.142  18.150  0.00  0.00    +0.000 N 
ATOM     16  H   UNL     1       3.600   5.726  17.281  0.00  0.00    +0.000 HD
BRANCH  13  23
ATOM     17  C   UNL     1       5.326   3.627  16.088  0.00  0.00    +0.000 C 
ATOM     18  C   UNL     1       6.175   4.828  16.282  0.00  0.00    +0.000 A 
ATOM     19  N   UNL     1       7.149   5.092  15.404  0.00  0.00    +0.000 NA
ATOM     20  O   UNL     1       7.768   6.229  15.865  0.00  0.00    +0.000 OA
ATOM     21  C   UNL     1       7.173   6.651  17.013  0.00  0.00    +0.000 A 
ATOM     22  C   UNL     1       7.802   7.839  17.622  0.00  0.00    +0.000 C 
ATOM     23  C   UNL     1       6.125   5.801  17.327  0.00  0.00    +0.000 A 
ENDBRANCH  13  23
ENDBRANCH   1  15
TORSDOF 3
ENDMDL
MODEL 3
REMARK VINA RESULT:      -8.1      1.694      4.024
REMARK  Name = 
REMARK  5 active torsions:
REMARK  status: ('A' for Active; 'I' for Inactive)
REMARK    1  A    between atoms: C_1  and  C_2
REMARK    2  A    between atoms: C_5  and  C_6
REMARK    3  A    between atoms: C_7  and  C_8
REMARK    4  A    between atoms: N_10  and  C_11
REMARK    5  A    between atoms: C_16  and  N_17
REMARK                            x       y       z     vdW  Elec       q    Type
REMARK                         _______ _______ _______ _____ _____    ______ ____
ROOT
ATOM      1  C   UNL     1       2.948   6.166  19.134  0.00  0.00    +0.000 A 
ATOM      2  C   UNL     1       2.661   7.497  19.486  0.00  0.00    +0.000 A 
ATOM      3  C   UNL     1       1.658   7.786  20.404  0.00  0.00    +0.000 A 
ATOM      4  C   UNL     1       0.969   6.746  21.006  0.00  0.00    +0.000 A 
ATOM      5  C   UNL     1       1.289   5.419  20.691  0.00  0.00    +0.000 A 
ATOM      6  C   UNL     1       2.281   5.072  19.748  0.00  0.00    +0.000 A 
ENDROOT
BRANCH   6   7
ATOM      7  N   UNL     1       2.553   3.736  19.481  0.00  0.00    +0.000 N 
ATOM      8  C   UNL     1       3.371   2.883  20.361  0.00  0.00    +0.000 C 
ATOM      9  C   UNL     1       4.278   2.010  19.478  0.00  0.00    +0.000 C 
ATOM     10  O   UNL     1       3.494   1.186  18.595  0.00  0.00    +0.000 OA
ATOM     11  C   UNL     1       2.682   2.011  17.744  0.00  0.00    +0.000 C 
ATOM     12  C   UNL     1       1.742   2.930  18.548  0.00  0.00    +0.000 C 
ENDBRANCH   6   7
BRANCH   1  15
ATOM     13  C   UNL     1       5.244   5.689  18.458  0.00  0.00    +0.000 C 
ATOM     14  O   UNL     1       5.635   5.453  19.596  0.00  0.00    +0.000 OA
ATOM     15  N   UNL     1       3.936   6.011  18.128  0.00  0.00    +0.000 N 
ATOM     16  H   UNL     1       3.619   5.542  17.292  0.00  0.00    +0.000 HD
BRANCH  13  23
ATOM     17  C   UNL     1       7.646   7.706  17.647  0.00  0.00    +0.000 C 
ATOM     18  C   UNL     1       7.200   6.471  16.957  0.00  0.00    +0.000 A 
ATOM     19  N   UNL     1       7.816   6.088  15.833  0.00  0.00    +0.000 NA
ATOM     20  O   UNL     1       7.167   4.950  15.420  0.00  0.00    +0.000 OA
ATOM     21  C   UNL     1       6.166   4.644  16.289  0.00  0.00    +0.000 A 
ATOM     22  C   UNL     1       5.367   3.463  15.905  0.00  0.00    +0.000 C 
ATOM     23  C   UNL     1       6.145   5.575  17.314  0.00  0.00    +0.000 A 
ENDBRANCH  13  23
ENDBRANCH   1  15
TORSDOF 3
ENDMDL
MODEL 4
REMARK VINA RESULT:      -8.0      0.452      1.730
REMARK  Name = 
REMARK  5 active torsions:
REMARK  status: ('A' for Active; 'I' for Inactive)
REMARK    1  A    between atoms: C_1  and  C_2
REMARK    2  A    between atoms: C_5  and  C_6
REMARK    3  A    between atoms: C_7  and  C_8
REMARK    4  A    between atoms: N_10  and  C_11
REMARK    5  A    between atoms: C_16  and  N_17
REMARK                            x       y       z     vdW  Elec       q    Type
REMARK                         _______ _______ _______ _____ _____    ______ ____
ROOT
ATOM      1  C   UNL     1       2.872   4.086  18.437  0.00  0.00    +0.000 A 
ATOM      2  C   UNL     1       2.693   2.690  18.433  0.00  0.00    +0.000 A 
ATOM      3  C   UNL     1       1.779   2.090  19.290  0.00  0.00    +0.000 A 
ATOM      4  C   UNL     1       1.008   2.885  20.123  0.00  0.00    +0.000 A 
ATOM      5  C   UNL     1       1.152   4.277  20.093  0.00  0.00    +0.000 A 
ATOM      6  C   UNL     1       2.083   4.935  19.259  0.00  0.00    +0.000 A 
ENDROOT
BRANCH   6   7
ATOM      7  N   UNL     1       2.175   6.321  19.274  0.00  0.00    +0.000 N 
ATOM      8  C   UNL     1       2.104   7.126  20.506  0.00  0.00    +0.000 C 
ATOM      9  C   UNL     1       1.254   8.375  20.218  0.00  0.00    +0.000 C 
ATOM     10  O   UNL     1       1.838   9.158  19.160  0.00  0.00    +0.000 OA
ATOM     11  C   UNL     1       1.922   8.374  17.958  0.00  0.00    +0.000 C 
ATOM     12  C   UNL     1       2.754   7.092  18.157  0.00  0.00    +0.000 C 
ENDBRANCH   6   7
BRANCH   1  15
ATOM     13  C   UNL     1       5.229   4.431  17.912  0.00  0.00    +0.000 C 
ATOM     14  O   UNL     1       5.639   3.854  18.912  0.00  0.00    +0.000 OA
ATOM     15  N   UNL     1       3.890   4.564  17.575  0.00  0.00    +0.000 N 
ATOM     16  H   UNL     1       3.720   4.409  16.592  0.00  0.00    +0.000 HD
BRANCH  13  23
ATOM     17  C   UNL     1       7.566   6.615  18.428  0.00  0.00    +0.000 C 
ATOM     18  C   UNL     1       7.184   5.950  17.159  0.00  0.00    +0.000 A 
ATOM     19  N   UNL     1       7.837   6.259  16.034  0.00  0.00    +0.000 NA
ATOM     20  O   UNL     1       7.242   5.517  15.041  0.00  0.00    +0.000 OA
ATOM     21  C   UNL     1       6.237   4.764  15.562  0.00  0.00    +0.000 A 
ATOM     22  C   UNL     1       5.493   3.969  14.565  0.00  0.00    +0.000 C 
ATOM     23  C   UNL     1       6.158   4.982  16.928  0.00  0.00    +0.000 A 
ENDBRANCH  13  23
ENDBRANCH   1  15
TORSDOF 3
ENDMDL
MODEL 5
REMARK VINA RESULT:      -8.0      1.197      1.574
REMARK  Name = 
REMARK  5 active torsions:
REMARK  status: ('A' for Active; 'I' for Inactive)
REMARK    1  A    between atoms: C_1  and  C_2
REMARK    2  A    between atoms: C_5  and  C_6
REMARK    3  A    between atoms: C_7  and  C_8
REMARK    4  A    between atoms: N_10  and  C_11
REMARK    5  A    between atoms: C_16  and  N_17
REMARK                            x       y       z     vdW  Elec       q    Type
REMARK                         _______ _______ _______ _____ _____    ______ ____
ROOT
ATOM      1  C   UNL     1       3.774   3.987  19.527  0.00  0.00    +0.000 A 
ATOM      2  C   UNL     1       4.129   2.707  19.991  0.00  0.00    +0.000 A 
ATOM      3  C   UNL     1       3.466   2.137  21.071  0.00  0.00    +0.000 A 
ATOM      4  C   UNL     1       2.418   2.823  21.663  0.00  0.00    +0.000 A 
ATOM      5  C   UNL     1       2.033   4.076  21.169  0.00  0.00    +0.000 A 
ATOM      6  C   UNL     1       2.689   4.710  20.091  0.00  0.00    +0.000 A 
ENDROOT
BRANCH   6   7
ATOM      7  N   UNL     1       2.257   5.953  19.646  0.00  0.00    +0.000 N 
ATOM      8  C   UNL     1       2.223   6.340  18.225  0.00  0.00    +0.000 C 
ATOM      9  C   UNL     1       2.711   7.794  18.109  0.00  0.00    +0.000 C 
ATOM     10  O   UNL     1       1.870   8.678  18.873  0.00  0.00    +0.000 OA
ATOM     11  C   UNL     1       1.886   8.298  20.259  0.00  0.00    +0.000 C 
ATOM     12  C   UNL     1       1.418   6.845  20.469  0.00  0.00    +0.000 C 
ENDBRANCH   6   7
BRANCH   1  15
ATOM     13  C   UNL     1       5.853   4.981  18.722  0.00  0.00    +0.000 C 
ATOM     14  O   UNL     1       6.400   4.967  19.818  0.00  0.00    +0.000 OA
ATOM     15  N   UNL     1       4.580   4.488  18.473  0.00  0.00    +0.000 N 
ATOM     16  H   UNL     1       4.529   3.961  17.613  0.00  0.00    +0.000 HD
BRANCH  13  23
ATOM     17  C   UNL     1       5.864   3.657  15.765  0.00  0.00    +0.000 C 
ATOM     18  C   UNL     1       6.560   4.880  16.236  0.00  0.00    +0.000 A 
ATOM     19  N   UNL     1       7.327   5.568  15.383  0.00  0.00    +0.000 NA
ATOM     20  O   UNL     1       7.853   6.608  16.110  0.00  0.00    +0.000 OA
ATOM     21  C   UNL     1       7.407   6.552  17.393  0.00  0.00    +0.000 A 
ATOM     22  C   UNL     1       7.960   7.598  18.276  0.00  0.00    +0.000 C 
ATOM     23  C   UNL     1       6.553   5.470  17.537  0.00  0.00    +0.000 A 
ENDBRANCH  13  23
ENDBRANCH   1  15
TORSDOF 3
ENDMDL
MODEL 6
REMARK VINA RESULT:      -7.6      1.028      1.028
REMARK  Name = 
REMARK  5 active torsions:
REMARK  status: ('A' for Active; 'I' for Inactive)
REMARK    1  A    between atoms: C_1  and  C_2
REMARK    2  A    between atoms: C_5  and  C_6
REMARK    3  A    between atoms: C_7  and  C_8
REMARK    4  A    between atoms: N_10  and  C_11
REMARK    5  A    between atoms: C_16  and  N_17
REMARK                            x       y       z     vdW  Elec       q    Type
REMARK                         _______ _______ _______ _____ _____    ______ ____
ROOT
ATOM      1  C   UNL     1       3.319   4.555  19.323  0.00  0.00    +0.000 A 
ATOM      2  C   UNL     1       3.286   3.177  19.606  0.00  0.00    +0.000 A 
ATOM      3  C   UNL     1       2.290   2.643  20.415  0.00  0.00    +0.000 A 
ATOM      4  C   UNL     1       1.298   3.475  20.907  0.00  0.00    +0.000 A 
ATOM      5  C   UNL     1       1.303   4.838  20.586  0.00  0.00    +0.000 A 
ATOM      6  C   UNL     1       2.305   5.435  19.789  0.00  0.00    +0.000 A 
ENDROOT
BRANCH   6   7
ATOM      7  N   UNL     1       2.252   6.794  19.504  0.00  0.00    +0.000 N 
ATOM      8  C   UNL     1       1.964   7.824  20.516  0.00  0.00    +0.000 C 
ATOM      9  C   UNL     1       1.027   8.869  19.887  0.00  0.00    +0.000 C 
ATOM     10  O   UNL     1       1.639   9.478  18.735  0.00  0.00    +0.000 OA
ATOM     11  C   UNL     1       1.935   8.475  17.748  0.00  0.00    +0.000 C 
ATOM     12  C   UNL     1       2.867   7.378  18.296  0.00  0.00    +0.000 C 
ENDBRANCH   6   7
BRANCH   1  15
ATOM     13  C   UNL     1       4.582   4.582  17.236  0.00  0.00    +0.000 C 
ATOM     14  O   UNL     1       3.770   3.903  16.619  0.00  0.00    +0.000 OA
ATOM     15  N   UNL     1       4.430   4.984  18.555  0.00  0.00    +0.000 N 
ATOM     16  H   UNL     1       4.701   5.946  18.701  0.00  0.00    +0.000 HD
BRANCH  13  23
ATOM     17  C   UNL     1       5.460   4.173  14.145  0.00  0.00    +0.000 C 
ATOM     18  C   UNL     1       6.168   4.910  15.219  0.00  0.00    +0.000 A 
ATOM     19  N   UNL     1       7.341   5.494  14.950  0.00  0.00    +0.000 NA
ATOM     20  O   UNL     1       7.757   6.057  16.132  0.00  0.00    +0.000 OA
ATOM     21  C   UNL     1       6.842   5.818  17.109  0.00  0.00    +0.000 A 
ATOM     22  C   UNL     1       7.222   6.336  18.439  0.00  0.00    +0.000 C 
ATOM     23  C   UNL     1       5.782   5.098  16.582  0.00  0.00    +0.000 A 
ENDBRANCH  13  23
ENDBRANCH   1  15
TORSDOF 3
ENDMDL
MODEL 7
REMARK VINA RESULT:      -7.6      1.252      2.328
REMARK  Name = 
REMARK  5 active torsions:
REMARK  status: ('A' for Active; 'I' for Inactive)
REMARK    1  A    between atoms: C_1  and  C_2
REMARK    2  A    between atoms: C_5  and  C_6
REMARK    3  A    between atoms: C_7  and  C_8
REMARK    4  A    between atoms: N_10  and  C_11
REMARK    5  A    between atoms: C_16  and  N_17
REMARK                            x       y       z     vdW  Elec       q    Type
REMARK                         _______ _______ _______ _____ _____    ______ ____
ROOT
ATOM      1  C   UNL     1       3.779   3.863  19.514  0.00  0.00    +0.000 A 
ATOM      2  C   UNL     1       4.125   2.589  20.001  0.00  0.00    +0.000 A 
ATOM      3  C   UNL     1       3.479   2.055  21.109  0.00  0.00    +0.000 A 
ATOM      4  C   UNL     1       2.454   2.770  21.707  0.00  0.00    +0.000 A 
ATOM      5  C   UNL     1       2.077   4.017  21.193  0.00  0.00    +0.000 A 
ATOM      6  C   UNL     1       2.718   4.615  20.086  0.00  0.00    +0.000 A 
ENDROOT
BRANCH   6   7
ATOM      7  N   UNL     1       2.294   5.855  19.621  0.00  0.00    +0.000 N 
ATOM      8  C   UNL     1       2.288   6.228  18.197  0.00  0.00    +0.000 C 
ATOM      9  C   UNL     1       2.778   7.681  18.077  0.00  0.00    +0.000 C 
ATOM     10  O   UNL     1       1.922   8.572  18.816  0.00  0.00    +0.000 OA
ATOM     11  C   UNL     1       1.912   8.205  20.206  0.00  0.00    +0.000 C 
ATOM     12  C   UNL     1       1.440   6.754  20.420  0.00  0.00    +0.000 C 
ENDBRANCH   6   7
BRANCH   1  15
ATOM     13  C   UNL     1       5.836   4.845  18.645  0.00  0.00    +0.000 C 
ATOM     14  O   UNL     1       6.395   4.886  19.735  0.00  0.00    +0.000 OA
ATOM     15  N   UNL     1       4.568   4.326  18.431  0.00  0.00    +0.000 N 
ATOM     16  H   UNL     1       4.514   3.762  17.596  0.00  0.00    +0.000 HD
BRANCH  13  23
ATOM     17  C   UNL     1       7.753   7.436  18.313  0.00  0.00    +0.000 C 
ATOM     18  C   UNL     1       7.359   6.438  17.289  0.00  0.00    +0.000 A 
ATOM     19  N   UNL     1       7.804   6.573  16.036  0.00  0.00    +0.000 NA
ATOM     20  O   UNL     1       7.250   5.533  15.328  0.00  0.00    +0.000 OA
ATOM     21  C   UNL     1       6.477   4.772  16.148  0.00  0.00    +0.000 A 
ATOM     22  C   UNL     1       5.789   3.655  15.471  0.00  0.00    +0.000 C 
ATOM     23  C   UNL     1       6.519   5.290  17.433  0.00  0.00    +0.000 A 
ENDBRANCH  13  23
ENDBRANCH   1  15
TORSDOF 3
ENDMDL
MODEL 8
REMARK VINA RESULT:      -7.6      1.249      1.614
REMARK  Name = 
REMARK  5 active torsions:
REMARK  status: ('A' for Active; 'I' for Inactive)
REMARK    1  A    between atoms: C_1  and  C_2
REMARK    2  A    between atoms: C_5  and  C_6
REMARK    3  A    between atoms: C_7  and  C_8
REMARK    4  A    between atoms: N_10  and  C_11
REMARK    5  A    between atoms: C_16  and  N_17
REMARK                            x       y       z     vdW  Elec       q    Type
REMARK                         _______ _______ _______ _____ _____    ______ ____
ROOT
ATOM      1  C   UNL     1       3.858   4.074  19.721  0.00  0.00    +0.000 A 
ATOM      2  C   UNL     1       4.199   2.789  20.182  0.00  0.00    +0.000 A 
ATOM      3  C   UNL     1       3.386   2.124  21.091  0.00  0.00    +0.000 A 
ATOM      4  C   UNL     1       2.206   2.719  21.508  0.00  0.00    +0.000 A 
ATOM      5  C   UNL     1       1.843   3.977  21.012  0.00  0.00    +0.000 A 
ATOM      6  C   UNL     1       2.645   4.706  20.107  0.00  0.00    +0.000 A 
ENDROOT
BRANCH   6   7
ATOM      7  N   UNL     1       2.227   5.949  19.649  0.00  0.00    +0.000 N 
ATOM      8  C   UNL     1       2.195   6.321  18.225  0.00  0.00    +0.000 C 
ATOM      9  C   UNL     1       2.700   7.768  18.092  0.00  0.00    +0.000 C 
ATOM     10  O   UNL     1       1.870   8.670  18.848  0.00  0.00    +0.000 OA
ATOM     11  C   UNL     1       1.885   8.305  20.237  0.00  0.00    +0.000 C 
ATOM     12  C   UNL     1       1.400   6.860  20.464  0.00  0.00    +0.000 C 
ENDBRANCH   6   7
BRANCH   1  15
ATOM     13  C   UNL     1       5.008   4.201  17.573  0.00  0.00    +0.000 C 
ATOM     14  O   UNL     1       4.357   3.300  17.058  0.00  0.00    +0.000 OA
ATOM     15  N   UNL     1       4.811   4.676  18.861  0.00  0.00    +0.000 N 
ATOM     16  H   UNL     1       4.853   5.683  18.915  0.00  0.00    +0.000 HD
BRANCH  13  23
ATOM     17  C   UNL     1       5.476   4.139  14.368  0.00  0.00    +0.000 C 
ATOM     18  C   UNL     1       6.237   4.883  15.401  0.00  0.00    +0.000 A 
ATOM     19  N   UNL     1       7.280   5.635  15.034  0.00  0.00    +0.000 NA
ATOM     20  O   UNL     1       7.790   6.161  16.196  0.00  0.00    +0.000 OA
ATOM     21  C   UNL     1       7.060   5.731  17.260  0.00  0.00    +0.000 A 
ATOM     22  C   UNL     1       7.561   6.196  18.569  0.00  0.00    +0.000 C 
ATOM     23  C   UNL     1       6.031   4.918  16.815  0.00  0.00    +0.000 A 
ENDBRANCH  13  23
ENDBRANCH   1  15
TORSDOF 3
ENDMDL
MODEL 9
REMARK VINA RESULT:      -7.4      1.339      2.343
REMARK  Name = 
REMARK  5 active torsions:
REMARK  status: ('A' for Active; 'I' for Inactive)
REMARK    1  A    between atoms: C_1  and  C_2
REMARK    2  A    between atoms: C_5  and  C_6
REMARK    3  A    between atoms: C_7  and  C_8
REMARK    4  A    between atoms: N_10  and  C_11
REMARK    5  A    between atoms: C_16  and  N_17
REMARK                            x       y       z     vdW  Elec       q    Type
REMARK                         _______ _______ _______ _____ _____    ______ ____
ROOT
ATOM      1  C   UNL     1       3.830   4.035  19.725  0.00  0.00    +0.000 A 
ATOM      2  C   UNL     1       4.175   2.751  20.186  0.00  0.00    +0.000 A 
ATOM      3  C   UNL     1       3.380   2.096  21.118  0.00  0.00    +0.000 A 
ATOM      4  C   UNL     1       2.214   2.700  21.559  0.00  0.00    +0.000 A 
ATOM      5  C   UNL     1       1.845   3.957  21.063  0.00  0.00    +0.000 A 
ATOM      6  C   UNL     1       2.630   4.676  20.135  0.00  0.00    +0.000 A 
ENDROOT
BRANCH   6   7
ATOM      7  N   UNL     1       2.208   5.919  19.679  0.00  0.00    +0.000 N 
ATOM      8  C   UNL     1       2.167   6.289  18.254  0.00  0.00    +0.000 C 
ATOM      9  C   UNL     1       2.669   7.737  18.118  0.00  0.00    +0.000 C 
ATOM     10  O   UNL     1       1.843   8.639  18.878  0.00  0.00    +0.000 OA
ATOM     11  C   UNL     1       1.867   8.274  20.268  0.00  0.00    +0.000 C 
ATOM     12  C   UNL     1       1.384   6.829  20.498  0.00  0.00    +0.000 C 
ENDBRANCH   6   7
BRANCH   1  15
ATOM     13  C   UNL     1       4.969   4.108  17.568  0.00  0.00    +0.000 C 
ATOM     14  O   UNL     1       4.337   3.173  17.090  0.00  0.00    +0.000 OA
ATOM     15  N   UNL     1       4.766   4.626  18.839  0.00  0.00    +0.000 N 
ATOM     16  H   UNL     1       4.785   5.635  18.855  0.00  0.00    +0.000 HD
BRANCH  13  23
ATOM     17  C   UNL     1       7.263   6.115  18.666  0.00  0.00    +0.000 C 
ATOM     18  C   UNL     1       6.979   5.709  17.268  0.00  0.00    +0.000 A 
ATOM     19  N   UNL     1       7.719   6.214  16.274  0.00  0.00    +0.000 NA
ATOM     20  O   UNL     1       7.201   5.685  15.117  0.00  0.00    +0.000 OA
ATOM     21  C   UNL     1       6.156   4.864  15.407  0.00  0.00    +0.000 A 
ATOM     22  C   UNL     1       5.491   4.284  14.223  0.00  0.00    +0.000 C 
ATOM     23  C   UNL     1       5.972   4.820  16.780  0.00  0.00    +0.000 A 
ENDBRANCH  13  23
ENDBRANCH   1  15
TORSDOF 3
ENDMDL
