MODEL 1
REMARK VINA RESULT:      -7.6      0.000      0.000
REMARK  Name = 
REMARK  9 active torsions:
REMARK  status: ('A' for Active; 'I' for Inactive)
REMARK    1  A    between atoms: C_1  and  C_2
REMARK    2  A    between atoms: N_5  and  C_6
REMARK    3  A    between atoms: C_6  and  C_7
REMARK    4  A    between atoms: C_7  and  C_8
REMARK    5  A    between atoms: C_8  and  N_9
REMARK    6  A    between atoms: N_9  and  C_10
REMARK    7  A    between atoms: N_9  and  C_11
REMARK    8  A    between atoms: C_24  and  C_25
REMARK    9  A    between atoms: C_24  and  C_26
REMARK                            x       y       z     vdW  Elec       q    Type
REMARK                         _______ _______ _______ _____ _____    ______ ____
ROOT
ATOM      1  C   UNL     1       2.149   3.900  21.364  0.00  0.00    +0.000 C 
ATOM      2  C   UNL     1       2.303   5.063  20.430  0.00  0.00    +0.000 A 
ATOM      3  N   UNL     1       3.014   4.864  19.314  0.00  0.00    +0.000 NA
ATOM      4  C   UNL     1       3.215   5.868  18.438  0.00  0.00    +0.000 A 
ATOM      5  N   UNL     1       4.017   5.640  17.336  0.00  0.00    +0.000 N 
ATOM      6  C   UNL     1       2.618   7.108  18.736  0.00  0.00    +0.000 A 
ATOM      7  S   UNL     1       2.600   8.599  17.869  0.00  0.00    +0.000 S 
ATOM      8  C   UNL     1       1.614   9.360  19.039  0.00  0.00    +0.000 A 
ATOM      9  N   UNL     1       1.213  10.643  18.894  0.00  0.00    +0.000 NA
ATOM     10  C   UNL     1       0.437  11.109  19.909  0.00  0.00    +0.000 A 
ATOM     11  C   UNL     1       0.083  10.377  21.039  0.00  0.00    +0.000 A 
ATOM     12  C   UNL     1       0.507   9.053  21.128  0.00  0.00    +0.000 A 
ATOM     13  C   UNL     1       1.305   8.520  20.094  0.00  0.00    +0.000 A 
ATOM     14  C   UNL     1       1.877   7.221  19.906  0.00  0.00    +0.000 A 
ATOM     15  N   UNL     1       1.715   6.200  20.785  0.00  0.00    +0.000 NA
ATOM     16  C   UNL     1      -0.801  10.950  22.109  0.00  0.00    +0.000 C 
ATOM     17  O   UNL     1      -0.993  12.359  22.004  0.00  0.00    +0.000 OA
ATOM     18  C   UNL     1      -1.258  12.822  20.670  0.00  0.00    +0.000 C 
ATOM     19  C   UNL     1      -2.543  12.197  20.100  0.00  0.00    +0.000 C 
ATOM     20  C   UNL     1      -1.473  14.335  20.795  0.00  0.00    +0.000 C 
ATOM     21  C   UNL     1      -0.027  12.544  19.789  0.00  0.00    +0.000 C 
ATOM     22  H   UNL     1       4.287   6.425  16.760  0.00  0.00    +0.000 HD
ENDROOT
BRANCH   5  23
ATOM     23  C   UNL     1       4.095   4.296  16.777  0.00  0.00    +0.000 C 
BRANCH  23  24
ATOM     24  C   UNL     1       5.406   4.054  16.028  0.00  0.00    +0.000 C 
BRANCH  24  25
ATOM     25  C   UNL     1       6.068   5.405  15.700  0.00  0.00    +0.000 C 
BRANCH  25  26
ATOM     26  N   UNL     1       7.311   5.675  16.441  0.00  0.00    +0.000 NA
ATOM     27  C   UNL     1       7.255   6.941  17.171  0.00  0.00    +0.000 C 
ATOM     28  C   UNL     1       7.575   4.579  17.383  0.00  0.00    +0.000 C 
ENDBRANCH  25  26
ENDBRANCH  24  25
ENDBRANCH  23  24
ENDBRANCH   5  23
TORSDOF 4
ENDMDL
MODEL 2
REMARK VINA RESULT:      -7.2      3.445      9.636
REMARK  Name = 
REMARK  9 active torsions:
REMARK  status: ('A' for Active; 'I' for Inactive)
REMARK    1  A    between atoms: C_1  and  C_2
REMARK    2  A    between atoms: N_5  and  C_6
REMARK    3  A    between atoms: C_6  and  C_7
REMARK    4  A    between atoms: C_7  and  C_8
REMARK    5  A    between atoms: C_8  and  N_9
REMARK    6  A    between atoms: N_9  and  C_10
REMARK    7  A    between atoms: N_9  and  C_11
REMARK    8  A    between atoms: C_24  and  C_25
REMARK    9  A    between atoms: C_24  and  C_26
REMARK                            x       y       z     vdW  Elec       q    Type
REMARK                         _______ _______ _______ _____ _____    ______ ____
ROOT
ATOM      1  C   UNL     1      -0.238  13.896  18.595  0.00  0.00    +0.000 C 
ATOM      2  C   UNL     1      -0.124  12.758  19.563  0.00  0.00    +0.000 A 
ATOM      3  N   UNL     1      -0.678  12.921  20.771  0.00  0.00    +0.000 NA
ATOM      4  C   UNL     1      -0.596  11.951  21.703  0.00  0.00    +0.000 A 
ATOM      5  N   UNL     1      -1.116  12.191  22.960  0.00  0.00    +0.000 N 
ATOM      6  C   UNL     1       0.063  10.763  21.334  0.00  0.00    +0.000 A 
ATOM      7  S   UNL     1       0.338   9.299  22.204  0.00  0.00    +0.000 S 
ATOM      8  C   UNL     1       1.133   8.568  20.880  0.00  0.00    +0.000 A 
ATOM      9  N   UNL     1       1.604   7.302  20.953  0.00  0.00    +0.000 NA
ATOM     10  C   UNL     1       2.217   6.862  19.822  0.00  0.00    +0.000 A 
ATOM     11  C   UNL     1       2.396   7.621  18.669  0.00  0.00    +0.000 A 
ATOM     12  C   UNL     1       1.873   8.912  18.640  0.00  0.00    +0.000 A 
ATOM     13  C   UNL     1       1.219   9.410  19.787  0.00  0.00    +0.000 A 
ATOM     14  C   UNL     1       0.590  10.669  20.052  0.00  0.00    +0.000 A 
ATOM     15  N   UNL     1       0.517  11.673  19.143  0.00  0.00    +0.000 NA
ATOM     16  C   UNL     1       3.061   7.058  17.445  0.00  0.00    +0.000 C 
ATOM     17  O   UNL     1       3.726   5.817  17.671  0.00  0.00    +0.000 OA
ATOM     18  C   UNL     1       2.973   4.877  18.453  0.00  0.00    +0.000 C 
ATOM     19  C   UNL     1       1.647   4.504  17.769  0.00  0.00    +0.000 C 
ATOM     20  C   UNL     1       3.845   3.617  18.532  0.00  0.00    +0.000 C 
ATOM     21  C   UNL     1       2.765   5.452  19.865  0.00  0.00    +0.000 C 
ATOM     22  H   UNL     1      -0.928  11.527  23.699  0.00  0.00    +0.000 HD
ENDROOT
BRANCH   5  23
ATOM     23  C   UNL     1      -2.245  13.102  23.104  0.00  0.00    +0.000 C 
BRANCH  23  24
ATOM     24  C   UNL     1      -3.540  12.372  23.462  0.00  0.00    +0.000 C 
BRANCH  24  25
ATOM     25  C   UNL     1      -4.709  12.981  22.666  0.00  0.00    +0.000 C 
BRANCH  25  26
ATOM     26  N   UNL     1      -5.987  12.264  22.811  0.00  0.00    +0.000 NA
ATOM     27  C   UNL     1      -6.764  12.748  23.953  0.00  0.00    +0.000 C 
ATOM     28  C   UNL     1      -6.780  12.411  21.583  0.00  0.00    +0.000 C 
ENDBRANCH  25  26
ENDBRANCH  24  25
ENDBRANCH  23  24
ENDBRANCH   5  23
TORSDOF 4
ENDMDL
MODEL 3
REMARK VINA RESULT:      -7.2      2.809      8.027
REMARK  Name = 
REMARK  9 active torsions:
REMARK  status: ('A' for Active; 'I' for Inactive)
REMARK    1  A    between atoms: C_1  and  C_2
REMARK    2  A    between atoms: N_5  and  C_6
REMARK    3  A    between atoms: C_6  and  C_7
REMARK    4  A    between atoms: C_7  and  C_8
REMARK    5  A    between atoms: C_8  and  N_9
REMARK    6  A    between atoms: N_9  and  C_10
REMARK    7  A    between atoms: N_9  and  C_11
REMARK    8  A    between atoms: C_24  and  C_25
REMARK    9  A    between atoms: C_24  and  C_26
REMARK                            x       y       z     vdW  Elec       q    Type
REMARK                         _______ _______ _______ _____ _____    ______ ____
ROOT
ATOM      1  C   UNL     1      -0.426   9.296  23.368  0.00  0.00    +0.000 C 
ATOM      2  C   UNL     1       0.072   9.494  21.968  0.00  0.00    +0.000 A 
ATOM      3  N   UNL     1      -0.288  10.621  21.342  0.00  0.00    +0.000 NA
ATOM      4  C   UNL     1       0.102  10.858  20.073  0.00  0.00    +0.000 A 
ATOM      5  N   UNL     1      -0.353  11.998  19.439  0.00  0.00    +0.000 N 
ATOM      6  C   UNL     1       0.923   9.890  19.464  0.00  0.00    +0.000 A 
ATOM      7  S   UNL     1       1.655   9.840  17.903  0.00  0.00    +0.000 S 
ATOM      8  C   UNL     1       2.416   8.344  18.219  0.00  0.00    +0.000 A 
ATOM      9  N   UNL     1       3.210   7.749  17.299  0.00  0.00    +0.000 NA
ATOM     10  C   UNL     1       3.739   6.561  17.696  0.00  0.00    +0.000 A 
ATOM     11  C   UNL     1       3.493   5.950  18.921  0.00  0.00    +0.000 A 
ATOM     12  C   UNL     1       2.683   6.616  19.840  0.00  0.00    +0.000 A 
ATOM     13  C   UNL     1       2.118   7.857  19.479  0.00  0.00    +0.000 A 
ATOM     14  C   UNL     1       1.268   8.760  20.195  0.00  0.00    +0.000 A 
ATOM     15  N   UNL     1       0.837   8.533  21.461  0.00  0.00    +0.000 NA
ATOM     16  C   UNL     1       4.135   4.647  19.301  0.00  0.00    +0.000 C 
ATOM     17  O   UNL     1       4.765   3.977  18.212  0.00  0.00    +0.000 OA
ATOM     18  C   UNL     1       5.553   4.832  17.368  0.00  0.00    +0.000 C 
ATOM     19  C   UNL     1       6.699   5.497  18.149  0.00  0.00    +0.000 C 
ATOM     20  C   UNL     1       6.166   3.910  16.306  0.00  0.00    +0.000 C 
ATOM     21  C   UNL     1       4.629   5.860  16.692  0.00  0.00    +0.000 C 
ATOM     22  H   UNL     1      -0.184  12.104  18.448  0.00  0.00    +0.000 HD
ENDROOT
BRANCH   5  23
ATOM     23  C   UNL     1      -0.658  13.183  20.232  0.00  0.00    +0.000 C 
BRANCH  23  24
ATOM     24  C   UNL     1      -0.356  14.479  19.480  0.00  0.00    +0.000 C 
BRANCH  24  25
ATOM     25  C   UNL     1       1.106  14.890  19.730  0.00  0.00    +0.000 C 
BRANCH  25  26
ATOM     26  N   UNL     1       2.071  13.778  19.693  0.00  0.00    +0.000 NA
ATOM     27  C   UNL     1       2.893  13.802  18.483  0.00  0.00    +0.000 C 
ATOM     28  C   UNL     1       2.940  13.836  20.876  0.00  0.00    +0.000 C 
ENDBRANCH  25  26
ENDBRANCH  24  25
ENDBRANCH  23  24
ENDBRANCH   5  23
TORSDOF 4
ENDMDL
MODEL 4
REMARK VINA RESULT:      -7.1      0.905      1.090
REMARK  Name = 
REMARK  9 active torsions:
REMARK  status: ('A' for Active; 'I' for Inactive)
REMARK    1  A    between atoms: C_1  and  C_2
REMARK    2  A    between atoms: N_5  and  C_6
REMARK    3  A    between atoms: C_6  and  C_7
REMARK    4  A    between atoms: C_7  and  C_8
REMARK    5  A    between atoms: C_8  and  N_9
REMARK    6  A    between atoms: N_9  and  C_10
REMARK    7  A    between atoms: N_9  and  C_11
REMARK    8  A    between atoms: C_24  and  C_25
REMARK    9  A    between atoms: C_24  and  C_26
REMARK                            x       y       z     vdW  Elec       q    Type
REMARK                         _______ _______ _______ _____ _____    ______ ____
ROOT
ATOM      1  C   UNL     1       1.849   3.468  21.450  0.00  0.00    +0.000 C 
ATOM      2  C   UNL     1       2.023   4.704  20.620  0.00  0.00    +0.000 A 
ATOM      3  N   UNL     1       2.660   4.574  19.450  0.00  0.00    +0.000 NA
ATOM      4  C   UNL     1       2.874   5.644  18.660  0.00  0.00    +0.000 A 
ATOM      5  N   UNL     1       3.601   5.478  17.496  0.00  0.00    +0.000 N 
ATOM      6  C   UNL     1       2.371   6.881  19.106  0.00  0.00    +0.000 A 
ATOM      7  S   UNL     1       2.397   8.446  18.383  0.00  0.00    +0.000 S 
ATOM      8  C   UNL     1       1.523   9.146  19.674  0.00  0.00    +0.000 A 
ATOM      9  N   UNL     1       1.194  10.457  19.672  0.00  0.00    +0.000 NA
ATOM     10  C   UNL     1       0.503  10.866  20.770  0.00  0.00    +0.000 A 
ATOM     11  C   UNL     1       0.166  10.051  21.846  0.00  0.00    +0.000 A 
ATOM     12  C   UNL     1       0.513   8.703  21.787  0.00  0.00    +0.000 A 
ATOM     13  C   UNL     1       1.221   8.228  20.663  0.00  0.00    +0.000 A 
ATOM     14  C   UNL     1       1.702   6.922  20.323  0.00  0.00    +0.000 A 
ATOM     15  N   UNL     1       1.525   5.833  21.112  0.00  0.00    +0.000 NA
ATOM     16  C   UNL     1      -0.623  10.568  23.015  0.00  0.00    +0.000 C 
ATOM     17  O   UNL     1      -0.734  11.989  23.052  0.00  0.00    +0.000 OA
ATOM     18  C   UNL     1      -1.042  12.591  21.784  0.00  0.00    +0.000 C 
ATOM     19  C   UNL     1      -2.391  12.095  21.235  0.00  0.00    +0.000 C 
ATOM     20  C   UNL     1      -1.158  14.095  22.061  0.00  0.00    +0.000 C 
ATOM     21  C   UNL     1       0.121  12.330  20.810  0.00  0.00    +0.000 C 
ATOM     22  H   UNL     1       3.887   6.298  16.980  0.00  0.00    +0.000 HD
ENDROOT
BRANCH   5  23
ATOM     23  C   UNL     1       3.567   4.191  16.812  0.00  0.00    +0.000 C 
BRANCH  23  24
ATOM     24  C   UNL     1       4.797   3.969  15.932  0.00  0.00    +0.000 C 
BRANCH  24  25
ATOM     25  C   UNL     1       5.346   5.329  15.464  0.00  0.00    +0.000 C 
BRANCH  25  26
ATOM     26  N   UNL     1       6.816   5.420  15.433  0.00  0.00    +0.000 NA
ATOM     27  C   UNL     1       7.434   4.734  16.568  0.00  0.00    +0.000 C 
ATOM     28  C   UNL     1       7.322   4.846  14.180  0.00  0.00    +0.000 C 
ENDBRANCH  25  26
ENDBRANCH  24  25
ENDBRANCH  23  24
ENDBRANCH   5  23
TORSDOF 4
ENDMDL
MODEL 5
REMARK VINA RESULT:      -6.9      3.052      8.961
REMARK  Name = 
REMARK  9 active torsions:
REMARK  status: ('A' for Active; 'I' for Inactive)
REMARK    1  A    between atoms: C_1  and  C_2
REMARK    2  A    between atoms: N_5  and  C_6
REMARK    3  A    between atoms: C_6  and  C_7
REMARK    4  A    between atoms: C_7  and  C_8
REMARK    5  A    between atoms: C_8  and  N_9
REMARK    6  A    between atoms: N_9  and  C_10
REMARK    7  A    between atoms: N_9  and  C_11
REMARK    8  A    between atoms: C_24  and  C_25
REMARK    9  A    between atoms: C_24  and  C_26
REMARK                            x       y       z     vdW  Elec       q    Type
REMARK                         _______ _______ _______ _____ _____    ______ ____
ROOT
ATOM      1  C   UNL     1      -0.308   9.173  23.506  0.00  0.00    +0.000 C 
ATOM      2  C   UNL     1       0.086   9.356  22.072  0.00  0.00    +0.000 A 
ATOM      3  N   UNL     1      -0.421  10.412  21.425  0.00  0.00    +0.000 NA
ATOM      4  C   UNL     1      -0.130  10.630  20.127  0.00  0.00    +0.000 A 
ATOM      5  N   UNL     1      -0.735  11.689  19.478  0.00  0.00    +0.000 N 
ATOM      6  C   UNL     1       0.748   9.722  19.507  0.00  0.00    +0.000 A 
ATOM      7  S   UNL     1       1.390   9.674  17.907  0.00  0.00    +0.000 S 
ATOM      8  C   UNL     1       2.316   8.276  18.233  0.00  0.00    +0.000 A 
ATOM      9  N   UNL     1       3.112   7.722  17.290  0.00  0.00    +0.000 NA
ATOM     10  C   UNL     1       3.781   6.611  17.700  0.00  0.00    +0.000 A 
ATOM     11  C   UNL     1       3.668   6.034  18.961  0.00  0.00    +0.000 A 
ATOM     12  C   UNL     1       2.849   6.657  19.901  0.00  0.00    +0.000 A 
ATOM     13  C   UNL     1       2.142   7.819  19.527  0.00  0.00    +0.000 A 
ATOM     14  C   UNL     1       1.246   8.665  20.259  0.00  0.00    +0.000 A 
ATOM     15  N   UNL     1       0.915   8.454  21.557  0.00  0.00    +0.000 NA
ATOM     16  C   UNL     1       4.460   4.819  19.351  0.00  0.00    +0.000 C 
ATOM     17  O   UNL     1       5.091   4.166  18.252  0.00  0.00    +0.000 OA
ATOM     18  C   UNL     1       5.739   5.056  17.328  0.00  0.00    +0.000 C 
ATOM     19  C   UNL     1       6.855   5.866  18.011  0.00  0.00    +0.000 C 
ATOM     20  C   UNL     1       6.380   4.153  16.268  0.00  0.00    +0.000 C 
ATOM     21  C   UNL     1       4.678   5.956  16.671  0.00  0.00    +0.000 C 
ATOM     22  H   UNL     1      -0.634  11.767  18.475  0.00  0.00    +0.000 HD
ENDROOT
BRANCH   5  23
ATOM     23  C   UNL     1      -1.112  12.873  20.242  0.00  0.00    +0.000 C 
BRANCH  23  24
ATOM     24  C   UNL     1      -2.580  12.845  20.669  0.00  0.00    +0.000 C 
BRANCH  24  25
ATOM     25  C   UNL     1      -2.668  12.859  22.206  0.00  0.00    +0.000 C 
BRANCH  25  26
ATOM     26  N   UNL     1      -3.956  12.396  22.750  0.00  0.00    +0.000 NA
ATOM     27  C   UNL     1      -4.066  12.640  24.188  0.00  0.00    +0.000 C 
ATOM     28  C   UNL     1      -5.059  13.070  22.053  0.00  0.00    +0.000 C 
ENDBRANCH  25  26
ENDBRANCH  24  25
ENDBRANCH  23  24
ENDBRANCH   5  23
TORSDOF 4
ENDMDL
MODEL 6
REMARK VINA RESULT:      -6.9      3.438      9.680
REMARK  Name = 
REMARK  9 active torsions:
REMARK  status: ('A' for Active; 'I' for Inactive)
REMARK    1  A    between atoms: C_1  and  C_2
REMARK    2  A    between atoms: N_5  and  C_6
REMARK    3  A    between atoms: C_6  and  C_7
REMARK    4  A    between atoms: C_7  and  C_8
REMARK    5  A    between atoms: C_8  and  N_9
REMARK    6  A    between atoms: N_9  and  C_10
REMARK    7  A    between atoms: N_9  and  C_11
REMARK    8  A    between atoms: C_24  and  C_25
REMARK    9  A    between atoms: C_24  and  C_26
REMARK                            x       y       z     vdW  Elec       q    Type
REMARK                         _______ _______ _______ _____ _____    ______ ____
ROOT
ATOM      1  C   UNL     1      -0.291  13.471  18.213  0.00  0.00    +0.000 C 
ATOM      2  C   UNL     1      -0.238  12.336  19.190  0.00  0.00    +0.000 A 
ATOM      3  N   UNL     1      -0.953  12.460  20.315  0.00  0.00    +0.000 NA
ATOM      4  C   UNL     1      -0.938  11.491  21.251  0.00  0.00    +0.000 A 
ATOM      5  N   UNL     1      -1.631  11.693  22.430  0.00  0.00    +0.000 N 
ATOM      6  C   UNL     1      -0.169  10.345  20.974  0.00  0.00    +0.000 A 
ATOM      7  S   UNL     1       0.074   8.894  21.875  0.00  0.00    +0.000 S 
ATOM      8  C   UNL     1       1.075   8.217  20.667  0.00  0.00    +0.000 A 
ATOM      9  N   UNL     1       1.605   6.980  20.804  0.00  0.00    +0.000 NA
ATOM     10  C   UNL     1       2.384   6.582  19.762  0.00  0.00    +0.000 A 
ATOM     11  C   UNL     1       2.668   7.356  18.642  0.00  0.00    +0.000 A 
ATOM     12  C   UNL     1       2.080   8.616  18.542  0.00  0.00    +0.000 A 
ATOM     13  C   UNL     1       1.255   9.069  19.593  0.00  0.00    +0.000 A 
ATOM     14  C   UNL     1       0.525  10.288  19.772  0.00  0.00    +0.000 A 
ATOM     15  N   UNL     1       0.513  11.292  18.859  0.00  0.00    +0.000 NA
ATOM     16  C   UNL     1       3.518   6.840  17.516  0.00  0.00    +0.000 C 
ATOM     17  O   UNL     1       4.218   5.638  17.828  0.00  0.00    +0.000 OA
ATOM     18  C   UNL     1       3.425   4.651  18.508  0.00  0.00    +0.000 C 
ATOM     19  C   UNL     1       2.223   4.207  17.657  0.00  0.00    +0.000 C 
ATOM     20  C   UNL     1       4.350   3.443  18.702  0.00  0.00    +0.000 C 
ATOM     21  C   UNL     1       3.002   5.206  19.880  0.00  0.00    +0.000 C 
ATOM     22  H   UNL     1      -1.502  11.037  23.188  0.00  0.00    +0.000 HD
ENDROOT
BRANCH   5  23
ATOM     23  C   UNL     1      -2.819  12.538  22.423  0.00  0.00    +0.000 C 
BRANCH  23  24
ATOM     24  C   UNL     1      -3.451  12.661  23.810  0.00  0.00    +0.000 C 
BRANCH  24  25
ATOM     25  C   UNL     1      -4.527  13.763  23.788  0.00  0.00    +0.000 C 
BRANCH  25  26
ATOM     26  N   UNL     1      -4.113  15.037  24.399  0.00  0.00    +0.000 NA
ATOM     27  C   UNL     1      -2.940  14.880  25.259  0.00  0.00    +0.000 C 
ATOM     28  C   UNL     1      -3.820  16.019  23.347  0.00  0.00    +0.000 C 
ENDBRANCH  25  26
ENDBRANCH  24  25
ENDBRANCH  23  24
ENDBRANCH   5  23
TORSDOF 4
ENDMDL
MODEL 7
REMARK VINA RESULT:      -6.9      1.737      2.180
REMARK  Name = 
REMARK  9 active torsions:
REMARK  status: ('A' for Active; 'I' for Inactive)
REMARK    1  A    between atoms: C_1  and  C_2
REMARK    2  A    between atoms: N_5  and  C_6
REMARK    3  A    between atoms: C_6  and  C_7
REMARK    4  A    between atoms: C_7  and  C_8
REMARK    5  A    between atoms: C_8  and  N_9
REMARK    6  A    between atoms: N_9  and  C_10
REMARK    7  A    between atoms: N_9  and  C_11
REMARK    8  A    between atoms: C_24  and  C_25
REMARK    9  A    between atoms: C_24  and  C_26
REMARK                            x       y       z     vdW  Elec       q    Type
REMARK                         _______ _______ _______ _____ _____    ______ ____
ROOT
ATOM      1  C   UNL     1       2.819   3.349  20.790  0.00  0.00    +0.000 C 
ATOM      2  C   UNL     1       2.996   4.520  19.871  0.00  0.00    +0.000 A 
ATOM      3  N   UNL     1       3.785   4.349  18.803  0.00  0.00    +0.000 NA
ATOM      4  C   UNL     1       4.010   5.363  17.944  0.00  0.00    +0.000 A 
ATOM      5  N   UNL     1       4.889   5.165  16.897  0.00  0.00    +0.000 N 
ATOM      6  C   UNL     1       3.356   6.581  18.207  0.00  0.00    +0.000 A 
ATOM      7  S   UNL     1       3.347   8.075  17.344  0.00  0.00    +0.000 S 
ATOM      8  C   UNL     1       2.263   8.799  18.449  0.00  0.00    +0.000 A 
ATOM      9  N   UNL     1       1.831  10.070  18.282  0.00  0.00    +0.000 NA
ATOM     10  C   UNL     1       0.976  10.506  19.245  0.00  0.00    +0.000 A 
ATOM     11  C   UNL     1       0.572   9.758  20.347  0.00  0.00    +0.000 A 
ATOM     12  C   UNL     1       1.032   8.447  20.460  0.00  0.00    +0.000 A 
ATOM     13  C   UNL     1       1.913   7.945  19.479  0.00  0.00    +0.000 A 
ATOM     14  C   UNL     1       2.537   6.665  19.326  0.00  0.00    +0.000 A 
ATOM     15  N   UNL     1       2.350   5.636  20.189  0.00  0.00    +0.000 NA
ATOM     16  C   UNL     1      -0.397  10.298  21.359  0.00  0.00    +0.000 C 
ATOM     17  O   UNL     1      -0.626  11.701  21.245  0.00  0.00    +0.000 OA
ATOM     18  C   UNL     1      -0.819  12.161  19.898  0.00  0.00    +0.000 C 
ATOM     19  C   UNL     1      -2.043  11.498  19.243  0.00  0.00    +0.000 C 
ATOM     20  C   UNL     1      -1.090  13.666  20.013  0.00  0.00    +0.000 C 
ATOM     21  C   UNL     1       0.475  11.926  19.098  0.00  0.00    +0.000 C 
ATOM     22  H   UNL     1       5.171   5.962  16.341  0.00  0.00    +0.000 HD
ENDROOT
BRANCH   5  23
ATOM     23  C   UNL     1       5.047   3.827  16.340  0.00  0.00    +0.000 C 
BRANCH  23  24
ATOM     24  C   UNL     1       6.147   3.765  15.281  0.00  0.00    +0.000 C 
BRANCH  24  25
ATOM     25  C   UNL     1       5.582   4.225  13.925  0.00  0.00    +0.000 C 
BRANCH  25  26
ATOM     26  N   UNL     1       5.966   3.380  12.782  0.00  0.00    +0.000 NA
ATOM     27  C   UNL     1       4.867   3.205  11.832  0.00  0.00    +0.000 C 
ATOM     28  C   UNL     1       7.119   3.972  12.093  0.00  0.00    +0.000 C 
ENDBRANCH  25  26
ENDBRANCH  24  25
ENDBRANCH  23  24
ENDBRANCH   5  23
TORSDOF 4
ENDMDL
MODEL 8
REMARK VINA RESULT:      -6.8      3.328      9.448
REMARK  Name = 
REMARK  9 active torsions:
REMARK  status: ('A' for Active; 'I' for Inactive)
REMARK    1  A    between atoms: C_1  and  C_2
REMARK    2  A    between atoms: N_5  and  C_6
REMARK    3  A    between atoms: C_6  and  C_7
REMARK    4  A    between atoms: C_7  and  C_8
REMARK    5  A    between atoms: C_8  and  N_9
REMARK    6  A    between atoms: N_9  and  C_10
REMARK    7  A    between atoms: N_9  and  C_11
REMARK    8  A    between atoms: C_24  and  C_25
REMARK    9  A    between atoms: C_24  and  C_26
REMARK                            x       y       z     vdW  Elec       q    Type
REMARK                         _______ _______ _______ _____ _____    ______ ____
ROOT
ATOM      1  C   UNL     1       1.112  13.272  18.183  0.00  0.00    +0.000 C 
ATOM      2  C   UNL     1       0.899  12.193  19.202  0.00  0.00    +0.000 A 
ATOM      3  N   UNL     1       0.229  12.520  20.313  0.00  0.00    +0.000 NA
ATOM      4  C   UNL     1       0.019  11.610  21.284  0.00  0.00    +0.000 A 
ATOM      5  N   UNL     1      -0.613  12.010  22.446  0.00  0.00    +0.000 N 
ATOM      6  C   UNL     1       0.503  10.308  21.056  0.00  0.00    +0.000 A 
ATOM      7  S   UNL     1       0.403   8.875  22.012  0.00  0.00    +0.000 S 
ATOM      8  C   UNL     1       1.225   7.941  20.841  0.00  0.00    +0.000 A 
ATOM      9  N   UNL     1       1.455   6.621  21.028  0.00  0.00    +0.000 NA
ATOM     10  C   UNL     1       2.124   6.016  20.011  0.00  0.00    +0.000 A 
ATOM     11  C   UNL     1       2.582   6.661  18.866  0.00  0.00    +0.000 A 
ATOM     12  C   UNL     1       2.300   8.018  18.715  0.00  0.00    +0.000 A 
ATOM     13  C   UNL     1       1.599   8.688  19.739  0.00  0.00    +0.000 A 
ATOM     14  C   UNL     1       1.169  10.048  19.865  0.00  0.00    +0.000 A 
ATOM     15  N   UNL     1       1.391  10.992  18.917  0.00  0.00    +0.000 NA
ATOM     16  C   UNL     1       3.293   5.921  17.769  0.00  0.00    +0.000 C 
ATOM     17  O   UNL     1       3.697   4.603  18.133  0.00  0.00    +0.000 OA
ATOM     18  C   UNL     1       2.697   3.851  18.838  0.00  0.00    +0.000 C 
ATOM     19  C   UNL     1       1.427   3.664  17.990  0.00  0.00    +0.000 C 
ATOM     20  C   UNL     1       3.318   2.471  19.086  0.00  0.00    +0.000 C 
ATOM     21  C   UNL     1       2.408   4.540  20.184  0.00  0.00    +0.000 C 
ATOM     22  H   UNL     1      -0.641  11.371  23.229  0.00  0.00    +0.000 HD
ENDROOT
BRANCH   5  23
ATOM     23  C   UNL     1      -1.574  13.104  22.396  0.00  0.00    +0.000 C 
BRANCH  23  24
ATOM     24  C   UNL     1      -2.975  12.630  22.007  0.00  0.00    +0.000 C 
BRANCH  24  25
ATOM     25  C   UNL     1      -3.877  12.613  23.254  0.00  0.00    +0.000 C 
BRANCH  25  26
ATOM     26  N   UNL     1      -5.302  12.370  22.977  0.00  0.00    +0.000 NA
ATOM     27  C   UNL     1      -6.175  13.163  23.842  0.00  0.00    +0.000 C 
ATOM     28  C   UNL     1      -5.594  12.680  21.571  0.00  0.00    +0.000 C 
ENDBRANCH  25  26
ENDBRANCH  24  25
ENDBRANCH  23  24
ENDBRANCH   5  23
TORSDOF 4
ENDMDL
MODEL 9
REMARK VINA RESULT:      -6.8      2.810      8.740
REMARK  Name = 
REMARK  9 active torsions:
REMARK  status: ('A' for Active; 'I' for Inactive)
REMARK    1  A    between atoms: C_1  and  C_2
REMARK    2  A    between atoms: N_5  and  C_6
REMARK    3  A    between atoms: C_6  and  C_7
REMARK    4  A    between atoms: C_7  and  C_8
REMARK    5  A    between atoms: C_8  and  N_9
REMARK    6  A    between atoms: N_9  and  C_10
REMARK    7  A    between atoms: N_9  and  C_11
REMARK    8  A    between atoms: C_24  and  C_25
REMARK    9  A    between atoms: C_24  and  C_26
REMARK                            x       y       z     vdW  Elec       q    Type
REMARK                         _______ _______ _______ _____ _____    ______ ____
ROOT
ATOM      1  C   UNL     1      -0.176   9.253  23.470  0.00  0.00    +0.000 C 
ATOM      2  C   UNL     1       0.299   9.450  22.062  0.00  0.00    +0.000 A 
ATOM      3  N   UNL     1      -0.010  10.607  21.465  0.00  0.00    +0.000 NA
ATOM      4  C   UNL     1       0.363  10.847  20.192  0.00  0.00    +0.000 A 
ATOM      5  N   UNL     1      -0.041  12.024  19.591  0.00  0.00    +0.000 N 
ATOM      6  C   UNL     1       1.111   9.846  19.545  0.00  0.00    +0.000 A 
ATOM      7  S   UNL     1       1.801   9.786  17.965  0.00  0.00    +0.000 S 
ATOM      8  C   UNL     1       2.482   8.242  18.234  0.00  0.00    +0.000 A 
ATOM      9  N   UNL     1       3.217   7.621  17.284  0.00  0.00    +0.000 NA
ATOM     10  C   UNL     1       3.687   6.397  17.644  0.00  0.00    +0.000 A 
ATOM     11  C   UNL     1       3.435   5.777  18.864  0.00  0.00    +0.000 A 
ATOM     12  C   UNL     1       2.687   6.470  19.815  0.00  0.00    +0.000 A 
ATOM     13  C   UNL     1       2.187   7.748  19.492  0.00  0.00    +0.000 A 
ATOM     14  C   UNL     1       1.407   8.684  20.246  0.00  0.00    +0.000 A 
ATOM     15  N   UNL     1       0.995   8.457  21.518  0.00  0.00    +0.000 NA
ATOM     16  C   UNL     1       4.010   4.432  19.204  0.00  0.00    +0.000 C 
ATOM     17  O   UNL     1       4.574   3.748  18.086  0.00  0.00    +0.000 OA
ATOM     18  C   UNL     1       5.389   4.574  17.239  0.00  0.00    +0.000 C 
ATOM     19  C   UNL     1       6.590   5.156  18.004  0.00  0.00    +0.000 C 
ATOM     20  C   UNL     1       5.922   3.640  16.145  0.00  0.00    +0.000 C 
ATOM     21  C   UNL     1       4.510   5.666  16.606  0.00  0.00    +0.000 C 
ATOM     22  H   UNL     1       0.111  12.140  18.598  0.00  0.00    +0.000 HD
ENDROOT
BRANCH   5  23
ATOM     23  C   UNL     1      -0.257  13.208  20.414  0.00  0.00    +0.000 C 
BRANCH  23  24
ATOM     24  C   UNL     1      -1.609  13.867  20.139  0.00  0.00    +0.000 C 
BRANCH  24  25
ATOM     25  C   UNL     1      -2.554  13.619  21.329  0.00  0.00    +0.000 C 
BRANCH  25  26
ATOM     26  N   UNL     1      -1.876  13.251  22.583  0.00  0.00    +0.000 NA
ATOM     27  C   UNL     1      -1.787  14.378  23.512  0.00  0.00    +0.000 C 
ATOM     28  C   UNL     1      -2.590  12.142  23.227  0.00  0.00    +0.000 C 
ENDBRANCH  25  26
ENDBRANCH  24  25
ENDBRANCH  23  24
ENDBRANCH   5  23
TORSDOF 4
ENDMDL
