MODEL 1
REMARK VINA RESULT:      -7.6      0.000      0.000
REMARK  Name = 
REMARK  6 active torsions:
REMARK  status: ('A' for Active; 'I' for Inactive)
REMARK    1  A    between atoms: C_1  and  C_2
REMARK    2  A    between atoms: C_2  and  C_3
REMARK    3  A    between atoms: C_2  and  C_4
REMARK    4  A    between atoms: C_4  and  C_5
REMARK    5  A    between atoms: N_8  and  C_9
REMARK    6  A    between atoms: C_9  and  C_10
REMARK                            x       y       z     vdW  Elec       q    Type
REMARK                         _______ _______ _______ _____ _____    ______ ____
ROOT
ATOM      1  C   UNL     1       3.174   6.238  18.028  0.00  0.00    +0.000 A 
ATOM      2  N   UNL     1       4.170   5.703  17.293  0.00  0.00    +0.000 NA
ATOM      3  C   UNL     1       4.287   4.362  17.211  0.00  0.00    +0.000 A 
ATOM      4  N   UNL     1       5.315   3.771  16.502  0.00  0.00    +0.000 N 
ATOM      5  C   UNL     1       3.373   3.583  17.929  0.00  0.00    +0.000 A 
ATOM      6  S   UNL     1       3.261   1.868  18.074  0.00  0.00    +0.000 S 
ATOM      7  C   UNL     1       1.995   1.976  19.214  0.00  0.00    +0.000 A 
ATOM      8  C   UNL     1       1.632   3.281  19.455  0.00  0.00    +0.000 A 
ATOM      9  C   UNL     1       2.411   4.213  18.707  0.00  0.00    +0.000 A 
ATOM     10  N   UNL     1       2.275   5.558  18.754  0.00  0.00    +0.000 NA
ATOM     11  H   UNL     1       4.999   3.108  15.804  0.00  0.00    +0.000 HD
ENDROOT
BRANCH   1  12
ATOM     12  C   UNL     1       3.067   7.741  18.042  0.00  0.00    +0.000 C 
BRANCH  12  14
ATOM     13  C   UNL     1       1.713   8.475  20.069  0.00  0.00    +0.000 C 
ATOM     14  C   UNL     1       1.707   8.251  18.555  0.00  0.00    +0.000 C 
ATOM     15  C   UNL     1       1.336   9.551  17.840  0.00  0.00    +0.000 C 
ENDBRANCH  12  14
ENDBRANCH   1  12
BRANCH   4  16
ATOM     16  C   UNL     1       6.462   4.572  16.133  0.00  0.00    +0.000 C 
BRANCH  16  17
ATOM     17  C   UNL     1       6.644   4.452  14.633  0.00  0.00    +0.000 A 
ATOM     18  C   UNL     1       5.863   3.564  13.879  0.00  0.00    +0.000 A 
ATOM     19  C   UNL     1       6.052   3.461  12.498  0.00  0.00    +0.000 A 
ATOM     20  C   UNL     1       7.013   4.240  11.860  0.00  0.00    +0.000 A 
ATOM     21  C   UNL     1       7.786   5.134  12.596  0.00  0.00    +0.000 A 
ATOM     22  C   UNL     1       7.596   5.243  13.972  0.00  0.00    +0.000 A 
ENDBRANCH  16  17
ENDBRANCH   4  16
TORSDOF 4
ENDMDL
MODEL 2
REMARK VINA RESULT:      -7.5      2.446      6.531
REMARK  Name = 
REMARK  6 active torsions:
REMARK  status: ('A' for Active; 'I' for Inactive)
REMARK    1  A    between atoms: C_1  and  C_2
REMARK    2  A    between atoms: C_2  and  C_3
REMARK    3  A    between atoms: C_2  and  C_4
REMARK    4  A    between atoms: C_4  and  C_5
REMARK    5  A    between atoms: N_8  and  C_9
REMARK    6  A    between atoms: C_9  and  C_10
REMARK                            x       y       z     vdW  Elec       q    Type
REMARK                         _______ _______ _______ _____ _____    ______ ____
ROOT
ATOM      1  C   UNL     1       5.510   4.998  19.172  0.00  0.00    +0.000 A 
ATOM      2  N   UNL     1       4.545   5.912  18.949  0.00  0.00    +0.000 NA
ATOM      3  C   UNL     1       3.269   5.505  18.788  0.00  0.00    +0.000 A 
ATOM      4  N   UNL     1       2.255   6.403  18.519  0.00  0.00    +0.000 N 
ATOM      5  C   UNL     1       3.014   4.130  18.831  0.00  0.00    +0.000 A 
ATOM      6  S   UNL     1       1.528   3.278  18.628  0.00  0.00    +0.000 S 
ATOM      7  C   UNL     1       2.306   1.760  18.706  0.00  0.00    +0.000 A 
ATOM      8  C   UNL     1       3.659   1.888  18.921  0.00  0.00    +0.000 A 
ATOM      9  C   UNL     1       4.073   3.251  19.009  0.00  0.00    +0.000 A 
ATOM     10  N   UNL     1       5.344   3.667  19.209  0.00  0.00    +0.000 NA
ATOM     11  H   UNL     1       1.478   6.347  19.167  0.00  0.00    +0.000 HD
ENDROOT
BRANCH   1  12
ATOM     12  C   UNL     1       6.907   5.518  19.391  0.00  0.00    +0.000 C 
BRANCH  12  14
ATOM     13  C   UNL     1       7.200   4.851  16.953  0.00  0.00    +0.000 C 
ATOM     14  C   UNL     1       7.677   5.768  18.081  0.00  0.00    +0.000 C 
ATOM     15  C   UNL     1       7.526   7.231  17.659  0.00  0.00    +0.000 C 
ENDBRANCH  12  14
ENDBRANCH   1  12
BRANCH   4  16
ATOM     16  C   UNL     1       2.600   7.735  18.068  0.00  0.00    +0.000 C 
BRANCH  16  17
ATOM     17  C   UNL     1       1.683   8.712  18.775  0.00  0.00    +0.000 A 
ATOM     18  C   UNL     1       1.418   8.593  20.147  0.00  0.00    +0.000 A 
ATOM     19  C   UNL     1       0.562   9.499  20.778  0.00  0.00    +0.000 A 
ATOM     20  C   UNL     1      -0.032  10.529  20.053  0.00  0.00    +0.000 A 
ATOM     21  C   UNL     1       0.232  10.664  18.693  0.00  0.00    +0.000 A 
ATOM     22  C   UNL     1       1.091   9.766  18.062  0.00  0.00    +0.000 A 
ENDBRANCH  16  17
ENDBRANCH   4  16
TORSDOF 4
ENDMDL
MODEL 3
REMARK VINA RESULT:      -7.5      2.472      6.482
REMARK  Name = 
REMARK  6 active torsions:
REMARK  status: ('A' for Active; 'I' for Inactive)
REMARK    1  A    between atoms: C_1  and  C_2
REMARK    2  A    between atoms: C_2  and  C_3
REMARK    3  A    between atoms: C_2  and  C_4
REMARK    4  A    between atoms: C_4  and  C_5
REMARK    5  A    between atoms: N_8  and  C_9
REMARK    6  A    between atoms: C_9  and  C_10
REMARK                            x       y       z     vdW  Elec       q    Type
REMARK                         _______ _______ _______ _____ _____    ______ ____
ROOT
ATOM      1  C   UNL     1       5.491   4.985  19.168  0.00  0.00    +0.000 A 
ATOM      2  N   UNL     1       4.549   5.905  18.878  0.00  0.00    +0.000 NA
ATOM      3  C   UNL     1       3.273   5.512  18.689  0.00  0.00    +0.000 A 
ATOM      4  N   UNL     1       2.284   6.415  18.351  0.00  0.00    +0.000 N 
ATOM      5  C   UNL     1       2.994   4.144  18.775  0.00  0.00    +0.000 A 
ATOM      6  S   UNL     1       1.501   3.308  18.554  0.00  0.00    +0.000 S 
ATOM      7  C   UNL     1       2.250   1.782  18.716  0.00  0.00    +0.000 A 
ATOM      8  C   UNL     1       3.597   1.898  18.972  0.00  0.00    +0.000 A 
ATOM      9  C   UNL     1       4.031   3.256  19.022  0.00  0.00    +0.000 A 
ATOM     10  N   UNL     1       5.301   3.660  19.249  0.00  0.00    +0.000 NA
ATOM     11  H   UNL     1       1.485   6.396  18.974  0.00  0.00    +0.000 HD
ENDROOT
BRANCH   1  12
ATOM     12  C   UNL     1       6.889   5.492  19.415  0.00  0.00    +0.000 C 
BRANCH  12  14
ATOM     13  C   UNL     1       7.282   4.747  17.013  0.00  0.00    +0.000 C 
ATOM     14  C   UNL     1       7.691   5.721  18.120  0.00  0.00    +0.000 C 
ATOM     15  C   UNL     1       7.505   7.161  17.640  0.00  0.00    +0.000 C 
ENDBRANCH  12  14
ENDBRANCH   1  12
BRANCH   4  16
ATOM     16  C   UNL     1       2.666   7.723  17.863  0.00  0.00    +0.000 C 
BRANCH  16  17
ATOM     17  C   UNL     1       1.896   8.756  18.660  0.00  0.00    +0.000 A 
ATOM     18  C   UNL     1       1.570  10.002  18.104  0.00  0.00    +0.000 A 
ATOM     19  C   UNL     1       0.866  10.944  18.859  0.00  0.00    +0.000 A 
ATOM     20  C   UNL     1       0.479  10.654  20.164  0.00  0.00    +0.000 A 
ATOM     21  C   UNL     1       0.787   9.416  20.723  0.00  0.00    +0.000 A 
ATOM     22  C   UNL     1       1.483   8.472  19.970  0.00  0.00    +0.000 A 
ENDBRANCH  16  17
ENDBRANCH   4  16
TORSDOF 4
ENDMDL
MODEL 4
REMARK VINA RESULT:      -7.5      2.008      7.473
REMARK  Name = 
REMARK  6 active torsions:
REMARK  status: ('A' for Active; 'I' for Inactive)
REMARK    1  A    between atoms: C_1  and  C_2
REMARK    2  A    between atoms: C_2  and  C_3
REMARK    3  A    between atoms: C_2  and  C_4
REMARK    4  A    between atoms: C_4  and  C_5
REMARK    5  A    between atoms: N_8  and  C_9
REMARK    6  A    between atoms: C_9  and  C_10
REMARK                            x       y       z     vdW  Elec       q    Type
REMARK                         _______ _______ _______ _____ _____    ______ ____
ROOT
ATOM      1  C   UNL     1       4.046   5.247  17.682  0.00  0.00    +0.000 A 
ATOM      2  N   UNL     1       3.477   6.240  18.395  0.00  0.00    +0.000 NA
ATOM      3  C   UNL     1       2.754   5.938  19.493  0.00  0.00    +0.000 A 
ATOM      4  N   UNL     1       2.121   6.920  20.230  0.00  0.00    +0.000 N 
ATOM      5  C   UNL     1       2.604   4.587  19.823  0.00  0.00    +0.000 A 
ATOM      6  S   UNL     1       1.727   3.860  21.118  0.00  0.00    +0.000 S 
ATOM      7  C   UNL     1       2.050   2.284  20.546  0.00  0.00    +0.000 A 
ATOM      8  C   UNL     1       2.840   2.300  19.419  0.00  0.00    +0.000 A 
ATOM      9  C   UNL     1       3.175   3.623  19.004  0.00  0.00    +0.000 A 
ATOM     10  N   UNL     1       3.932   3.933  17.927  0.00  0.00    +0.000 NA
ATOM     11  H   UNL     1       2.362   6.909  21.215  0.00  0.00    +0.000 HD
ENDROOT
BRANCH   1  12
ATOM     12  C   UNL     1       4.881   5.650  16.494  0.00  0.00    +0.000 C 
BRANCH  12  14
ATOM     13  C   UNL     1       6.075   4.581  14.517  0.00  0.00    +0.000 C 
ATOM     14  C   UNL     1       5.854   4.550  16.031  0.00  0.00    +0.000 C 
ATOM     15  C   UNL     1       7.194   4.703  16.754  0.00  0.00    +0.000 C 
ENDBRANCH  12  14
ENDBRANCH   1  12
BRANCH   4  16
ATOM     16  C   UNL     1       1.942   8.231  19.643  0.00  0.00    +0.000 C 
BRANCH  16  17
ATOM     17  C   UNL     1       1.060   9.036  20.576  0.00  0.00    +0.000 A 
ATOM     18  C   UNL     1       0.270  10.090  20.093  0.00  0.00    +0.000 A 
ATOM     19  C   UNL     1      -0.530  10.827  20.971  0.00  0.00    +0.000 A 
ATOM     20  C   UNL     1      -0.552  10.520  22.329  0.00  0.00    +0.000 A 
ATOM     21  C   UNL     1       0.219   9.468  22.818  0.00  0.00    +0.000 A 
ATOM     22  C   UNL     1       1.013   8.728  21.944  0.00  0.00    +0.000 A 
ENDBRANCH  16  17
ENDBRANCH   4  16
TORSDOF 4
ENDMDL
MODEL 5
REMARK VINA RESULT:      -7.5      1.933      7.415
REMARK  Name = 
REMARK  6 active torsions:
REMARK  status: ('A' for Active; 'I' for Inactive)
REMARK    1  A    between atoms: C_1  and  C_2
REMARK    2  A    between atoms: C_2  and  C_3
REMARK    3  A    between atoms: C_2  and  C_4
REMARK    4  A    between atoms: C_4  and  C_5
REMARK    5  A    between atoms: N_8  and  C_9
REMARK    6  A    between atoms: C_9  and  C_10
REMARK                            x       y       z     vdW  Elec       q    Type
REMARK                         _______ _______ _______ _____ _____    ______ ____
ROOT
ATOM      1  C   UNL     1       3.987   5.215  17.522  0.00  0.00    +0.000 A 
ATOM      2  N   UNL     1       3.442   6.202  18.262  0.00  0.00    +0.000 NA
ATOM      3  C   UNL     1       2.688   5.888  19.336  0.00  0.00    +0.000 A 
ATOM      4  N   UNL     1       2.079   6.866  20.098  0.00  0.00    +0.000 N 
ATOM      5  C   UNL     1       2.481   4.533  19.612  0.00  0.00    +0.000 A 
ATOM      6  S   UNL     1       1.553   3.792  20.864  0.00  0.00    +0.000 S 
ATOM      7  C   UNL     1       1.828   2.227  20.239  0.00  0.00    +0.000 A 
ATOM      8  C   UNL     1       2.638   2.255  19.126  0.00  0.00    +0.000 A 
ATOM      9  C   UNL     1       3.031   3.578  18.768  0.00  0.00    +0.000 A 
ATOM     10  N   UNL     1       3.818   3.899  17.716  0.00  0.00    +0.000 NA
ATOM     11  H   UNL     1       2.301   6.810  21.085  0.00  0.00    +0.000 HD
ENDROOT
BRANCH   1  12
ATOM     12  C   UNL     1       4.857   5.630  16.364  0.00  0.00    +0.000 C 
BRANCH  12  14
ATOM     13  C   UNL     1       6.000   4.527  14.375  0.00  0.00    +0.000 C 
ATOM     14  C   UNL     1       5.816   4.520  15.894  0.00  0.00    +0.000 C 
ATOM     15  C   UNL     1       7.173   4.680  16.582  0.00  0.00    +0.000 C 
ENDBRANCH  12  14
ENDBRANCH   1  12
BRANCH   4  16
ATOM     16  C   UNL     1       1.960   8.203  19.558  0.00  0.00    +0.000 C 
BRANCH  16  17
ATOM     17  C   UNL     1       1.110   9.013  20.516  0.00  0.00    +0.000 A 
ATOM     18  C   UNL     1       1.056   8.694  21.881  0.00  0.00    +0.000 A 
ATOM     19  C   UNL     1       0.258   9.448  22.746  0.00  0.00    +0.000 A 
ATOM     20  C   UNL     1      -0.485  10.521  22.264  0.00  0.00    +0.000 A 
ATOM     21  C   UNL     1      -0.431  10.854  20.912  0.00  0.00    +0.000 A 
ATOM     22  C   UNL     1       0.368  10.109  20.048  0.00  0.00    +0.000 A 
ENDBRANCH  16  17
ENDBRANCH   4  16
TORSDOF 4
ENDMDL
MODEL 6
REMARK VINA RESULT:      -7.5      0.090      1.057
REMARK  Name = 
REMARK  6 active torsions:
REMARK  status: ('A' for Active; 'I' for Inactive)
REMARK    1  A    between atoms: C_1  and  C_2
REMARK    2  A    between atoms: C_2  and  C_3
REMARK    3  A    between atoms: C_2  and  C_4
REMARK    4  A    between atoms: C_4  and  C_5
REMARK    5  A    between atoms: N_8  and  C_9
REMARK    6  A    between atoms: C_9  and  C_10
REMARK                            x       y       z     vdW  Elec       q    Type
REMARK                         _______ _______ _______ _____ _____    ______ ____
ROOT
ATOM      1  C   UNL     1       3.125   6.264  18.104  0.00  0.00    +0.000 A 
ATOM      2  N   UNL     1       4.129   5.750  17.363  0.00  0.00    +0.000 NA
ATOM      3  C   UNL     1       4.257   4.411  17.258  0.00  0.00    +0.000 A 
ATOM      4  N   UNL     1       5.293   3.842  16.543  0.00  0.00    +0.000 N 
ATOM      5  C   UNL     1       3.348   3.613  17.959  0.00  0.00    +0.000 A 
ATOM      6  S   UNL     1       3.250   1.894  18.073  0.00  0.00    +0.000 S 
ATOM      7  C   UNL     1       1.978   1.971  19.210  0.00  0.00    +0.000 A 
ATOM      8  C   UNL     1       1.603   3.269  19.472  0.00  0.00    +0.000 A 
ATOM      9  C   UNL     1       2.378   4.221  18.744  0.00  0.00    +0.000 A 
ATOM     10  N   UNL     1       2.230   5.563  18.814  0.00  0.00    +0.000 NA
ATOM     11  H   UNL     1       4.986   3.189  15.831  0.00  0.00    +0.000 HD
ENDROOT
BRANCH   1  12
ATOM     12  C   UNL     1       3.006   7.766  18.144  0.00  0.00    +0.000 C 
BRANCH  12  14
ATOM     13  C   UNL     1       1.615   8.564  20.121  0.00  0.00    +0.000 C 
ATOM     14  C   UNL     1       1.626   8.255  18.622  0.00  0.00    +0.000 C 
ATOM     15  C   UNL     1       1.213   9.498  17.833  0.00  0.00    +0.000 C 
ENDBRANCH  12  14
ENDBRANCH   1  12
BRANCH   4  16
ATOM     16  C   UNL     1       6.435   4.659  16.192  0.00  0.00    +0.000 C 
BRANCH  16  17
ATOM     17  C   UNL     1       6.659   4.520  14.700  0.00  0.00    +0.000 A 
ATOM     18  C   UNL     1       7.609   5.310  14.035  0.00  0.00    +0.000 A 
ATOM     19  C   UNL     1       7.795   5.173  12.657  0.00  0.00    +0.000 A 
ATOM     20  C   UNL     1       7.044   4.251  11.933  0.00  0.00    +0.000 A 
ATOM     21  C   UNL     1       6.106   3.453  12.584  0.00  0.00    +0.000 A 
ATOM     22  C   UNL     1       5.923   3.583  13.959  0.00  0.00    +0.000 A 
ENDBRANCH  16  17
ENDBRANCH   4  16
TORSDOF 4
ENDMDL
MODEL 7
REMARK VINA RESULT:      -7.3      1.967      6.678
REMARK  Name = 
REMARK  6 active torsions:
REMARK  status: ('A' for Active; 'I' for Inactive)
REMARK    1  A    between atoms: C_1  and  C_2
REMARK    2  A    between atoms: C_2  and  C_3
REMARK    3  A    between atoms: C_2  and  C_4
REMARK    4  A    between atoms: C_4  and  C_5
REMARK    5  A    between atoms: N_8  and  C_9
REMARK    6  A    between atoms: C_9  and  C_10
REMARK                            x       y       z     vdW  Elec       q    Type
REMARK                         _______ _______ _______ _____ _____    ______ ____
ROOT
ATOM      1  C   UNL     1       4.846   5.023  16.732  0.00  0.00    +0.000 A 
ATOM      2  N   UNL     1       4.174   6.038  17.314  0.00  0.00    +0.000 NA
ATOM      3  C   UNL     1       3.128   5.764  18.121  0.00  0.00    +0.000 A 
ATOM      4  N   UNL     1       2.388   6.772  18.706  0.00  0.00    +0.000 N 
ATOM      5  C   UNL     1       2.769   4.423  18.289  0.00  0.00    +0.000 A 
ATOM      6  S   UNL     1       1.481   3.733  19.206  0.00  0.00    +0.000 S 
ATOM      7  C   UNL     1       1.826   2.160  18.641  0.00  0.00    +0.000 A 
ATOM      8  C   UNL     1       2.920   2.144  17.805  0.00  0.00    +0.000 A 
ATOM      9  C   UNL     1       3.478   3.442  17.609  0.00  0.00    +0.000 A 
ATOM     10  N   UNL     1       4.550   3.720  16.833  0.00  0.00    +0.000 NA
ATOM     11  H   UNL     1       2.316   6.692  19.714  0.00  0.00    +0.000 HD
ENDROOT
BRANCH   1  12
ATOM     12  C   UNL     1       6.034   5.391  15.880  0.00  0.00    +0.000 C 
BRANCH  12  14
ATOM     13  C   UNL     1       7.145   7.123  17.378  0.00  0.00    +0.000 C 
ATOM     14  C   UNL     1       7.283   5.757  16.702  0.00  0.00    +0.000 C 
ATOM     15  C   UNL     1       7.546   4.681  17.757  0.00  0.00    +0.000 C 
ENDBRANCH  12  14
ENDBRANCH   1  12
BRANCH   4  16
ATOM     16  C   UNL     1       2.509   8.120  18.192  0.00  0.00    +0.000 C 
BRANCH  16  17
ATOM     17  C   UNL     1       1.425   8.958  18.838  0.00  0.00    +0.000 A 
ATOM     18  C   UNL     1       1.214   8.925  20.224  0.00  0.00    +0.000 A 
ATOM     19  C   UNL     1       0.203   9.699  20.800  0.00  0.00    +0.000 A 
ATOM     20  C   UNL     1      -0.600  10.512  20.005  0.00  0.00    +0.000 A 
ATOM     21  C   UNL     1      -0.393  10.562  18.628  0.00  0.00    +0.000 A 
ATOM     22  C   UNL     1       0.618   9.796  18.053  0.00  0.00    +0.000 A 
ENDBRANCH  16  17
ENDBRANCH   4  16
TORSDOF 4
ENDMDL
MODEL 8
REMARK VINA RESULT:      -7.3      1.630      6.700
REMARK  Name = 
REMARK  6 active torsions:
REMARK  status: ('A' for Active; 'I' for Inactive)
REMARK    1  A    between atoms: C_1  and  C_2
REMARK    2  A    between atoms: C_2  and  C_3
REMARK    3  A    between atoms: C_2  and  C_4
REMARK    4  A    between atoms: C_4  and  C_5
REMARK    5  A    between atoms: N_8  and  C_9
REMARK    6  A    between atoms: C_9  and  C_10
REMARK                            x       y       z     vdW  Elec       q    Type
REMARK                         _______ _______ _______ _____ _____    ______ ____
ROOT
ATOM      1  C   UNL     1       4.086   4.337  17.129  0.00  0.00    +0.000 A 
ATOM      2  N   UNL     1       3.712   5.545  17.599  0.00  0.00    +0.000 NA
ATOM      3  C   UNL     1       3.013   5.622  18.750  0.00  0.00    +0.000 A 
ATOM      4  N   UNL     1       2.576   6.834  19.246  0.00  0.00    +0.000 N 
ATOM      5  C   UNL     1       2.680   4.424  19.391  0.00  0.00    +0.000 A 
ATOM      6  S   UNL     1       1.776   4.162  20.836  0.00  0.00    +0.000 S 
ATOM      7  C   UNL     1       1.827   2.466  20.645  0.00  0.00    +0.000 A 
ATOM      8  C   UNL     1       2.548   2.098  19.532  0.00  0.00    +0.000 A 
ATOM      9  C   UNL     1       3.055   3.220  18.812  0.00  0.00    +0.000 A 
ATOM     10  N   UNL     1       3.789   3.151  17.678  0.00  0.00    +0.000 NA
ATOM     11  H   UNL     1       2.866   7.012  20.201  0.00  0.00    +0.000 HD
ENDROOT
BRANCH   1  12
ATOM     12  C   UNL     1       4.906   4.320  15.864  0.00  0.00    +0.000 C 
BRANCH  12  14
ATOM     13  C   UNL     1       7.085   4.544  17.159  0.00  0.00    +0.000 C 
ATOM     14  C   UNL     1       6.244   5.071  15.995  0.00  0.00    +0.000 C 
ATOM     15  C   UNL     1       7.034   4.956  14.690  0.00  0.00    +0.000 C 
ENDBRANCH  12  14
ENDBRANCH   1  12
BRANCH   4  16
ATOM     16  C   UNL     1       2.564   7.987  18.371  0.00  0.00    +0.000 C 
BRANCH  16  17
ATOM     17  C   UNL     1       1.442   8.898  18.825  0.00  0.00    +0.000 A 
ATOM     18  C   UNL     1       0.669   9.612  17.897  0.00  0.00    +0.000 A 
ATOM     19  C   UNL     1      -0.356  10.454  18.337  0.00  0.00    +0.000 A 
ATOM     20  C   UNL     1      -0.621  10.590  19.697  0.00  0.00    +0.000 A 
ATOM     21  C   UNL     1       0.133   9.878  20.627  0.00  0.00    +0.000 A 
ATOM     22  C   UNL     1       1.151   9.033  20.191  0.00  0.00    +0.000 A 
ENDBRANCH  16  17
ENDBRANCH   4  16
TORSDOF 4
ENDMDL
MODEL 9
REMARK VINA RESULT:      -7.3      2.504      7.225
REMARK  Name = 
REMARK  6 active torsions:
REMARK  status: ('A' for Active; 'I' for Inactive)
REMARK    1  A    between atoms: C_1  and  C_2
REMARK    2  A    between atoms: C_2  and  C_3
REMARK    3  A    between atoms: C_2  and  C_4
REMARK    4  A    between atoms: C_4  and  C_5
REMARK    5  A    between atoms: N_8  and  C_9
REMARK    6  A    between atoms: C_9  and  C_10
REMARK                            x       y       z     vdW  Elec       q    Type
REMARK                         _______ _______ _______ _____ _____    ______ ____
ROOT
ATOM      1  C   UNL     1       5.103   5.023  19.168  0.00  0.00    +0.000 A 
ATOM      2  N   UNL     1       4.174   5.961  19.446  0.00  0.00    +0.000 NA
ATOM      3  C   UNL     1       2.903   5.583  19.694  0.00  0.00    +0.000 A 
ATOM      4  N   UNL     1       1.912   6.512  19.944  0.00  0.00    +0.000 N 
ATOM      5  C   UNL     1       2.603   4.219  19.617  0.00  0.00    +0.000 A 
ATOM      6  S   UNL     1       1.096   3.409  19.835  0.00  0.00    +0.000 S 
ATOM      7  C   UNL     1       1.764   1.899  19.400  0.00  0.00    +0.000 A 
ATOM      8  C   UNL     1       3.111   1.992  19.132  0.00  0.00    +0.000 A 
ATOM      9  C   UNL     1       3.605   3.324  19.270  0.00  0.00    +0.000 A 
ATOM     10  N   UNL     1       4.886   3.704  19.061  0.00  0.00    +0.000 NA
ATOM     11  H   UNL     1       1.413   6.351  20.811  0.00  0.00    +0.000 HD
ENDROOT
BRANCH   1  12
ATOM     12  C   UNL     1       6.514   5.504  18.947  0.00  0.00    +0.000 C 
BRANCH  12  14
ATOM     13  C   UNL     1       7.670   7.406  17.712  0.00  0.00    +0.000 C 
ATOM     14  C   UNL     1       6.710   6.220  17.598  0.00  0.00    +0.000 C 
ATOM     15  C   UNL     1       7.231   5.229  16.554  0.00  0.00    +0.000 C 
ENDBRANCH  12  14
ENDBRANCH   1  12
BRANCH   4  16
ATOM     16  C   UNL     1       2.150   7.899  19.606  0.00  0.00    +0.000 C 
BRANCH  16  17
ATOM     17  C   UNL     1       1.238   8.746  20.470  0.00  0.00    +0.000 A 
ATOM     18  C   UNL     1       1.162   8.544  21.856  0.00  0.00    +0.000 A 
ATOM     19  C   UNL     1       0.309   9.330  22.634  0.00  0.00    +0.000 A 
ATOM     20  C   UNL     1      -0.469  10.322  22.043  0.00  0.00    +0.000 A 
ATOM     21  C   UNL     1      -0.393  10.540  20.670  0.00  0.00    +0.000 A 
ATOM     22  C   UNL     1       0.462   9.762  19.892  0.00  0.00    +0.000 A 
ENDBRANCH  16  17
ENDBRANCH   4  16
TORSDOF 4
ENDMDL
