MODEL 1
REMARK VINA RESULT:      -7.3      0.000      0.000
REMARK  Name = 
REMARK  5 active torsions:
REMARK  status: ('A' for Active; 'I' for Inactive)
REMARK    1  A    between atoms: C_1  and  C_2
REMARK    2  A    between atoms: C_6  and  N_7
REMARK    3  A    between atoms: C_8  and  C_10
REMARK    4  A    between atoms: C_15  and  C_17
REMARK    5  A    between atoms: C_22  and  C_23
REMARK                            x       y       z     vdW  Elec       q    Type
REMARK                         _______ _______ _______ _____ _____    ______ ____
ROOT
ATOM      1  N   UNL     1       4.285   5.012  18.421  0.00  0.00    +0.000 N 
ATOM      2  C   UNL     1       5.576   4.594  18.664  0.00  0.00    +0.000 C 
ATOM      3  O   UNL     1       5.916   3.704  19.451  0.00  0.00    +0.000 OA
ATOM      4  H   UNL     1       4.178   5.678  17.678  0.00  0.00    +0.000 HD
ENDROOT
BRANCH   1  10
ATOM      5  C   UNL     1       0.353   1.960  18.977  0.00  0.00    +0.000 C 
ATOM      6  C   UNL     1       1.161   3.175  19.357  0.00  0.00    +0.000 A 
ATOM      7  C   UNL     1       0.713   3.963  20.426  0.00  0.00    +0.000 A 
ATOM      8  C   UNL     1       1.439   5.073  20.834  0.00  0.00    +0.000 A 
ATOM      9  C   UNL     1       2.621   5.412  20.178  0.00  0.00    +0.000 A 
ATOM     10  C   UNL     1       3.095   4.660  19.095  0.00  0.00    +0.000 A 
ATOM     11  C   UNL     1       2.350   3.530  18.662  0.00  0.00    +0.000 A 
ATOM     12  C   UNL     1       2.745   2.673  17.480  0.00  0.00    +0.000 C 
ENDBRANCH   1  10
BRANCH   2  13
ATOM     13  C   UNL     1       6.680   5.391  17.902  0.00  0.00    +0.000 C 
ATOM     14  C   UNL     1       6.762   6.868  18.344  0.00  0.00    +0.000 C 
ATOM     15  C   UNL     1       7.762   7.485  17.383  0.00  0.00    +0.000 C 
ATOM     16  C   UNL     1       7.582   6.679  16.107  0.00  0.00    +0.000 C 
ATOM     17  N   UNL     1       6.729   5.545  16.448  0.00  0.00    +0.000 N 
ATOM     18  C   UNL     1       6.374   4.534  15.549  0.00  0.00    +0.000 C 
ATOM     19  O   UNL     1       5.606   3.635  15.881  0.00  0.00    +0.000 OA
BRANCH  18  20
ATOM     20  C   UNL     1       6.883   4.648  14.177  0.00  0.00    +0.000 A 
ATOM     21  C   UNL     1       6.556   3.987  13.003  0.00  0.00    +0.000 A 
ATOM     22  C   UNL     1       7.361   4.553  11.977  0.00  0.00    +0.000 A 
ATOM     23  C   UNL     1       8.153   5.493  12.585  0.00  0.00    +0.000 A 
ATOM     24  O   UNL     1       7.893   5.536  13.907  0.00  0.00    +0.000 OA
ENDBRANCH  18  20
ENDBRANCH   2  13
TORSDOF 3
ENDMDL
MODEL 2
REMARK VINA RESULT:      -7.3      3.055      4.955
REMARK  Name = 
REMARK  5 active torsions:
REMARK  status: ('A' for Active; 'I' for Inactive)
REMARK    1  A    between atoms: C_1  and  C_2
REMARK    2  A    between atoms: C_6  and  N_7
REMARK    3  A    between atoms: C_8  and  C_10
REMARK    4  A    between atoms: C_15  and  C_17
REMARK    5  A    between atoms: C_22  and  C_23
REMARK                            x       y       z     vdW  Elec       q    Type
REMARK                         _______ _______ _______ _____ _____    ______ ____
ROOT
ATOM      1  N   UNL     1       1.690   6.483  19.404  0.00  0.00    +0.000 N 
ATOM      2  C   UNL     1       2.155   5.322  19.983  0.00  0.00    +0.000 C 
ATOM      3  O   UNL     1       2.330   5.132  21.191  0.00  0.00    +0.000 OA
ATOM      4  H   UNL     1       1.512   6.435  18.416  0.00  0.00    +0.000 HD
ENDROOT
BRANCH   1  10
ATOM      5  C   UNL     1       1.202  11.452  18.994  0.00  0.00    +0.000 C 
ATOM      6  C   UNL     1       1.237  10.178  19.800  0.00  0.00    +0.000 A 
ATOM      7  C   UNL     1       1.014  10.259  21.181  0.00  0.00    +0.000 A 
ATOM      8  C   UNL     1       1.004   9.112  21.962  0.00  0.00    +0.000 A 
ATOM      9  C   UNL     1       1.217   7.867  21.373  0.00  0.00    +0.000 A 
ATOM     10  C   UNL     1       1.459   7.743  19.998  0.00  0.00    +0.000 A 
ATOM     11  C   UNL     1       1.485   8.915  19.195  0.00  0.00    +0.000 A 
ATOM     12  C   UNL     1       1.778   8.903  17.711  0.00  0.00    +0.000 C 
ENDBRANCH   1  10
BRANCH   2  13
ATOM     13  C   UNL     1       2.547   4.196  18.976  0.00  0.00    +0.000 C 
ATOM     14  C   UNL     1       2.525   2.790  19.616  0.00  0.00    +0.000 C 
ATOM     15  C   UNL     1       3.084   1.885  18.533  0.00  0.00    +0.000 C 
ATOM     16  C   UNL     1       4.045   2.783  17.771  0.00  0.00    +0.000 C 
ATOM     17  N   UNL     1       3.818   4.141  18.254  0.00  0.00    +0.000 N 
ATOM     18  C   UNL     1       4.476   5.271  17.756  0.00  0.00    +0.000 C 
ATOM     19  O   UNL     1       4.282   6.381  18.244  0.00  0.00    +0.000 OA
BRANCH  18  20
ATOM     20  C   UNL     1       5.467   5.054  16.695  0.00  0.00    +0.000 A 
ATOM     21  C   UNL     1       6.841   4.878  16.726  0.00  0.00    +0.000 A 
ATOM     22  C   UNL     1       7.258   4.673  15.382  0.00  0.00    +0.000 A 
ATOM     23  C   UNL     1       6.128   4.774  14.611  0.00  0.00    +0.000 A 
ATOM     24  O   UNL     1       5.057   5.031  15.387  0.00  0.00    +0.000 OA
ENDBRANCH  18  20
ENDBRANCH   2  13
TORSDOF 3
ENDMDL
MODEL 3
REMARK VINA RESULT:      -7.2      4.079      5.719
REMARK  Name = 
REMARK  5 active torsions:
REMARK  status: ('A' for Active; 'I' for Inactive)
REMARK    1  A    between atoms: C_1  and  C_2
REMARK    2  A    between atoms: C_6  and  N_7
REMARK    3  A    between atoms: C_8  and  C_10
REMARK    4  A    between atoms: C_15  and  C_17
REMARK    5  A    between atoms: C_22  and  C_23
REMARK                            x       y       z     vdW  Elec       q    Type
REMARK                         _______ _______ _______ _____ _____    ______ ____
ROOT
ATOM      1  N   UNL     1       1.562   8.348  18.303  0.00  0.00    +0.000 N 
ATOM      2  C   UNL     1       2.109   7.296  19.006  0.00  0.00    +0.000 C 
ATOM      3  O   UNL     1       2.567   7.348  20.152  0.00  0.00    +0.000 OA
ATOM      4  H   UNL     1       1.145   8.111  17.421  0.00  0.00    +0.000 HD
ENDROOT
BRANCH   1  10
ATOM      5  C   UNL     1      -0.134  12.085  21.176  0.00  0.00    +0.000 C 
ATOM      6  C   UNL     1       0.691  11.553  20.032  0.00  0.00    +0.000 A 
ATOM      7  C   UNL     1       1.464  12.458  19.293  0.00  0.00    +0.000 A 
ATOM      8  C   UNL     1       2.265  12.013  18.251  0.00  0.00    +0.000 A 
ATOM      9  C   UNL     1       2.304  10.656  17.932  0.00  0.00    +0.000 A 
ATOM     10  C   UNL     1       1.534   9.721  18.636  0.00  0.00    +0.000 A 
ATOM     11  C   UNL     1       0.700  10.171  19.695  0.00  0.00    +0.000 A 
ATOM     12  C   UNL     1      -0.203   9.257  20.493  0.00  0.00    +0.000 C 
ENDBRANCH   1  10
BRANCH   2  13
ATOM     13  C   UNL     1       2.196   5.953  18.216  0.00  0.00    +0.000 C 
ATOM     14  C   UNL     1       1.664   4.750  19.025  0.00  0.00    +0.000 C 
ATOM     15  C   UNL     1       1.987   3.549  18.155  0.00  0.00    +0.000 C 
ATOM     16  C   UNL     1       3.250   3.966  17.418  0.00  0.00    +0.000 C 
ATOM     17  N   UNL     1       3.437   5.388  17.685  0.00  0.00    +0.000 N 
ATOM     18  C   UNL     1       4.467   6.160  17.136  0.00  0.00    +0.000 C 
ATOM     19  O   UNL     1       4.604   7.341  17.444  0.00  0.00    +0.000 OA
BRANCH  18  20
ATOM     20  C   UNL     1       5.420   5.474  16.254  0.00  0.00    +0.000 A 
ATOM     21  C   UNL     1       5.452   5.289  14.882  0.00  0.00    +0.000 A 
ATOM     22  C   UNL     1       6.647   4.575  14.593  0.00  0.00    +0.000 A 
ATOM     23  C   UNL     1       7.251   4.334  15.800  0.00  0.00    +0.000 A 
ATOM     24  O   UNL     1       6.508   4.845  16.802  0.00  0.00    +0.000 OA
ENDBRANCH  18  20
ENDBRANCH   2  13
TORSDOF 3
ENDMDL
MODEL 4
REMARK VINA RESULT:      -7.1      5.564      8.381
REMARK  Name = 
REMARK  5 active torsions:
REMARK  status: ('A' for Active; 'I' for Inactive)
REMARK    1  A    between atoms: C_1  and  C_2
REMARK    2  A    between atoms: C_6  and  N_7
REMARK    3  A    between atoms: C_8  and  C_10
REMARK    4  A    between atoms: C_15  and  C_17
REMARK    5  A    between atoms: C_22  and  C_23
REMARK                            x       y       z     vdW  Elec       q    Type
REMARK                         _______ _______ _______ _____ _____    ______ ____
ROOT
ATOM      1  N   UNL     1       2.236   7.011  18.915  0.00  0.00    +0.000 N 
ATOM      2  C   UNL     1       2.014   8.341  18.629  0.00  0.00    +0.000 C 
ATOM      3  O   UNL     1       2.310   8.916  17.576  0.00  0.00    +0.000 OA
ATOM      4  H   UNL     1       1.844   6.681  19.779  0.00  0.00    +0.000 HD
ENDROOT
BRANCH   1  10
ATOM      5  C   UNL     1       2.943   2.268  17.465  0.00  0.00    +0.000 C 
ATOM      6  C   UNL     1       3.323   3.727  17.482  0.00  0.00    +0.000 A 
ATOM      7  C   UNL     1       4.429   4.135  16.724  0.00  0.00    +0.000 A 
ATOM      8  C   UNL     1       4.799   5.472  16.682  0.00  0.00    +0.000 A 
ATOM      9  C   UNL     1       4.069   6.420  17.397  0.00  0.00    +0.000 A 
ATOM     10  C   UNL     1       2.966   6.052  18.179  0.00  0.00    +0.000 A 
ATOM     11  C   UNL     1       2.590   4.683  18.239  0.00  0.00    +0.000 A 
ATOM     12  C   UNL     1       1.445   4.168  19.083  0.00  0.00    +0.000 C 
ENDBRANCH   1  10
BRANCH   2  13
ATOM     13  C   UNL     1       1.392   9.170  19.795  0.00  0.00    +0.000 C 
ATOM     14  C   UNL     1       1.438   8.424  21.147  0.00  0.00    +0.000 C 
ATOM     15  C   UNL     1       0.651   9.319  22.087  0.00  0.00    +0.000 C 
ATOM     16  C   UNL     1      -0.371   9.987  21.181  0.00  0.00    +0.000 C 
ATOM     17  N   UNL     1       0.015   9.665  19.811  0.00  0.00    +0.000 N 
ATOM     18  C   UNL     1      -0.649  10.143  18.677  0.00  0.00    +0.000 C 
ATOM     19  O   UNL     1      -0.310   9.790  17.550  0.00  0.00    +0.000 OA
BRANCH  18  20
ATOM     20  C   UNL     1      -1.817  11.005  18.898  0.00  0.00    +0.000 A 
ATOM     21  C   UNL     1      -2.008  12.132  19.681  0.00  0.00    +0.000 A 
ATOM     22  C   UNL     1      -3.345  12.561  19.461  0.00  0.00    +0.000 A 
ATOM     23  C   UNL     1      -3.901  11.656  18.594  0.00  0.00    +0.000 A 
ATOM     24  O   UNL     1      -3.001  10.705  18.275  0.00  0.00    +0.000 OA
ENDBRANCH  18  20
ENDBRANCH   2  13
TORSDOF 3
ENDMDL
MODEL 5
REMARK VINA RESULT:      -7.0      4.448      5.959
REMARK  Name = 
REMARK  5 active torsions:
REMARK  status: ('A' for Active; 'I' for Inactive)
REMARK    1  A    between atoms: C_1  and  C_2
REMARK    2  A    between atoms: C_6  and  N_7
REMARK    3  A    between atoms: C_8  and  C_10
REMARK    4  A    between atoms: C_15  and  C_17
REMARK    5  A    between atoms: C_22  and  C_23
REMARK                            x       y       z     vdW  Elec       q    Type
REMARK                         _______ _______ _______ _____ _____    ______ ____
ROOT
ATOM      1  N   UNL     1       1.597   8.643  17.995  0.00  0.00    +0.000 N 
ATOM      2  C   UNL     1       1.998   7.664  18.879  0.00  0.00    +0.000 C 
ATOM      3  O   UNL     1       2.241   7.825  20.080  0.00  0.00    +0.000 OA
ATOM      4  H   UNL     1       1.344   8.322  17.077  0.00  0.00    +0.000 HD
ENDROOT
BRANCH   1  10
ATOM      5  C   UNL     1      -0.965  12.693  19.452  0.00  0.00    +0.000 C 
ATOM      6  C   UNL     1       0.262  12.025  18.886  0.00  0.00    +0.000 A 
ATOM      7  C   UNL     1       1.365  12.826  18.562  0.00  0.00    +0.000 A 
ATOM      8  C   UNL     1       2.529  12.255  18.068  0.00  0.00    +0.000 A 
ATOM      9  C   UNL     1       2.607  10.875  17.891  0.00  0.00    +0.000 A 
ATOM     10  C   UNL     1       1.523  10.040  18.188  0.00  0.00    +0.000 A 
ATOM     11  C   UNL     1       0.322  10.619  18.681  0.00  0.00    +0.000 A 
ATOM     12  C   UNL     1      -0.923   9.819  18.994  0.00  0.00    +0.000 C 
ENDBRANCH   1  10
BRANCH   2  13
ATOM     13  C   UNL     1       2.213   6.254  18.246  0.00  0.00    +0.000 C 
ATOM     14  C   UNL     1       1.768   5.107  19.180  0.00  0.00    +0.000 C 
ATOM     15  C   UNL     1       2.208   3.850  18.453  0.00  0.00    +0.000 C 
ATOM     16  C   UNL     1       3.446   4.289  17.687  0.00  0.00    +0.000 C 
ATOM     17  N   UNL     1       3.507   5.743  17.794  0.00  0.00    +0.000 N 
ATOM     18  C   UNL     1       4.479   6.534  17.172  0.00  0.00    +0.000 C 
ATOM     19  O   UNL     1       4.510   7.749  17.348  0.00  0.00    +0.000 OA
BRANCH  18  20
ATOM     20  C   UNL     1       5.504   5.840  16.383  0.00  0.00    +0.000 A 
ATOM     21  C   UNL     1       6.762   5.357  16.708  0.00  0.00    +0.000 A 
ATOM     22  C   UNL     1       7.278   4.740  15.537  0.00  0.00    +0.000 A 
ATOM     23  C   UNL     1       6.330   4.914  14.561  0.00  0.00    +0.000 A 
ATOM     24  O   UNL     1       5.277   5.596  15.053  0.00  0.00    +0.000 OA
ENDBRANCH  18  20
ENDBRANCH   2  13
TORSDOF 3
ENDMDL
MODEL 6
REMARK VINA RESULT:      -7.0      2.359      7.250
REMARK  Name = 
REMARK  5 active torsions:
REMARK  status: ('A' for Active; 'I' for Inactive)
REMARK    1  A    between atoms: C_1  and  C_2
REMARK    2  A    between atoms: C_6  and  N_7
REMARK    3  A    between atoms: C_8  and  C_10
REMARK    4  A    between atoms: C_15  and  C_17
REMARK    5  A    between atoms: C_22  and  C_23
REMARK                            x       y       z     vdW  Elec       q    Type
REMARK                         _______ _______ _______ _____ _____    ______ ____
ROOT
ATOM      1  N   UNL     1       4.713   4.452  15.522  0.00  0.00    +0.000 N 
ATOM      2  C   UNL     1       4.957   4.038  16.814  0.00  0.00    +0.000 C 
ATOM      3  O   UNL     1       6.029   3.603  17.248  0.00  0.00    +0.000 OA
ATOM      4  H   UNL     1       3.815   4.872  15.363  0.00  0.00    +0.000 HD
ENDROOT
BRANCH   1  10
ATOM      5  C   UNL     1       8.854   5.736  13.014  0.00  0.00    +0.000 C 
ATOM      6  C   UNL     1       7.557   4.979  13.146  0.00  0.00    +0.000 A 
ATOM      7  C   UNL     1       7.178   4.124  12.102  0.00  0.00    +0.000 A 
ATOM      8  C   UNL     1       6.009   3.381  12.191  0.00  0.00    +0.000 A 
ATOM      9  C   UNL     1       5.203   3.483  13.323  0.00  0.00    +0.000 A 
ATOM     10  C   UNL     1       5.538   4.337  14.381  0.00  0.00    +0.000 A 
ATOM     11  C   UNL     1       6.726   5.113  14.292  0.00  0.00    +0.000 A 
ATOM     12  C   UNL     1       7.162   6.097  15.354  0.00  0.00    +0.000 C 
ENDBRANCH   1  10
BRANCH   2  13
ATOM     13  C   UNL     1       3.718   4.080  17.763  0.00  0.00    +0.000 C 
ATOM     14  C   UNL     1       2.656   3.018  17.403  0.00  0.00    +0.000 C 
ATOM     15  C   UNL     1       1.492   3.336  18.324  0.00  0.00    +0.000 C 
ATOM     16  C   UNL     1       1.588   4.840  18.522  0.00  0.00    +0.000 C 
ATOM     17  N   UNL     1       2.867   5.254  17.955  0.00  0.00    +0.000 N 
ATOM     18  C   UNL     1       3.353   6.566  17.991  0.00  0.00    +0.000 C 
ATOM     19  O   UNL     1       4.413   6.861  17.445  0.00  0.00    +0.000 OA
BRANCH  18  20
ATOM     20  C   UNL     1       2.499   7.579  18.623  0.00  0.00    +0.000 A 
ATOM     21  C   UNL     1       1.855   8.699  18.123  0.00  0.00    +0.000 A 
ATOM     22  C   UNL     1       1.138   9.277  19.205  0.00  0.00    +0.000 A 
ATOM     23  C   UNL     1       1.415   8.505  20.305  0.00  0.00    +0.000 A 
ATOM     24  O   UNL     1       2.252   7.503  19.970  0.00  0.00    +0.000 OA
ENDBRANCH  18  20
ENDBRANCH   2  13
TORSDOF 3
ENDMDL
MODEL 7
REMARK VINA RESULT:      -7.0      4.298      6.135
REMARK  Name = 
REMARK  5 active torsions:
REMARK  status: ('A' for Active; 'I' for Inactive)
REMARK    1  A    between atoms: C_1  and  C_2
REMARK    2  A    between atoms: C_6  and  N_7
REMARK    3  A    between atoms: C_8  and  C_10
REMARK    4  A    between atoms: C_15  and  C_17
REMARK    5  A    between atoms: C_22  and  C_23
REMARK                            x       y       z     vdW  Elec       q    Type
REMARK                         _______ _______ _______ _____ _____    ______ ____
ROOT
ATOM      1  N   UNL     1       1.513   8.597  20.140  0.00  0.00    +0.000 N 
ATOM      2  C   UNL     1       1.745   7.950  18.945  0.00  0.00    +0.000 C 
ATOM      3  O   UNL     1       1.577   8.425  17.817  0.00  0.00    +0.000 OA
ATOM      4  H   UNL     1       1.796   8.099  20.965  0.00  0.00    +0.000 HD
ENDROOT
BRANCH   1  10
ATOM      5  C   UNL     1      -1.461  11.533  22.901  0.00  0.00    +0.000 C 
ATOM      6  C   UNL     1      -0.569  11.281  21.712  0.00  0.00    +0.000 A 
ATOM      7  C   UNL     1      -0.334  12.338  20.823  0.00  0.00    +0.000 A 
ATOM      8  C   UNL     1       0.505  12.166  19.731  0.00  0.00    +0.000 A 
ATOM      9  C   UNL     1       1.121  10.935  19.513  0.00  0.00    +0.000 A 
ATOM     10  C   UNL     1       0.901   9.849  20.369  0.00  0.00    +0.000 A 
ATOM     11  C   UNL     1       0.031  10.013  21.481  0.00  0.00    +0.000 A 
ATOM     12  C   UNL     1      -0.311   8.898  22.445  0.00  0.00    +0.000 C 
ENDBRANCH   1  10
BRANCH   2  13
ATOM     13  C   UNL     1       2.197   6.462  19.079  0.00  0.00    +0.000 C 
ATOM     14  C   UNL     1       1.930   5.883  20.486  0.00  0.00    +0.000 C 
ATOM     15  C   UNL     1       2.581   4.512  20.448  0.00  0.00    +0.000 C 
ATOM     16  C   UNL     1       3.741   4.688  19.482  0.00  0.00    +0.000 C 
ATOM     17  N   UNL     1       3.563   5.992  18.851  0.00  0.00    +0.000 N 
ATOM     18  C   UNL     1       4.402   6.502  17.854  0.00  0.00    +0.000 C 
ATOM     19  O   UNL     1       4.232   7.631  17.403  0.00  0.00    +0.000 OA
BRANCH  18  20
ATOM     20  C   UNL     1       5.538   5.667  17.444  0.00  0.00    +0.000 A 
ATOM     21  C   UNL     1       5.760   4.881  16.325  0.00  0.00    +0.000 A 
ATOM     22  C   UNL     1       7.066   4.336  16.460  0.00  0.00    +0.000 A 
ATOM     23  C   UNL     1       7.547   4.787  17.663  0.00  0.00    +0.000 A 
ATOM     24  O   UNL     1       6.626   5.561  18.271  0.00  0.00    +0.000 OA
ENDBRANCH  18  20
ENDBRANCH   2  13
TORSDOF 3
ENDMDL
MODEL 8
REMARK VINA RESULT:      -6.9      3.126      4.572
REMARK  Name = 
REMARK  5 active torsions:
REMARK  status: ('A' for Active; 'I' for Inactive)
REMARK    1  A    between atoms: C_1  and  C_2
REMARK    2  A    between atoms: C_6  and  N_7
REMARK    3  A    between atoms: C_8  and  C_10
REMARK    4  A    between atoms: C_15  and  C_17
REMARK    5  A    between atoms: C_22  and  C_23
REMARK                            x       y       z     vdW  Elec       q    Type
REMARK                         _______ _______ _______ _____ _____    ______ ____
ROOT
ATOM      1  N   UNL     1       2.123   7.000  18.367  0.00  0.00    +0.000 N 
ATOM      2  C   UNL     1       3.151   6.197  18.811  0.00  0.00    +0.000 C 
ATOM      3  O   UNL     1       3.952   6.472  19.710  0.00  0.00    +0.000 OA
ATOM      4  H   UNL     1       1.504   6.582  17.695  0.00  0.00    +0.000 HD
ENDROOT
BRANCH   1  10
ATOM      5  C   UNL     1       0.421  10.398  21.630  0.00  0.00    +0.000 C 
ATOM      6  C   UNL     1       0.989  10.006  20.289  0.00  0.00    +0.000 A 
ATOM      7  C   UNL     1       1.253  11.018  19.357  0.00  0.00    +0.000 A 
ATOM      8  C   UNL     1       1.806  10.710  18.122  0.00  0.00    +0.000 A 
ATOM      9  C   UNL     1       2.101   9.387  17.801  0.00  0.00    +0.000 A 
ATOM     10  C   UNL     1       1.838   8.343  18.698  0.00  0.00    +0.000 A 
ATOM     11  C   UNL     1       1.258   8.649  19.959  0.00  0.00    +0.000 A 
ATOM     12  C   UNL     1       0.894   7.599  20.986  0.00  0.00    +0.000 C 
ENDBRANCH   1  10
BRANCH   2  13
ATOM     13  C   UNL     1       3.320   4.854  18.032  0.00  0.00    +0.000 C 
ATOM     14  C   UNL     1       3.427   3.631  18.970  0.00  0.00    +0.000 C 
ATOM     15  C   UNL     1       3.744   2.479  18.035  0.00  0.00    +0.000 C 
ATOM     16  C   UNL     1       4.529   3.132  16.908  0.00  0.00    +0.000 C 
ATOM     17  N   UNL     1       4.413   4.573  17.102  0.00  0.00    +0.000 N 
ATOM     18  C   UNL     1       4.957   5.527  16.235  0.00  0.00    +0.000 C 
ATOM     19  O   UNL     1       4.873   6.727  16.483  0.00  0.00    +0.000 OA
BRANCH  18  20
ATOM     20  C   UNL     1       5.705   5.027  15.074  0.00  0.00    +0.000 A 
ATOM     21  C   UNL     1       5.378   4.128  14.072  0.00  0.00    +0.000 A 
ATOM     22  C   UNL     1       6.495   4.069  13.195  0.00  0.00    +0.000 A 
ATOM     23  C   UNL     1       7.447   4.900  13.729  0.00  0.00    +0.000 A 
ATOM     24  O   UNL     1       6.992   5.455  14.870  0.00  0.00    +0.000 OA
ENDBRANCH  18  20
ENDBRANCH   2  13
TORSDOF 3
ENDMDL
MODEL 9
REMARK VINA RESULT:      -6.9      4.804      6.868
REMARK  Name = 
REMARK  5 active torsions:
REMARK  status: ('A' for Active; 'I' for Inactive)
REMARK    1  A    between atoms: C_1  and  C_2
REMARK    2  A    between atoms: C_6  and  N_7
REMARK    3  A    between atoms: C_8  and  C_10
REMARK    4  A    between atoms: C_15  and  C_17
REMARK    5  A    between atoms: C_22  and  C_23
REMARK                            x       y       z     vdW  Elec       q    Type
REMARK                         _______ _______ _______ _____ _____    ______ ____
ROOT
ATOM      1  N   UNL     1       1.018   9.207  19.273  0.00  0.00    +0.000 N 
ATOM      2  C   UNL     1       1.616   8.157  19.937  0.00  0.00    +0.000 C 
ATOM      3  O   UNL     1       1.363   7.785  21.087  0.00  0.00    +0.000 OA
ATOM      4  H   UNL     1       1.271   9.311  18.307  0.00  0.00    +0.000 HD
ENDROOT
BRANCH   1  10
ATOM      5  C   UNL     1      -3.194  11.877  18.799  0.00  0.00    +0.000 C 
ATOM      6  C   UNL     1      -1.932  11.498  19.531  0.00  0.00    +0.000 A 
ATOM      7  C   UNL     1      -1.659  12.126  20.754  0.00  0.00    +0.000 A 
ATOM      8  C   UNL     1      -0.526  11.789  21.481  0.00  0.00    +0.000 A 
ATOM      9  C   UNL     1       0.350  10.820  20.996  0.00  0.00    +0.000 A 
ATOM     10  C   UNL     1       0.122  10.179  19.772  0.00  0.00    +0.000 A 
ATOM     11  C   UNL     1      -1.028  10.530  19.014  0.00  0.00    +0.000 A 
ATOM     12  C   UNL     1      -1.350   9.933  17.661  0.00  0.00    +0.000 C 
ENDBRANCH   1  10
BRANCH   2  13
ATOM     13  C   UNL     1       2.758   7.445  19.146  0.00  0.00    +0.000 C 
ATOM     14  C   UNL     1       3.042   8.109  17.781  0.00  0.00    +0.000 C 
ATOM     15  C   UNL     1       4.046   7.182  17.122  0.00  0.00    +0.000 C 
ATOM     16  C   UNL     1       3.694   5.812  17.679  0.00  0.00    +0.000 C 
ATOM     17  N   UNL     1       2.736   6.035  18.757  0.00  0.00    +0.000 N 
ATOM     18  C   UNL     1       2.208   5.018  19.559  0.00  0.00    +0.000 C 
ATOM     19  O   UNL     1       1.360   5.264  20.414  0.00  0.00    +0.000 OA
BRANCH  18  20
ATOM     20  C   UNL     1       2.641   3.645  19.272  0.00  0.00    +0.000 A 
ATOM     21  C   UNL     1       2.118   2.655  18.456  0.00  0.00    +0.000 A 
ATOM     22  C   UNL     1       2.995   1.540  18.552  0.00  0.00    +0.000 A 
ATOM     23  C   UNL     1       3.974   1.898  19.443  0.00  0.00    +0.000 A 
ATOM     24  O   UNL     1       3.753   3.146  19.900  0.00  0.00    +0.000 OA
ENDBRANCH  18  20
ENDBRANCH   2  13
TORSDOF 3
ENDMDL
