MODEL 1
REMARK VINA RESULT:      -8.5      0.000      0.000
REMARK  Name = 
REMARK  2 active torsions:
REMARK  status: ('A' for Active; 'I' for Inactive)
REMARK    1  A    between atoms: C_7  and  N_8
REMARK    2  A    between atoms: C_14  and  C_15
REMARK                            x       y       z     vdW  Elec       q    Type
REMARK                         _______ _______ _______ _____ _____    ______ ____
ROOT
ATOM      1  C   UNL     1       8.766  13.077  21.903  0.00  0.00    +0.000 A 
ATOM      2  N   UNL     1       9.907  12.522  21.588  0.00  0.00    +0.000 NA
ATOM      3  C   UNL     1      10.362  12.562  20.248  0.00  0.00    +0.000 A 
ATOM      4  C   UNL     1      11.577  11.958  19.917  0.00  0.00    +0.000 A 
ATOM      5  C   UNL     1      12.060  12.003  18.605  0.00  0.00    +0.000 A 
ATOM      6  C   UNL     1      11.325  12.646  17.608  0.00  0.00    +0.000 A 
ATOM      7  C   UNL     1      10.106  13.246  17.921  0.00  0.00    +0.000 A 
ATOM      8  C   UNL     1       9.628  13.200  19.235  0.00  0.00    +0.000 A 
ATOM      9  C   UNL     1       8.372  13.814  19.623  0.00  0.00    +0.000 A 
ATOM     10  N   UNL     1       7.518  14.453  18.858  0.00  0.00    +0.000 NA
ATOM     11  C   UNL     1       6.532  14.835  19.708  0.00  0.00    +0.000 A 
ATOM     12  C   UNL     1       5.325  15.562  19.395  0.00  0.00    +0.000 A 
ATOM     13  N   UNL     1       5.020  15.955  18.169  0.00  0.00    +0.000 NA
ATOM     14  S   UNL     1       3.544  16.715  18.389  0.00  0.00    +0.000 S 
ATOM     15  N   UNL     1       3.338  16.520  20.042  0.00  0.00    +0.000 NA
ATOM     16  C   UNL     1       4.425  15.859  20.487  0.00  0.00    +0.000 A 
ATOM     17  C   UNL     1       4.679  15.507  21.824  0.00  0.00    +0.000 A 
ATOM     18  C   UNL     1       5.889  14.842  22.087  0.00  0.00    +0.000 A 
ATOM     19  C   UNL     1       6.766  14.479  21.037  0.00  0.00    +0.000 A 
ATOM     20  N   UNL     1       7.966  13.757  20.953  0.00  0.00    +0.000 N 
ENDROOT
BRANCH   1  31
ATOM     21  O   UNL     1       9.273  15.046  23.940  0.00  0.00    +0.000 OA
ATOM     22  C   UNL     1       8.610  14.069  24.264  0.00  0.00    +0.000 A 
ATOM     23  O   UNL     1       8.260  13.837  25.587  0.00  0.00    +0.000 OA
ATOM     24  C   UNL     1       7.348  12.822  25.925  0.00  0.00    +0.000 A 
ATOM     25  C   UNL     1       6.931  12.768  27.255  0.00  0.00    +0.000 A 
ATOM     26  C   UNL     1       5.956  11.845  27.623  0.00  0.00    +0.000 A 
ATOM     27  C   UNL     1       5.416  10.988  26.653  0.00  0.00    +0.000 A 
ATOM     28  C   UNL     1       5.870  11.027  25.319  0.00  0.00    +0.000 A 
ATOM     29  C   UNL     1       6.853  11.951  24.954  0.00  0.00    +0.000 A 
ATOM     30  C   UNL     1       7.390  12.036  23.602  0.00  0.00    +0.000 A 
ATOM     31  C   UNL     1       8.246  13.024  23.288  0.00  0.00    +0.000 A 
BRANCH  27  32
ATOM     32  N   UNL     1       4.355  10.041  27.032  0.00  0.00    +0.000 N 
ATOM     33  O   UNL     1       3.422   9.874  26.233  0.00  0.00    +0.000 OA
ATOM     34  O   UNL     1       4.461   9.471  28.124  0.00  0.00    +0.000 OA
ENDBRANCH  27  32
ENDBRANCH   1  31
TORSDOF 2
ENDMDL
MODEL 2
REMARK VINA RESULT:      -8.3      8.440     11.074
REMARK  Name = 
REMARK  2 active torsions:
REMARK  status: ('A' for Active; 'I' for Inactive)
REMARK    1  A    between atoms: C_7  and  N_8
REMARK    2  A    between atoms: C_14  and  C_15
REMARK                            x       y       z     vdW  Elec       q    Type
REMARK                         _______ _______ _______ _____ _____    ______ ____
ROOT
ATOM      1  C   UNL     1      -1.227  12.983  21.552  0.00  0.00    +0.000 A 
ATOM      2  N   UNL     1      -0.733  13.508  22.642  0.00  0.00    +0.000 NA
ATOM      3  C   UNL     1      -1.554  14.314  23.468  0.00  0.00    +0.000 A 
ATOM      4  C   UNL     1      -1.017  14.880  24.626  0.00  0.00    +0.000 A 
ATOM      5  C   UNL     1      -1.811  15.663  25.470  0.00  0.00    +0.000 A 
ATOM      6  C   UNL     1      -3.152  15.893  25.158  0.00  0.00    +0.000 A 
ATOM      7  C   UNL     1      -3.700  15.342  24.000  0.00  0.00    +0.000 A 
ATOM      8  C   UNL     1      -2.902  14.559  23.159  0.00  0.00    +0.000 A 
ATOM      9  C   UNL     1      -3.418  13.951  21.948  0.00  0.00    +0.000 A 
ATOM     10  N   UNL     1      -4.631  14.044  21.454  0.00  0.00    +0.000 NA
ATOM     11  C   UNL     1      -4.591  13.285  20.330  0.00  0.00    +0.000 A 
ATOM     12  C   UNL     1      -5.654  13.046  19.385  0.00  0.00    +0.000 A 
ATOM     13  N   UNL     1      -6.860  13.577  19.509  0.00  0.00    +0.000 NA
ATOM     14  S   UNL     1      -7.656  12.989  18.158  0.00  0.00    +0.000 S 
ATOM     15  N   UNL     1      -6.440  12.073  17.455  0.00  0.00    +0.000 NA
ATOM     16  C   UNL     1      -5.363  12.186  18.259  0.00  0.00    +0.000 A 
ATOM     17  C   UNL     1      -4.122  11.557  18.060  0.00  0.00    +0.000 A 
ATOM     18  C   UNL     1      -3.133  11.782  19.032  0.00  0.00    +0.000 A 
ATOM     19  C   UNL     1      -3.360  12.665  20.114  0.00  0.00    +0.000 A 
ATOM     20  N   UNL     1      -2.578  13.160  21.169  0.00  0.00    +0.000 N 
ENDROOT
BRANCH   1  31
ATOM     21  O   UNL     1       0.126  13.957  19.205  0.00  0.00    +0.000 OA
ATOM     22  C   UNL     1       0.222  12.761  19.446  0.00  0.00    +0.000 A 
ATOM     23  O   UNL     1       0.813  11.885  18.544  0.00  0.00    +0.000 OA
ATOM     24  C   UNL     1       1.086  10.554  18.904  0.00  0.00    +0.000 A 
ATOM     25  C   UNL     1       1.826   9.796  17.998  0.00  0.00    +0.000 A 
ATOM     26  C   UNL     1       2.208   8.504  18.346  0.00  0.00    +0.000 A 
ATOM     27  C   UNL     1       1.838   7.989  19.598  0.00  0.00    +0.000 A 
ATOM     28  C   UNL     1       1.060   8.750  20.492  0.00  0.00    +0.000 A 
ATOM     29  C   UNL     1       0.673  10.046  20.137  0.00  0.00    +0.000 A 
ATOM     30  C   UNL     1      -0.151  10.886  20.997  0.00  0.00    +0.000 A 
ATOM     31  C   UNL     1      -0.387  12.163  20.650  0.00  0.00    +0.000 A 
BRANCH  27  32
ATOM     32  N   UNL     1       2.277   6.639  19.984  0.00  0.00    +0.000 N 
ATOM     33  O   UNL     1       3.329   6.211  19.485  0.00  0.00    +0.000 OA
ATOM     34  O   UNL     1       1.571   6.015  20.784  0.00  0.00    +0.000 OA
ENDBRANCH  27  32
ENDBRANCH   1  31
TORSDOF 2
ENDMDL
MODEL 3
REMARK VINA RESULT:      -7.6      7.660     10.067
REMARK  Name = 
REMARK  2 active torsions:
REMARK  status: ('A' for Active; 'I' for Inactive)
REMARK    1  A    between atoms: C_7  and  N_8
REMARK    2  A    between atoms: C_14  and  C_15
REMARK                            x       y       z     vdW  Elec       q    Type
REMARK                         _______ _______ _______ _____ _____    ______ ____
ROOT
ATOM      1  C   UNL     1       0.496  12.228  20.227  0.00  0.00    +0.000 A 
ATOM      2  N   UNL     1       1.185  13.047  20.976  0.00  0.00    +0.000 NA
ATOM      3  C   UNL     1       0.547  14.161  21.571  0.00  0.00    +0.000 A 
ATOM      4  C   UNL     1       1.291  15.038  22.362  0.00  0.00    +0.000 A 
ATOM      5  C   UNL     1       0.680  16.134  22.979  0.00  0.00    +0.000 A 
ATOM      6  C   UNL     1      -0.684  16.369  22.802  0.00  0.00    +0.000 A 
ATOM      7  C   UNL     1      -1.440  15.507  22.007  0.00  0.00    +0.000 A 
ATOM      8  C   UNL     1      -0.824  14.411  21.394  0.00  0.00    +0.000 A 
ATOM      9  C   UNL     1      -1.559  13.475  20.564  0.00  0.00    +0.000 A 
ATOM     10  N   UNL     1      -2.833  13.506  20.250  0.00  0.00    +0.000 NA
ATOM     11  C   UNL     1      -3.011  12.407  19.475  0.00  0.00    +0.000 A 
ATOM     12  C   UNL     1      -4.227  11.959  18.840  0.00  0.00    +0.000 A 
ATOM     13  N   UNL     1      -5.374  12.612  18.940  0.00  0.00    +0.000 NA
ATOM     14  S   UNL     1      -6.407  11.672  18.016  0.00  0.00    +0.000 S 
ATOM     15  N   UNL     1      -5.362  10.460  17.516  0.00  0.00    +0.000 NA
ATOM     16  C   UNL     1      -4.162  10.741  18.063  0.00  0.00    +0.000 A 
ATOM     17  C   UNL     1      -2.997   9.967  17.924  0.00  0.00    +0.000 A 
ATOM     18  C   UNL     1      -1.850  10.418  18.599  0.00  0.00    +0.000 A 
ATOM     19  C   UNL     1      -1.859  11.637  19.319  0.00  0.00    +0.000 A 
ATOM     20  N   UNL     1      -0.893  12.389  20.005  0.00  0.00    +0.000 N 
ENDROOT
BRANCH   1  31
ATOM     21  O   UNL     1       2.031  12.355  17.795  0.00  0.00    +0.000 OA
ATOM     22  C   UNL     1       1.867  11.248  18.291  0.00  0.00    +0.000 A 
ATOM     23  O   UNL     1       2.256  10.092  17.628  0.00  0.00    +0.000 OA
ATOM     24  C   UNL     1       2.235   8.846  18.277  0.00  0.00    +0.000 A 
ATOM     25  C   UNL     1       2.796   7.770  17.592  0.00  0.00    +0.000 A 
ATOM     26  C   UNL     1       2.890   6.534  18.227  0.00  0.00    +0.000 A 
ATOM     27  C   UNL     1       2.415   6.397  19.540  0.00  0.00    +0.000 A 
ATOM     28  C   UNL     1       1.818   7.482  20.212  0.00  0.00    +0.000 A 
ATOM     29  C   UNL     1       1.721   8.719  19.568  0.00  0.00    +0.000 A 
ATOM     30  C   UNL     1       1.096   9.882  20.187  0.00  0.00    +0.000 A 
ATOM     31  C   UNL     1       1.141  11.072  19.563  0.00  0.00    +0.000 A 
BRANCH  27  32
ATOM     32  N   UNL     1       2.552   5.103  20.228  0.00  0.00    +0.000 N 
ATOM     33  O   UNL     1       3.524   4.393  19.929  0.00  0.00    +0.000 OA
ATOM     34  O   UNL     1       1.691   4.805  21.063  0.00  0.00    +0.000 OA
ENDBRANCH  27  32
ENDBRANCH   1  31
TORSDOF 2
ENDMDL
MODEL 4
REMARK VINA RESULT:      -7.3      4.379      8.311
REMARK  Name = 
REMARK  2 active torsions:
REMARK  status: ('A' for Active; 'I' for Inactive)
REMARK    1  A    between atoms: C_7  and  N_8
REMARK    2  A    between atoms: C_14  and  C_15
REMARK                            x       y       z     vdW  Elec       q    Type
REMARK                         _______ _______ _______ _____ _____    ______ ____
ROOT
ATOM      1  C   UNL     1       5.040  15.350  19.573  0.00  0.00    +0.000 A 
ATOM      2  N   UNL     1       3.986  15.393  18.803  0.00  0.00    +0.000 NA
ATOM      3  C   UNL     1       2.718  15.045  19.327  0.00  0.00    +0.000 A 
ATOM      4  C   UNL     1       1.597  15.084  18.495  0.00  0.00    +0.000 A 
ATOM      5  C   UNL     1       0.329  14.766  18.994  0.00  0.00    +0.000 A 
ATOM      6  C   UNL     1       0.172  14.397  20.331  0.00  0.00    +0.000 A 
ATOM      7  C   UNL     1       1.284  14.345  21.172  0.00  0.00    +0.000 A 
ATOM      8  C   UNL     1       2.550  14.665  20.669  0.00  0.00    +0.000 A 
ATOM      9  C   UNL     1       3.741  14.639  21.496  0.00  0.00    +0.000 A 
ATOM     10  N   UNL     1       3.832  14.311  22.764  0.00  0.00    +0.000 NA
ATOM     11  C   UNL     1       5.149  14.468  23.053  0.00  0.00    +0.000 A 
ATOM     12  C   UNL     1       5.814  14.228  24.311  0.00  0.00    +0.000 A 
ATOM     13  N   UNL     1       5.180  13.795  25.389  0.00  0.00    +0.000 NA
ATOM     14  S   UNL     1       6.415  13.684  26.515  0.00  0.00    +0.000 S 
ATOM     15  N   UNL     1       7.722  14.191  25.595  0.00  0.00    +0.000 NA
ATOM     16  C   UNL     1       7.238  14.478  24.369  0.00  0.00    +0.000 A 
ATOM     17  C   UNL     1       7.988  14.964  23.285  0.00  0.00    +0.000 A 
ATOM     18  C   UNL     1       7.288  15.227  22.095  0.00  0.00    +0.000 A 
ATOM     19  C   UNL     1       5.908  14.937  21.981  0.00  0.00    +0.000 A 
ATOM     20  N   UNL     1       4.966  14.995  20.942  0.00  0.00    +0.000 N 
ENDROOT
BRANCH   1  31
ATOM     21  O   UNL     1       6.146  18.000  19.374  0.00  0.00    +0.000 OA
ATOM     22  C   UNL     1       6.831  17.079  18.949  0.00  0.00    +0.000 A 
ATOM     23  O   UNL     1       8.009  17.313  18.253  0.00  0.00    +0.000 OA
ATOM     24  C   UNL     1       8.881  16.258  17.933  0.00  0.00    +0.000 A 
ATOM     25  C   UNL     1      10.113  16.604  17.382  0.00  0.00    +0.000 A 
ATOM     26  C   UNL     1      11.052  15.606  17.136  0.00  0.00    +0.000 A 
ATOM     27  C   UNL     1      10.738  14.274  17.444  0.00  0.00    +0.000 A 
ATOM     28  C   UNL     1       9.476  13.930  17.969  0.00  0.00    +0.000 A 
ATOM     29  C   UNL     1       8.534  14.934  18.209  0.00  0.00    +0.000 A 
ATOM     30  C   UNL     1       7.200  14.656  18.727  0.00  0.00    +0.000 A 
ATOM     31  C   UNL     1       6.386  15.675  19.048  0.00  0.00    +0.000 A 
BRANCH  27  32
ATOM     32  N   UNL     1      11.745  13.223  17.225  0.00  0.00    +0.000 N 
ATOM     33  O   UNL     1      12.321  13.198  16.126  0.00  0.00    +0.000 OA
ATOM     34  O   UNL     1      11.956  12.432  18.151  0.00  0.00    +0.000 OA
ENDBRANCH  27  32
ENDBRANCH   1  31
TORSDOF 2
ENDMDL
MODEL 5
REMARK VINA RESULT:      -7.3      6.598      9.674
REMARK  Name = 
REMARK  2 active torsions:
REMARK  status: ('A' for Active; 'I' for Inactive)
REMARK    1  A    between atoms: C_7  and  N_8
REMARK    2  A    between atoms: C_14  and  C_15
REMARK                            x       y       z     vdW  Elec       q    Type
REMARK                         _______ _______ _______ _____ _____    ______ ____
ROOT
ATOM      1  C   UNL     1      -0.616  12.043  21.456  0.00  0.00    +0.000 A 
ATOM      2  N   UNL     1      -1.772  11.774  22.003  0.00  0.00    +0.000 NA
ATOM      3  C   UNL     1      -2.315  12.657  22.967  0.00  0.00    +0.000 A 
ATOM      4  C   UNL     1      -3.546  12.358  23.554  0.00  0.00    +0.000 A 
ATOM      5  C   UNL     1      -4.116  13.223  24.494  0.00  0.00    +0.000 A 
ATOM      6  C   UNL     1      -3.453  14.396  24.861  0.00  0.00    +0.000 A 
ATOM      7  C   UNL     1      -2.219  14.703  24.289  0.00  0.00    +0.000 A 
ATOM      8  C   UNL     1      -1.654  13.835  23.350  0.00  0.00    +0.000 A 
ATOM      9  C   UNL     1      -0.378  14.106  22.714  0.00  0.00    +0.000 A 
ATOM     10  N   UNL     1       0.419  15.129  22.914  0.00  0.00    +0.000 NA
ATOM     11  C   UNL     1       1.458  14.911  22.068  0.00  0.00    +0.000 A 
ATOM     12  C   UNL     1       2.637  15.723  21.886  0.00  0.00    +0.000 A 
ATOM     13  N   UNL     1       2.857  16.835  22.570  0.00  0.00    +0.000 NA
ATOM     14  S   UNL     1       4.341  17.336  21.976  0.00  0.00    +0.000 S 
ATOM     15  N   UNL     1       4.658  16.121  20.865  0.00  0.00    +0.000 NA
ATOM     16  C   UNL     1       3.606  15.279  20.909  0.00  0.00    +0.000 A 
ATOM     17  C   UNL     1       3.444  14.128  20.118  0.00  0.00    +0.000 A 
ATOM     18  C   UNL     1       2.258  13.396  20.298  0.00  0.00    +0.000 A 
ATOM     19  C   UNL     1       1.315  13.765  21.287  0.00  0.00    +0.000 A 
ATOM     20  N   UNL     1       0.116  13.215  21.766  0.00  0.00    +0.000 N 
ENDROOT
BRANCH   1  31
ATOM     21  O   UNL     1      -0.342  12.579  18.641  0.00  0.00    +0.000 OA
ATOM     22  C   UNL     1       0.041  11.486  19.039  0.00  0.00    +0.000 A 
ATOM     23  O   UNL     1       0.433  10.489  18.155  0.00  0.00    +0.000 OA
ATOM     24  C   UNL     1       1.044   9.312  18.620  0.00  0.00    +0.000 A 
ATOM     25  C   UNL     1       1.551   8.443  17.654  0.00  0.00    +0.000 A 
ATOM     26  C   UNL     1       2.252   7.311  18.061  0.00  0.00    +0.000 A 
ATOM     27  C   UNL     1       2.429   7.065  19.431  0.00  0.00    +0.000 A 
ATOM     28  C   UNL     1       1.882   7.931  20.399  0.00  0.00    +0.000 A 
ATOM     29  C   UNL     1       1.174   9.064  19.986  0.00  0.00    +0.000 A 
ATOM     30  C   UNL     1       0.559   9.993  20.926  0.00  0.00    +0.000 A 
ATOM     31  C   UNL     1      -0.004  11.125  20.469  0.00  0.00    +0.000 A 
BRANCH  27  32
ATOM     32  N   UNL     1       3.205   5.892  19.862  0.00  0.00    +0.000 N 
ATOM     33  O   UNL     1       2.654   5.087  20.628  0.00  0.00    +0.000 OA
ATOM     34  O   UNL     1       4.359   5.780  19.431  0.00  0.00    +0.000 OA
ENDBRANCH  27  32
ENDBRANCH   1  31
TORSDOF 2
ENDMDL
MODEL 6
REMARK VINA RESULT:      -7.3      8.922     10.572
REMARK  Name = 
REMARK  2 active torsions:
REMARK  status: ('A' for Active; 'I' for Inactive)
REMARK    1  A    between atoms: C_7  and  N_8
REMARK    2  A    between atoms: C_14  and  C_15
REMARK                            x       y       z     vdW  Elec       q    Type
REMARK                         _______ _______ _______ _____ _____    ______ ____
ROOT
ATOM      1  C   UNL     1       6.847   5.745  16.028  0.00  0.00    +0.000 A 
ATOM      2  N   UNL     1       7.414   5.567  14.864  0.00  0.00    +0.000 NA
ATOM      3  C   UNL     1       6.820   4.696  13.919  0.00  0.00    +0.000 A 
ATOM      4  C   UNL     1       7.436   4.502  12.681  0.00  0.00    +0.000 A 
ATOM      5  C   UNL     1       6.859   3.664  11.722  0.00  0.00    +0.000 A 
ATOM      6  C   UNL     1       5.660   3.004  11.996  0.00  0.00    +0.000 A 
ATOM      7  C   UNL     1       5.037   3.181  13.231  0.00  0.00    +0.000 A 
ATOM      8  C   UNL     1       5.618   4.021  14.187  0.00  0.00    +0.000 A 
ATOM      9  C   UNL     1       5.012   4.251  15.485  0.00  0.00    +0.000 A 
ATOM     10  N   UNL     1       3.905   3.730  15.960  0.00  0.00    +0.000 NA
ATOM     11  C   UNL     1       3.782   4.280  17.194  0.00  0.00    +0.000 A 
ATOM     12  C   UNL     1       2.746   4.043  18.170  0.00  0.00    +0.000 A 
ATOM     13  N   UNL     1       1.741   3.208  17.964  0.00  0.00    +0.000 NA
ATOM     14  S   UNL     1       0.880   3.316  19.396  0.00  0.00    +0.000 S 
ATOM     15  N   UNL     1       1.814   4.426  20.237  0.00  0.00    +0.000 NA
ATOM     16  C   UNL     1       2.834   4.762  19.422  0.00  0.00    +0.000 A 
ATOM     17  C   UNL     1       3.849   5.689  19.719  0.00  0.00    +0.000 A 
ATOM     18  C   UNL     1       4.809   5.920  18.719  0.00  0.00    +0.000 A 
ATOM     19  C   UNL     1       4.791   5.192  17.506  0.00  0.00    +0.000 A 
ATOM     20  N   UNL     1       5.626   5.120  16.381  0.00  0.00    +0.000 N 
ENDROOT
BRANCH   1  31
ATOM     21  O   UNL     1       8.097   4.838  18.457  0.00  0.00    +0.000 OA
ATOM     22  C   UNL     1       8.032   6.048  18.284  0.00  0.00    +0.000 A 
ATOM     23  O   UNL     1       8.391   6.944  19.282  0.00  0.00    +0.000 OA
ATOM     24  C   UNL     1       8.492   8.320  19.015  0.00  0.00    +0.000 A 
ATOM     25  C   UNL     1       9.016   9.121  20.028  0.00  0.00    +0.000 A 
ATOM     26  C   UNL     1       9.228  10.475  19.782  0.00  0.00    +0.000 A 
ATOM     27  C   UNL     1       8.907  11.006  18.524  0.00  0.00    +0.000 A 
ATOM     28  C   UNL     1       8.346  10.195  17.518  0.00  0.00    +0.000 A 
ATOM     29  C   UNL     1       8.129   8.837  17.770  0.00  0.00    +0.000 A 
ATOM     30  C   UNL     1       7.531   7.939  16.790  0.00  0.00    +0.000 A 
ATOM     31  C   UNL     1       7.460   6.623  17.051  0.00  0.00    +0.000 A 
BRANCH  27  32
ATOM     32  N   UNL     1       9.171  12.427  18.249  0.00  0.00    +0.000 N 
ATOM     33  O   UNL     1       8.433  13.002  17.434  0.00  0.00    +0.000 OA
ATOM     34  O   UNL     1      10.111  12.961  18.849  0.00  0.00    +0.000 OA
ENDBRANCH  27  32
ENDBRANCH   1  31
TORSDOF 2
ENDMDL
MODEL 7
REMARK VINA RESULT:      -7.2      7.891      9.924
REMARK  Name = 
REMARK  2 active torsions:
REMARK  status: ('A' for Active; 'I' for Inactive)
REMARK    1  A    between atoms: C_7  and  N_8
REMARK    2  A    between atoms: C_14  and  C_15
REMARK                            x       y       z     vdW  Elec       q    Type
REMARK                         _______ _______ _______ _____ _____    ______ ____
ROOT
ATOM      1  C   UNL     1      -0.779  14.962  20.668  0.00  0.00    +0.000 A 
ATOM      2  N   UNL     1      -0.723  16.246  20.431  0.00  0.00    +0.000 NA
ATOM      3  C   UNL     1       0.135  16.737  19.417  0.00  0.00    +0.000 A 
ATOM      4  C   UNL     1       0.197  18.111  19.176  0.00  0.00    +0.000 A 
ATOM      5  C   UNL     1       1.019  18.620  18.166  0.00  0.00    +0.000 A 
ATOM      6  C   UNL     1       1.795  17.757  17.390  0.00  0.00    +0.000 A 
ATOM      7  C   UNL     1       1.750  16.383  17.625  0.00  0.00    +0.000 A 
ATOM      8  C   UNL     1       0.925  15.879  18.636  0.00  0.00    +0.000 A 
ATOM      9  C   UNL     1       0.829  14.459  18.920  0.00  0.00    +0.000 A 
ATOM     10  N   UNL     1       1.472  13.476  18.334  0.00  0.00    +0.000 NA
ATOM     11  C   UNL     1       1.013  12.362  18.958  0.00  0.00    +0.000 A 
ATOM     12  C   UNL     1       1.397  10.991  18.719  0.00  0.00    +0.000 A 
ATOM     13  N   UNL     1       2.301  10.645  17.816  0.00  0.00    +0.000 NA
ATOM     14  S   UNL     1       2.357   8.979  17.980  0.00  0.00    +0.000 S 
ATOM     15  N   UNL     1       1.226   8.749  19.198  0.00  0.00    +0.000 NA
ATOM     16  C   UNL     1       0.754   9.971  19.516  0.00  0.00    +0.000 A 
ATOM     17  C   UNL     1      -0.236  10.242  20.477  0.00  0.00    +0.000 A 
ATOM     18  C   UNL     1      -0.610  11.586  20.641  0.00  0.00    +0.000 A 
ATOM     19  C   UNL     1       0.040  12.618  19.923  0.00  0.00    +0.000 A 
ATOM     20  N   UNL     1      -0.031  14.020  19.921  0.00  0.00    +0.000 N 
ENDROOT
BRANCH   1  31
ATOM     21  O   UNL     1      -0.062  14.820  23.453  0.00  0.00    +0.000 OA
ATOM     22  C   UNL     1      -1.148  14.354  23.134  0.00  0.00    +0.000 A 
ATOM     23  O   UNL     1      -1.925  13.642  24.038  0.00  0.00    +0.000 OA
ATOM     24  C   UNL     1      -3.244  13.272  23.722  0.00  0.00    +0.000 A 
ATOM     25  C   UNL     1      -4.001  12.706  24.746  0.00  0.00    +0.000 A 
ATOM     26  C   UNL     1      -5.342  12.412  24.516  0.00  0.00    +0.000 A 
ATOM     27  C   UNL     1      -5.902  12.686  23.260  0.00  0.00    +0.000 A 
ATOM     28  C   UNL     1      -5.119  13.226  22.220  0.00  0.00    +0.000 A 
ATOM     29  C   UNL     1      -3.772  13.515  22.453  0.00  0.00    +0.000 A 
ATOM     30  C   UNL     1      -2.891  14.052  21.423  0.00  0.00    +0.000 A 
ATOM     31  C   UNL     1      -1.639  14.420  21.744  0.00  0.00    +0.000 A 
BRANCH  27  32
ATOM     32  N   UNL     1      -7.330  12.415  23.028  0.00  0.00    +0.000 N 
ATOM     33  O   UNL     1      -7.859  11.512  23.694  0.00  0.00    +0.000 OA
ATOM     34  O   UNL     1      -7.914  13.105  22.186  0.00  0.00    +0.000 OA
ENDBRANCH  27  32
ENDBRANCH   1  31
TORSDOF 2
ENDMDL
MODEL 8
REMARK VINA RESULT:      -6.9      7.870     11.612
REMARK  Name = 
REMARK  2 active torsions:
REMARK  status: ('A' for Active; 'I' for Inactive)
REMARK    1  A    between atoms: C_7  and  N_8
REMARK    2  A    between atoms: C_14  and  C_15
REMARK                            x       y       z     vdW  Elec       q    Type
REMARK                         _______ _______ _______ _____ _____    ______ ____
ROOT
ATOM      1  C   UNL     1      -2.452  13.081  20.135  0.00  0.00    +0.000 A 
ATOM      2  N   UNL     1      -2.953  12.236  19.275  0.00  0.00    +0.000 NA
ATOM      3  C   UNL     1      -4.354  12.041  19.214  0.00  0.00    +0.000 A 
ATOM      4  C   UNL     1      -4.882  11.128  18.299  0.00  0.00    +0.000 A 
ATOM      5  C   UNL     1      -6.264  10.933  18.204  0.00  0.00    +0.000 A 
ATOM      6  C   UNL     1      -7.132  11.646  19.033  0.00  0.00    +0.000 A 
ATOM      7  C   UNL     1      -6.619  12.555  19.958  0.00  0.00    +0.000 A 
ATOM      8  C   UNL     1      -5.237  12.747  20.048  0.00  0.00    +0.000 A 
ATOM      9  C   UNL     1      -4.645  13.685  20.983  0.00  0.00    +0.000 A 
ATOM     10  N   UNL     1      -5.261  14.444  21.860  0.00  0.00    +0.000 NA
ATOM     11  C   UNL     1      -4.260  15.134  22.463  0.00  0.00    +0.000 A 
ATOM     12  C   UNL     1      -4.368  16.106  23.524  0.00  0.00    +0.000 A 
ATOM     13  N   UNL     1      -5.525  16.450  24.068  0.00  0.00    +0.000 NA
ATOM     14  S   UNL     1      -5.061  17.568  25.226  0.00  0.00    +0.000 S 
ATOM     15  N   UNL     1      -3.399  17.580  24.998  0.00  0.00    +0.000 NA
ATOM     16  C   UNL     1      -3.145  16.713  23.998  0.00  0.00    +0.000 A 
ATOM     17  C   UNL     1      -1.876  16.430  23.462  0.00  0.00    +0.000 A 
ATOM     18  C   UNL     1      -1.826  15.513  22.399  0.00  0.00    +0.000 A 
ATOM     19  C   UNL     1      -2.994  14.852  21.949  0.00  0.00    +0.000 A 
ATOM     20  N   UNL     1      -3.264  13.850  21.004  0.00  0.00    +0.000 N 
ENDROOT
BRANCH   1  31
ATOM     21  O   UNL     1      -0.633  11.317  21.501  0.00  0.00    +0.000 OA
ATOM     22  C   UNL     1      -0.159  12.334  21.013  0.00  0.00    +0.000 A 
ATOM     23  O   UNL     1       1.158  12.706  21.248  0.00  0.00    +0.000 OA
ATOM     24  C   UNL     1       1.746  13.768  20.540  0.00  0.00    +0.000 A 
ATOM     25  C   UNL     1       3.114  13.963  20.722  0.00  0.00    +0.000 A 
ATOM     26  C   UNL     1       3.766  14.938  19.971  0.00  0.00    +0.000 A 
ATOM     27  C   UNL     1       3.034  15.705  19.052  0.00  0.00    +0.000 A 
ATOM     28  C   UNL     1       1.645  15.523  18.901  0.00  0.00    +0.000 A 
ATOM     29  C   UNL     1       0.993  14.547  19.661  0.00  0.00    +0.000 A 
ATOM     30  C   UNL     1      -0.444  14.315  19.579  0.00  0.00    +0.000 A 
ATOM     31  C   UNL     1      -0.990  13.284  20.246  0.00  0.00    +0.000 A 
BRANCH  27  32
ATOM     32  N   UNL     1       3.729  16.706  18.227  0.00  0.00    +0.000 N 
ATOM     33  O   UNL     1       3.167  17.087  17.190  0.00  0.00    +0.000 OA
ATOM     34  O   UNL     1       4.831  17.105  18.621  0.00  0.00    +0.000 OA
ENDBRANCH  27  32
ENDBRANCH   1  31
TORSDOF 2
ENDMDL
MODEL 9
REMARK VINA RESULT:      -6.9      6.597     10.231
REMARK  Name = 
REMARK  2 active torsions:
REMARK  status: ('A' for Active; 'I' for Inactive)
REMARK    1  A    between atoms: C_7  and  N_8
REMARK    2  A    between atoms: C_14  and  C_15
REMARK                            x       y       z     vdW  Elec       q    Type
REMARK                         _______ _______ _______ _____ _____    ______ ____
ROOT
ATOM      1  C   UNL     1      -0.438  13.755  21.810  0.00  0.00    +0.000 A 
ATOM      2  N   UNL     1      -1.284  13.870  22.799  0.00  0.00    +0.000 NA
ATOM      3  C   UNL     1      -1.106  14.894  23.761  0.00  0.00    +0.000 A 
ATOM      4  C   UNL     1      -2.009  15.005  24.821  0.00  0.00    +0.000 A 
ATOM      5  C   UNL     1      -1.868  16.021  25.772  0.00  0.00    +0.000 A 
ATOM      6  C   UNL     1      -0.816  16.933  25.675  0.00  0.00    +0.000 A 
ATOM      7  C   UNL     1       0.098  16.830  24.627  0.00  0.00    +0.000 A 
ATOM      8  C   UNL     1      -0.047  15.813  23.678  0.00  0.00    +0.000 A 
ATOM      9  C   UNL     1       0.866  15.661  22.560  0.00  0.00    +0.000 A 
ATOM     10  N   UNL     1       1.924  16.387  22.281  0.00  0.00    +0.000 NA
ATOM     11  C   UNL     1       2.408  15.841  21.137  0.00  0.00    +0.000 A 
ATOM     12  C   UNL     1       3.577  16.240  20.391  0.00  0.00    +0.000 A 
ATOM     13  N   UNL     1       4.361  17.238  20.764  0.00  0.00    +0.000 NA
ATOM     14  S   UNL     1       5.536  17.241  19.570  0.00  0.00    +0.000 S 
ATOM     15  N   UNL     1       5.009  15.969  18.613  0.00  0.00    +0.000 NA
ATOM     16  C   UNL     1       3.884  15.499  19.188  0.00  0.00    +0.000 A 
ATOM     17  C   UNL     1       3.093  14.444  18.700  0.00  0.00    +0.000 A 
ATOM     18  C   UNL     1       1.940  14.122  19.435  0.00  0.00    +0.000 A 
ATOM     19  C   UNL     1       1.639  14.784  20.650  0.00  0.00    +0.000 A 
ATOM     20  N   UNL     1       0.650  14.645  21.635  0.00  0.00    +0.000 N 
ENDROOT
BRANCH   1  31
ATOM     21  O   UNL     1       0.912  11.215  21.912  0.00  0.00    +0.000 OA
ATOM     22  C   UNL     1       0.203  11.429  20.938  0.00  0.00    +0.000 A 
ATOM     23  O   UNL     1       0.180  10.562  19.853  0.00  0.00    +0.000 OA
ATOM     24  C   UNL     1      -0.768  10.714  18.827  0.00  0.00    +0.000 A 
ATOM     25  C   UNL     1      -0.822   9.705  17.866  0.00  0.00    +0.000 A 
ATOM     26  C   UNL     1      -1.807   9.757  16.883  0.00  0.00    +0.000 A 
ATOM     27  C   UNL     1      -2.719  10.822  16.877  0.00  0.00    +0.000 A 
ATOM     28  C   UNL     1      -2.634  11.855  17.831  0.00  0.00    +0.000 A 
ATOM     29  C   UNL     1      -1.640  11.802  18.813  0.00  0.00    +0.000 A 
ATOM     30  C   UNL     1      -1.472  12.844  19.820  0.00  0.00    +0.000 A 
ATOM     31  C   UNL     1      -0.576  12.675  20.807  0.00  0.00    +0.000 A 
BRANCH  27  32
ATOM     32  N   UNL     1      -3.787  10.855  15.864  0.00  0.00    +0.000 N 
ATOM     33  O   UNL     1      -3.488  10.535  14.703  0.00  0.00    +0.000 OA
ATOM     34  O   UNL     1      -4.915  11.198  16.233  0.00  0.00    +0.000 OA
ENDBRANCH  27  32
ENDBRANCH   1  31
TORSDOF 2
ENDMDL
