MODEL 1
REMARK VINA RESULT:      -7.3      0.000      0.000
REMARK  Name = 
REMARK  11 active torsions:
REMARK  status: ('A' for Active; 'I' for Inactive)
REMARK    1  A    between atoms: C_1  and  C_2
REMARK    2  A    between atoms: C_2  and  C_3
REMARK    3  A    between atoms: C_3  and  C_4
REMARK    4  A    between atoms: C_4  and  N_5
REMARK    5  A    between atoms: C_6  and  C_8
REMARK    6  A    between atoms: C_8  and  N_9
REMARK    7  A    between atoms: C_10  and  S_11
REMARK    8  A    between atoms: N_12  and  C_13
REMARK    9  A    between atoms: N_12  and  C_20
REMARK   10  A    between atoms: C_13  and  C_14
REMARK   11  A    between atoms: C_20  and  C_21
REMARK                            x       y       z     vdW  Elec       q    Type
REMARK                         _______ _______ _______ _____ _____    ______ ____
ROOT
ATOM      1  N   UNL     1       4.592   4.588  16.656  0.00  0.00    +0.000 NA
ATOM      2  C   UNL     1       4.594   5.659  17.397  0.00  0.00    +0.000 C 
ATOM      3  N   UNL     1       3.417   6.348  17.718  0.00  0.00    +0.000 N 
ENDROOT
BRANCH   2   4
ATOM      4  S   UNL     1       6.092   6.306  18.092  0.00  0.00    +0.000 S 
ATOM      5  H   UNL     1       5.652   7.495  18.497  0.00  0.00    +0.000 HD
ENDBRANCH   2   4
BRANCH   1   6
ATOM      6  C   UNL     1       5.782   3.823  16.244  0.00  0.00    +0.000 C 
BRANCH   6   8
ATOM      7  N   UNL     1       6.067   3.212  13.886  0.00  0.00    +0.000 N 
ATOM      8  C   UNL     1       6.208   4.198  14.827  0.00  0.00    +0.000 C 
ATOM      9  O   UNL     1       6.612   5.340  14.534  0.00  0.00    +0.000 OA
ATOM     10  H   UNL     1       5.711   2.310  14.190  0.00  0.00    +0.000 HD
BRANCH   7  11
ATOM     11  C   UNL     1       6.399   3.447  12.497  0.00  0.00    +0.000 C 
BRANCH  11  12
ATOM     12  C   UNL     1       5.397   2.808  11.535  0.00  0.00    +0.000 C 
BRANCH  12  14
ATOM     13  C   UNL     1       3.134   3.065  10.444  0.00  0.00    +0.000 C 
ATOM     14  C   UNL     1       4.257   3.768  11.188  0.00  0.00    +0.000 C 
ENDBRANCH  12  14
ENDBRANCH  11  12
ENDBRANCH   7  11
ENDBRANCH   6   8
ENDBRANCH   1   6
BRANCH   3  15
ATOM     15  C   UNL     1       3.398   7.812  17.934  0.00  0.00    +0.000 C 
BRANCH  15  16
ATOM     16  C   UNL     1       2.176   8.453  18.567  0.00  0.00    +0.000 A 
ATOM     17  C   UNL     1       1.851   8.298  19.915  0.00  0.00    +0.000 A 
ATOM     18  C   UNL     1       0.748   8.957  20.461  0.00  0.00    +0.000 A 
ATOM     19  C   UNL     1      -0.055   9.769  19.659  0.00  0.00    +0.000 A 
ATOM     20  C   UNL     1       0.240   9.928  18.308  0.00  0.00    +0.000 A 
ATOM     21  C   UNL     1       1.356   9.287  17.768  0.00  0.00    +0.000 A 
ENDBRANCH  15  16
ENDBRANCH   3  15
BRANCH   3  22
ATOM     22  C   UNL     1       2.110   5.653  17.887  0.00  0.00    +0.000 C 
BRANCH  22  23
ATOM     23  C   UNL     1       1.992   4.563  18.936  0.00  0.00    +0.000 A 
ATOM     24  C   UNL     1       1.613   3.258  18.628  0.00  0.00    +0.000 A 
ATOM     25  C   UNL     1       1.607   2.265  19.607  0.00  0.00    +0.000 A 
ATOM     26  C   UNL     1       2.003   2.604  20.890  0.00  0.00    +0.000 A 
ATOM     27  N   UNL     1       2.310   3.862  21.261  0.00  0.00    +0.000 NA
ATOM     28  C   UNL     1       2.279   4.810  20.287  0.00  0.00    +0.000 A 
ENDBRANCH  22  23
ENDBRANCH   3  22
TORSDOF 10
ENDMDL
MODEL 2
REMARK VINA RESULT:      -7.2      0.578      1.350
REMARK  Name = 
REMARK  11 active torsions:
REMARK  status: ('A' for Active; 'I' for Inactive)
REMARK    1  A    between atoms: C_1  and  C_2
REMARK    2  A    between atoms: C_2  and  C_3
REMARK    3  A    between atoms: C_3  and  C_4
REMARK    4  A    between atoms: C_4  and  N_5
REMARK    5  A    between atoms: C_6  and  C_8
REMARK    6  A    between atoms: C_8  and  N_9
REMARK    7  A    between atoms: C_10  and  S_11
REMARK    8  A    between atoms: N_12  and  C_13
REMARK    9  A    between atoms: N_12  and  C_20
REMARK   10  A    between atoms: C_13  and  C_14
REMARK   11  A    between atoms: C_20  and  C_21
REMARK                            x       y       z     vdW  Elec       q    Type
REMARK                         _______ _______ _______ _____ _____    ______ ____
ROOT
ATOM      1  N   UNL     1       4.466   4.707  16.756  0.00  0.00    +0.000 NA
ATOM      2  C   UNL     1       4.477   5.807  17.453  0.00  0.00    +0.000 C 
ATOM      3  N   UNL     1       3.302   6.494  17.786  0.00  0.00    +0.000 N 
ENDROOT
BRANCH   2   4
ATOM      4  S   UNL     1       5.988   6.499  18.073  0.00  0.00    +0.000 S 
ATOM      5  H   UNL     1       6.859   5.665  17.512  0.00  0.00    +0.000 HD
ENDBRANCH   2   4
BRANCH   1   6
ATOM      6  C   UNL     1       5.652   3.941  16.335  0.00  0.00    +0.000 C 
BRANCH   6   8
ATOM      7  N   UNL     1       6.123   3.248  14.030  0.00  0.00    +0.000 N 
ATOM      8  C   UNL     1       6.055   4.299  14.908  0.00  0.00    +0.000 C 
ATOM      9  O   UNL     1       6.263   5.475  14.550  0.00  0.00    +0.000 OA
ATOM     10  H   UNL     1       5.919   2.318  14.384  0.00  0.00    +0.000 HD
BRANCH   7  11
ATOM     11  C   UNL     1       6.457   3.454  12.637  0.00  0.00    +0.000 C 
BRANCH  11  12
ATOM     12  C   UNL     1       5.439   2.824  11.688  0.00  0.00    +0.000 C 
BRANCH  12  14
ATOM     13  C   UNL     1       3.233   3.136  10.497  0.00  0.00    +0.000 C 
ATOM     14  C   UNL     1       4.299   3.791  11.360  0.00  0.00    +0.000 C 
ENDBRANCH  12  14
ENDBRANCH  11  12
ENDBRANCH   7  11
ENDBRANCH   6   8
ENDBRANCH   1   6
BRANCH   3  15
ATOM     15  C   UNL     1       3.270   7.965  17.944  0.00  0.00    +0.000 C 
BRANCH  15  16
ATOM     16  C   UNL     1       2.066   8.615  18.603  0.00  0.00    +0.000 A 
ATOM     17  C   UNL     1       1.161   9.416  17.906  0.00  0.00    +0.000 A 
ATOM     18  C   UNL     1       0.037   9.941  18.546  0.00  0.00    +0.000 A 
ATOM     19  C   UNL     1      -0.186   9.684  19.899  0.00  0.00    +0.000 A 
ATOM     20  C   UNL     1       0.710   8.900  20.619  0.00  0.00    +0.000 A 
ATOM     21  C   UNL     1       1.821   8.356  19.974  0.00  0.00    +0.000 A 
ENDBRANCH  15  16
ENDBRANCH   3  15
BRANCH   3  22
ATOM     22  C   UNL     1       2.011   5.790  18.024  0.00  0.00    +0.000 C 
BRANCH  22  23
ATOM     23  C   UNL     1       1.954   4.707  19.086  0.00  0.00    +0.000 A 
ATOM     24  C   UNL     1       2.242   4.948  20.427  0.00  0.00    +0.000 A 
ATOM     25  C   UNL     1       2.087   3.946  21.384  0.00  0.00    +0.000 A 
ATOM     26  C   UNL     1       1.624   2.709  20.971  0.00  0.00    +0.000 A 
ATOM     27  N   UNL     1       1.398   2.397  19.680  0.00  0.00    +0.000 NA
ATOM     28  C   UNL     1       1.586   3.390  18.771  0.00  0.00    +0.000 A 
ENDBRANCH  22  23
ENDBRANCH   3  22
TORSDOF 10
ENDMDL
MODEL 3
REMARK VINA RESULT:      -7.2      0.740      1.152
REMARK  Name = 
REMARK  11 active torsions:
REMARK  status: ('A' for Active; 'I' for Inactive)
REMARK    1  A    between atoms: C_1  and  C_2
REMARK    2  A    between atoms: C_2  and  C_3
REMARK    3  A    between atoms: C_3  and  C_4
REMARK    4  A    between atoms: C_4  and  N_5
REMARK    5  A    between atoms: C_6  and  C_8
REMARK    6  A    between atoms: C_8  and  N_9
REMARK    7  A    between atoms: C_10  and  S_11
REMARK    8  A    between atoms: N_12  and  C_13
REMARK    9  A    between atoms: N_12  and  C_20
REMARK   10  A    between atoms: C_13  and  C_14
REMARK   11  A    between atoms: C_20  and  C_21
REMARK                            x       y       z     vdW  Elec       q    Type
REMARK                         _______ _______ _______ _____ _____    ______ ____
ROOT
ATOM      1  N   UNL     1       4.644   4.417  16.913  0.00  0.00    +0.000 NA
ATOM      2  C   UNL     1       4.583   5.562  17.530  0.00  0.00    +0.000 C 
ATOM      3  N   UNL     1       3.374   6.244  17.723  0.00  0.00    +0.000 N 
ENDROOT
BRANCH   2   4
ATOM      4  S   UNL     1       6.029   6.328  18.214  0.00  0.00    +0.000 S 
ATOM      5  H   UNL     1       6.894   6.080  17.234  0.00  0.00    +0.000 HD
ENDBRANCH   2   4
BRANCH   1   6
ATOM      6  C   UNL     1       5.872   3.650  16.639  0.00  0.00    +0.000 C 
BRANCH   6   8
ATOM      7  N   UNL     1       5.923   3.920  14.202  0.00  0.00    +0.000 N 
ATOM      8  C   UNL     1       6.570   4.167  15.385  0.00  0.00    +0.000 C 
ATOM      9  O   UNL     1       7.635   4.814  15.434  0.00  0.00    +0.000 OA
ATOM     10  H   UNL     1       5.047   3.405  14.236  0.00  0.00    +0.000 HD
BRANCH   7  11
ATOM     11  C   UNL     1       6.458   4.388  12.942  0.00  0.00    +0.000 C 
BRANCH  11  12
ATOM     12  C   UNL     1       6.589   3.272  11.906  0.00  0.00    +0.000 C 
BRANCH  12  14
ATOM     13  C   UNL     1       4.188   3.230  11.122  0.00  0.00    +0.000 C 
ATOM     14  C   UNL     1       5.303   2.448  11.797  0.00  0.00    +0.000 C 
ENDBRANCH  12  14
ENDBRANCH  11  12
ENDBRANCH   7  11
ENDBRANCH   6   8
ENDBRANCH   1   6
BRANCH   3  15
ATOM     15  C   UNL     1       3.306   7.722  17.775  0.00  0.00    +0.000 C 
BRANCH  15  16
ATOM     16  C   UNL     1       2.163   8.386  18.523  0.00  0.00    +0.000 A 
ATOM     17  C   UNL     1       1.955   8.220  19.893  0.00  0.00    +0.000 A 
ATOM     18  C   UNL     1       0.924   8.900  20.542  0.00  0.00    +0.000 A 
ATOM     19  C   UNL     1       0.075   9.744  19.825  0.00  0.00    +0.000 A 
ATOM     20  C   UNL     1       0.254   9.915  18.455  0.00  0.00    +0.000 A 
ATOM     21  C   UNL     1       1.299   9.252  17.809  0.00  0.00    +0.000 A 
ENDBRANCH  15  16
ENDBRANCH   3  15
BRANCH   3  22
ATOM     22  C   UNL     1       2.080   5.530  17.911  0.00  0.00    +0.000 C 
BRANCH  22  23
ATOM     23  C   UNL     1       1.972   4.488  19.009  0.00  0.00    +0.000 A 
ATOM     24  C   UNL     1       2.129   4.795  20.359  0.00  0.00    +0.000 A 
ATOM     25  C   UNL     1       1.929   3.826  21.341  0.00  0.00    +0.000 A 
ATOM     26  C   UNL     1       1.556   2.553  20.942  0.00  0.00    +0.000 A 
ATOM     27  N   UNL     1       1.461   2.181  19.651  0.00  0.00    +0.000 NA
ATOM     28  C   UNL     1       1.689   3.145  18.720  0.00  0.00    +0.000 A 
ENDBRANCH  22  23
ENDBRANCH   3  22
TORSDOF 10
ENDMDL
MODEL 4
REMARK VINA RESULT:      -7.2      1.522      4.367
REMARK  Name = 
REMARK  11 active torsions:
REMARK  status: ('A' for Active; 'I' for Inactive)
REMARK    1  A    between atoms: C_1  and  C_2
REMARK    2  A    between atoms: C_2  and  C_3
REMARK    3  A    between atoms: C_3  and  C_4
REMARK    4  A    between atoms: C_4  and  N_5
REMARK    5  A    between atoms: C_6  and  C_8
REMARK    6  A    between atoms: C_8  and  N_9
REMARK    7  A    between atoms: C_10  and  S_11
REMARK    8  A    between atoms: N_12  and  C_13
REMARK    9  A    between atoms: N_12  and  C_20
REMARK   10  A    between atoms: C_13  and  C_14
REMARK   11  A    between atoms: C_20  and  C_21
REMARK                            x       y       z     vdW  Elec       q    Type
REMARK                         _______ _______ _______ _____ _____    ______ ____
ROOT
ATOM      1  N   UNL     1       5.444   5.639  17.770  0.00  0.00    +0.000 NA
ATOM      2  C   UNL     1       4.209   5.278  17.573  0.00  0.00    +0.000 C 
ATOM      3  N   UNL     1       3.125   6.085  17.946  0.00  0.00    +0.000 N 
ENDROOT
BRANCH   2   4
ATOM      4  S   UNL     1       3.804   3.748  16.774  0.00  0.00    +0.000 S 
ATOM      5  H   UNL     1       2.680   3.452  17.420  0.00  0.00    +0.000 HD
ENDBRANCH   2   4
BRANCH   1   6
ATOM      6  C   UNL     1       6.638   4.843  17.440  0.00  0.00    +0.000 C 
BRANCH   6   8
ATOM      7  N   UNL     1       6.438   3.919  15.177  0.00  0.00    +0.000 N 
ATOM      8  C   UNL     1       6.955   4.926  15.950  0.00  0.00    +0.000 C 
ATOM      9  O   UNL     1       7.601   5.872  15.458  0.00  0.00    +0.000 OA
ATOM     10  H   UNL     1       5.902   3.190  15.640  0.00  0.00    +0.000 HD
BRANCH   7  11
ATOM     11  C   UNL     1       6.632   3.897  13.743  0.00  0.00    +0.000 C 
BRANCH  11  12
ATOM     12  C   UNL     1       5.321   4.027  12.969  0.00  0.00    +0.000 C 
BRANCH  12  14
ATOM     13  C   UNL     1       3.935   3.140  11.052  0.00  0.00    +0.000 C 
ATOM     14  C   UNL     1       5.237   3.012  11.826  0.00  0.00    +0.000 C 
ENDBRANCH  12  14
ENDBRANCH  11  12
ENDBRANCH   7  11
ENDBRANCH   6   8
ENDBRANCH   1   6
BRANCH   3  15
ATOM     15  C   UNL     1       1.827   5.510  18.366  0.00  0.00    +0.000 C 
BRANCH  15  16
ATOM     16  C   UNL     1       1.796   4.495  19.494  0.00  0.00    +0.000 A 
ATOM     17  C   UNL     1       2.394   4.720  20.735  0.00  0.00    +0.000 A 
ATOM     18  C   UNL     1       2.286   3.778  21.759  0.00  0.00    +0.000 A 
ATOM     19  C   UNL     1       1.589   2.587  21.548  0.00  0.00    +0.000 A 
ATOM     20  C   UNL     1       0.996   2.333  20.315  0.00  0.00    +0.000 A 
ATOM     21  C   UNL     1       1.085   3.285  19.299  0.00  0.00    +0.000 A 
ENDBRANCH  15  16
ENDBRANCH   3  15
BRANCH   3  22
ATOM     22  C   UNL     1       3.197   7.572  17.925  0.00  0.00    +0.000 C 
BRANCH  22  23
ATOM     23  C   UNL     1       2.080   8.368  18.575  0.00  0.00    +0.000 A 
ATOM     24  C   UNL     1       1.819   8.323  19.943  0.00  0.00    +0.000 A 
ATOM     25  C   UNL     1       0.844   9.141  20.512  0.00  0.00    +0.000 A 
ATOM     26  C   UNL     1       0.152  10.011  19.688  0.00  0.00    +0.000 A 
ATOM     27  N   UNL     1       0.311  10.046  18.350  0.00  0.00    +0.000 NA
ATOM     28  C   UNL     1       1.251   9.216  17.826  0.00  0.00    +0.000 A 
ENDBRANCH  22  23
ENDBRANCH   3  22
TORSDOF 10
ENDMDL
MODEL 5
REMARK VINA RESULT:      -7.2      3.904      7.683
REMARK  Name = 
REMARK  11 active torsions:
REMARK  status: ('A' for Active; 'I' for Inactive)
REMARK    1  A    between atoms: C_1  and  C_2
REMARK    2  A    between atoms: C_2  and  C_3
REMARK    3  A    between atoms: C_3  and  C_4
REMARK    4  A    between atoms: C_4  and  N_5
REMARK    5  A    between atoms: C_6  and  C_8
REMARK    6  A    between atoms: C_8  and  N_9
REMARK    7  A    between atoms: C_10  and  S_11
REMARK    8  A    between atoms: N_12  and  C_13
REMARK    9  A    between atoms: N_12  and  C_20
REMARK   10  A    between atoms: C_13  and  C_14
REMARK   11  A    between atoms: C_20  and  C_21
REMARK                            x       y       z     vdW  Elec       q    Type
REMARK                         _______ _______ _______ _____ _____    ______ ____
ROOT
ATOM      1  N   UNL     1       7.225   5.654  17.667  0.00  0.00    +0.000 NA
ATOM      2  C   UNL     1       6.000   5.233  17.799  0.00  0.00    +0.000 C 
ATOM      3  N   UNL     1       5.360   4.473  16.812  0.00  0.00    +0.000 N 
ENDROOT
BRANCH   2   4
ATOM      4  S   UNL     1       5.059   5.558  19.267  0.00  0.00    +0.000 S 
ATOM      5  H   UNL     1       4.147   4.595  19.162  0.00  0.00    +0.000 HD
ENDBRANCH   2   4
BRANCH   1   6
ATOM      6  C   UNL     1       7.962   6.482  18.637  0.00  0.00    +0.000 C 
BRANCH   6   8
ATOM      7  N   UNL     1       8.829   8.758  18.926  0.00  0.00    +0.000 N 
ATOM      8  C   UNL     1       8.034   7.934  18.173  0.00  0.00    +0.000 C 
ATOM      9  O   UNL     1       7.448   8.335  17.148  0.00  0.00    +0.000 OA
ATOM     10  H   UNL     1       9.295   8.360  19.736  0.00  0.00    +0.000 HD
BRANCH   7  11
ATOM     11  C   UNL     1       9.015  10.149  18.573  0.00  0.00    +0.000 C 
BRANCH  11  12
ATOM     12  C   UNL     1       9.918  10.891  19.558  0.00  0.00    +0.000 C 
BRANCH  12  14
ATOM     13  C   UNL     1      12.221  11.899  19.809  0.00  0.00    +0.000 C 
ATOM     14  C   UNL     1      11.091  11.571  18.847  0.00  0.00    +0.000 C 
ENDBRANCH  12  14
ENDBRANCH  11  12
ENDBRANCH   7  11
ENDBRANCH   6   8
ENDBRANCH   1   6
BRANCH   3  15
ATOM     15  C   UNL     1       3.899   4.550  16.586  0.00  0.00    +0.000 C 
BRANCH  15  16
ATOM     16  C   UNL     1       2.974   3.678  17.418  0.00  0.00    +0.000 A 
ATOM     17  C   UNL     1       3.338   2.416  17.886  0.00  0.00    +0.000 A 
ATOM     18  C   UNL     1       2.472   1.680  18.696  0.00  0.00    +0.000 A 
ATOM     19  C   UNL     1       1.219   2.193  19.036  0.00  0.00    +0.000 A 
ATOM     20  C   UNL     1       0.827   3.444  18.569  0.00  0.00    +0.000 A 
ATOM     21  C   UNL     1       1.702   4.189  17.777  0.00  0.00    +0.000 A 
ENDBRANCH  15  16
ENDBRANCH   3  15
BRANCH   3  22
ATOM     22  C   UNL     1       6.100   3.521  15.937  0.00  0.00    +0.000 C 
BRANCH  22  23
ATOM     23  C   UNL     1       6.607   4.007  14.592  0.00  0.00    +0.000 A 
ATOM     24  C   UNL     1       6.172   3.469  13.382  0.00  0.00    +0.000 A 
ATOM     25  C   UNL     1       6.594   4.008  12.167  0.00  0.00    +0.000 A 
ATOM     26  C   UNL     1       7.443   5.101  12.192  0.00  0.00    +0.000 A 
ATOM     27  N   UNL     1       7.951   5.617  13.328  0.00  0.00    +0.000 NA
ATOM     28  C   UNL     1       7.540   5.050  14.493  0.00  0.00    +0.000 A 
ENDBRANCH  22  23
ENDBRANCH   3  22
TORSDOF 10
ENDMDL
MODEL 6
REMARK VINA RESULT:      -7.1      1.315      1.685
REMARK  Name = 
REMARK  11 active torsions:
REMARK  status: ('A' for Active; 'I' for Inactive)
REMARK    1  A    between atoms: C_1  and  C_2
REMARK    2  A    between atoms: C_2  and  C_3
REMARK    3  A    between atoms: C_3  and  C_4
REMARK    4  A    between atoms: C_4  and  N_5
REMARK    5  A    between atoms: C_6  and  C_8
REMARK    6  A    between atoms: C_8  and  N_9
REMARK    7  A    between atoms: C_10  and  S_11
REMARK    8  A    between atoms: N_12  and  C_13
REMARK    9  A    between atoms: N_12  and  C_20
REMARK   10  A    between atoms: C_13  and  C_14
REMARK   11  A    between atoms: C_20  and  C_21
REMARK                            x       y       z     vdW  Elec       q    Type
REMARK                         _______ _______ _______ _____ _____    ______ ____
ROOT
ATOM      1  N   UNL     1       5.835   4.313  16.381  0.00  0.00    +0.000 NA
ATOM      2  C   UNL     1       5.768   4.778  17.595  0.00  0.00    +0.000 C 
ATOM      3  N   UNL     1       4.553   4.901  18.283  0.00  0.00    +0.000 N 
ENDROOT
BRANCH   2   4
ATOM      4  S   UNL     1       7.223   5.253  18.490  0.00  0.00    +0.000 S 
ATOM      5  H   UNL     1       8.036   5.511  17.469  0.00  0.00    +0.000 HD
ENDBRANCH   2   4
BRANCH   1   6
ATOM      6  C   UNL     1       7.061   4.179  15.575  0.00  0.00    +0.000 C 
BRANCH   6   8
ATOM      7  N   UNL     1       5.805   3.778  13.507  0.00  0.00    +0.000 N 
ATOM      8  C   UNL     1       6.791   4.514  14.111  0.00  0.00    +0.000 C 
ATOM      9  O   UNL     1       7.393   5.429  13.515  0.00  0.00    +0.000 OA
ATOM     10  H   UNL     1       5.339   3.062  14.058  0.00  0.00    +0.000 HD
BRANCH   7  11
ATOM     11  C   UNL     1       5.423   4.019  12.132  0.00  0.00    +0.000 C 
BRANCH  11  12
ATOM     12  C   UNL     1       4.826   2.782  11.461  0.00  0.00    +0.000 C 
BRANCH  12  14
ATOM     13  C   UNL     1       3.270   4.003   9.889  0.00  0.00    +0.000 C 
ATOM     14  C   UNL     1       3.373   3.014  11.040  0.00  0.00    +0.000 C 
ENDBRANCH  12  14
ENDBRANCH  11  12
ENDBRANCH   7  11
ENDBRANCH   6   8
ENDBRANCH   1   6
BRANCH   3  15
ATOM     15  C   UNL     1       4.324   5.966  19.285  0.00  0.00    +0.000 C 
BRANCH  15  16
ATOM     16  C   UNL     1       3.235   6.996  19.038  0.00  0.00    +0.000 A 
ATOM     17  C   UNL     1       2.280   7.334  19.997  0.00  0.00    +0.000 A 
ATOM     18  C   UNL     1       1.337   8.331  19.739  0.00  0.00    +0.000 A 
ATOM     19  C   UNL     1       1.327   8.991  18.509  0.00  0.00    +0.000 A 
ATOM     20  C   UNL     1       2.261   8.660  17.532  0.00  0.00    +0.000 A 
ATOM     21  C   UNL     1       3.219   7.680  17.798  0.00  0.00    +0.000 A 
ENDBRANCH  15  16
ENDBRANCH   3  15
BRANCH   3  22
ATOM     22  C   UNL     1       3.420   3.959  18.069  0.00  0.00    +0.000 C 
BRANCH  22  23
ATOM     23  C   UNL     1       2.660   3.443  19.277  0.00  0.00    +0.000 A 
ATOM     24  C   UNL     1       3.292   2.864  20.375  0.00  0.00    +0.000 A 
ATOM     25  C   UNL     1       2.564   2.489  21.503  0.00  0.00    +0.000 A 
ATOM     26  C   UNL     1       1.199   2.718  21.512  0.00  0.00    +0.000 A 
ATOM     27  N   UNL     1       0.525   3.206  20.453  0.00  0.00    +0.000 NA
ATOM     28  C   UNL     1       1.262   3.537  19.360  0.00  0.00    +0.000 A 
ENDBRANCH  22  23
ENDBRANCH   3  22
TORSDOF 10
ENDMDL
MODEL 7
REMARK VINA RESULT:      -6.9      3.728      7.563
REMARK  Name = 
REMARK  11 active torsions:
REMARK  status: ('A' for Active; 'I' for Inactive)
REMARK    1  A    between atoms: C_1  and  C_2
REMARK    2  A    between atoms: C_2  and  C_3
REMARK    3  A    between atoms: C_3  and  C_4
REMARK    4  A    between atoms: C_4  and  N_5
REMARK    5  A    between atoms: C_6  and  C_8
REMARK    6  A    between atoms: C_8  and  N_9
REMARK    7  A    between atoms: C_10  and  S_11
REMARK    8  A    between atoms: N_12  and  C_13
REMARK    9  A    between atoms: N_12  and  C_20
REMARK   10  A    between atoms: C_13  and  C_14
REMARK   11  A    between atoms: C_20  and  C_21
REMARK                            x       y       z     vdW  Elec       q    Type
REMARK                         _______ _______ _______ _____ _____    ______ ____
ROOT
ATOM      1  N   UNL     1       7.156   5.566  17.738  0.00  0.00    +0.000 NA
ATOM      2  C   UNL     1       5.926   5.156  17.851  0.00  0.00    +0.000 C 
ATOM      3  N   UNL     1       5.288   4.418  16.845  0.00  0.00    +0.000 N 
ENDROOT
BRANCH   2   4
ATOM      4  S   UNL     1       4.973   5.467  19.314  0.00  0.00    +0.000 S 
ATOM      5  H   UNL     1       5.507   4.556  20.123  0.00  0.00    +0.000 HD
ENDBRANCH   2   4
BRANCH   1   6
ATOM      6  C   UNL     1       7.891   6.372  18.728  0.00  0.00    +0.000 C 
BRANCH   6   8
ATOM      7  N   UNL     1       8.780   8.631  19.074  0.00  0.00    +0.000 N 
ATOM      8  C   UNL     1       8.106   7.796  18.223  0.00  0.00    +0.000 C 
ATOM      9  O   UNL     1       7.736   8.164  17.091  0.00  0.00    +0.000 OA
ATOM     10  H   UNL     1       9.073   8.260  19.974  0.00  0.00    +0.000 HD
BRANCH   7  11
ATOM     11  C   UNL     1       9.083   9.997  18.704  0.00  0.00    +0.000 C 
BRANCH  11  12
ATOM     12  C   UNL     1       9.729  10.787  19.841  0.00  0.00    +0.000 C 
BRANCH  12  14
ATOM     13  C   UNL     1      10.678  11.946  17.807  0.00  0.00    +0.000 C 
ATOM     14  C   UNL     1      10.754  11.796  19.318  0.00  0.00    +0.000 C 
ENDBRANCH  12  14
ENDBRANCH  11  12
ENDBRANCH   7  11
ENDBRANCH   6   8
ENDBRANCH   1   6
BRANCH   3  15
ATOM     15  C   UNL     1       3.830   4.512  16.607  0.00  0.00    +0.000 C 
BRANCH  15  16
ATOM     16  C   UNL     1       2.881   3.720  17.489  0.00  0.00    +0.000 A 
ATOM     17  C   UNL     1       1.615   4.183  17.849  0.00  0.00    +0.000 A 
ATOM     18  C   UNL     1       0.759   3.390  18.613  0.00  0.00    +0.000 A 
ATOM     19  C   UNL     1       1.166   2.126  19.043  0.00  0.00    +0.000 A 
ATOM     20  C   UNL     1       2.430   1.648  18.709  0.00  0.00    +0.000 A 
ATOM     21  C   UNL     1       3.277   2.432  17.925  0.00  0.00    +0.000 A 
ENDBRANCH  15  16
ENDBRANCH   3  15
BRANCH   3  22
ATOM     22  C   UNL     1       6.027   3.472  15.963  0.00  0.00    +0.000 C 
BRANCH  22  23
ATOM     23  C   UNL     1       6.559   3.976  14.634  0.00  0.00    +0.000 A 
ATOM     24  C   UNL     1       6.100   3.500  13.408  0.00  0.00    +0.000 A 
ATOM     25  C   UNL     1       6.548   4.056  12.211  0.00  0.00    +0.000 A 
ATOM     26  C   UNL     1       7.451   5.104  12.270  0.00  0.00    +0.000 A 
ATOM     27  N   UNL     1       7.983   5.557  13.422  0.00  0.00    +0.000 NA
ATOM     28  C   UNL     1       7.544   4.973  14.568  0.00  0.00    +0.000 A 
ENDBRANCH  22  23
ENDBRANCH   3  22
TORSDOF 10
ENDMDL
MODEL 8
REMARK VINA RESULT:      -6.9      1.247      1.565
REMARK  Name = 
REMARK  11 active torsions:
REMARK  status: ('A' for Active; 'I' for Inactive)
REMARK    1  A    between atoms: C_1  and  C_2
REMARK    2  A    between atoms: C_2  and  C_3
REMARK    3  A    between atoms: C_3  and  C_4
REMARK    4  A    between atoms: C_4  and  N_5
REMARK    5  A    between atoms: C_6  and  C_8
REMARK    6  A    between atoms: C_8  and  N_9
REMARK    7  A    between atoms: C_10  and  S_11
REMARK    8  A    between atoms: N_12  and  C_13
REMARK    9  A    between atoms: N_12  and  C_20
REMARK   10  A    between atoms: C_13  and  C_14
REMARK   11  A    between atoms: C_20  and  C_21
REMARK                            x       y       z     vdW  Elec       q    Type
REMARK                         _______ _______ _______ _____ _____    ______ ____
ROOT
ATOM      1  N   UNL     1       5.223   4.796  16.430  0.00  0.00    +0.000 NA
ATOM      2  C   UNL     1       4.992   5.904  17.072  0.00  0.00    +0.000 C 
ATOM      3  N   UNL     1       3.698   6.306  17.431  0.00  0.00    +0.000 N 
ENDROOT
BRANCH   2   4
ATOM      4  S   UNL     1       6.311   6.975  17.582  0.00  0.00    +0.000 S 
ATOM      5  H   UNL     1       6.270   6.766  18.896  0.00  0.00    +0.000 HD
ENDBRANCH   2   4
BRANCH   1   6
ATOM      6  C   UNL     1       6.543   4.314  15.987  0.00  0.00    +0.000 C 
BRANCH   6   8
ATOM      7  N   UNL     1       6.077   3.539  13.707  0.00  0.00    +0.000 N 
ATOM      8  C   UNL     1       6.707   4.481  14.480  0.00  0.00    +0.000 C 
ATOM      9  O   UNL     1       7.332   5.436  13.979  0.00  0.00    +0.000 OA
ATOM     10  H   UNL     1       5.566   2.799  14.181  0.00  0.00    +0.000 HD
BRANCH   7  11
ATOM     11  C   UNL     1       6.121   3.601  12.262  0.00  0.00    +0.000 C 
BRANCH  11  12
ATOM     12  C   UNL     1       5.176   2.599  11.600  0.00  0.00    +0.000 C 
BRANCH  12  14
ATOM     13  C   UNL     1       7.323   1.515  10.828  0.00  0.00    +0.000 C 
ATOM     14  C   UNL     1       5.888   1.284  11.272  0.00  0.00    +0.000 C 
ENDBRANCH  12  14
ENDBRANCH  11  12
ENDBRANCH   7  11
ENDBRANCH   6   8
ENDBRANCH   1   6
BRANCH   3  15
ATOM     15  C   UNL     1       3.316   7.733  17.520  0.00  0.00    +0.000 C 
BRANCH  15  16
ATOM     16  C   UNL     1       2.311   8.167  18.573  0.00  0.00    +0.000 A 
ATOM     17  C   UNL     1       2.201   7.547  19.818  0.00  0.00    +0.000 A 
ATOM     18  C   UNL     1       1.300   8.023  20.772  0.00  0.00    +0.000 A 
ATOM     19  C   UNL     1       0.484   9.118  20.485  0.00  0.00    +0.000 A 
ATOM     20  C   UNL     1       0.565   9.745  19.245  0.00  0.00    +0.000 A 
ATOM     21  C   UNL     1       1.482   9.283  18.299  0.00  0.00    +0.000 A 
ENDBRANCH  15  16
ENDBRANCH   3  15
BRANCH   3  22
ATOM     22  C   UNL     1       2.627   5.327  17.767  0.00  0.00    +0.000 C 
BRANCH  22  23
ATOM     23  C   UNL     1       3.021   3.986  18.359  0.00  0.00    +0.000 A 
ATOM     24  C   UNL     1       2.895   2.787  17.662  0.00  0.00    +0.000 A 
ATOM     25  C   UNL     1       3.356   1.590  18.208  0.00  0.00    +0.000 A 
ATOM     26  C   UNL     1       3.956   1.624  19.455  0.00  0.00    +0.000 A 
ATOM     27  N   UNL     1       4.039   2.740  20.205  0.00  0.00    +0.000 NA
ATOM     28  C   UNL     1       3.556   3.884  19.652  0.00  0.00    +0.000 A 
ENDBRANCH  22  23
ENDBRANCH   3  22
TORSDOF 10
ENDMDL
MODEL 9
REMARK VINA RESULT:      -6.9      1.160      1.523
REMARK  Name = 
REMARK  11 active torsions:
REMARK  status: ('A' for Active; 'I' for Inactive)
REMARK    1  A    between atoms: C_1  and  C_2
REMARK    2  A    between atoms: C_2  and  C_3
REMARK    3  A    between atoms: C_3  and  C_4
REMARK    4  A    between atoms: C_4  and  N_5
REMARK    5  A    between atoms: C_6  and  C_8
REMARK    6  A    between atoms: C_8  and  N_9
REMARK    7  A    between atoms: C_10  and  S_11
REMARK    8  A    between atoms: N_12  and  C_13
REMARK    9  A    between atoms: N_12  and  C_20
REMARK   10  A    between atoms: C_13  and  C_14
REMARK   11  A    between atoms: C_20  and  C_21
REMARK                            x       y       z     vdW  Elec       q    Type
REMARK                         _______ _______ _______ _____ _____    ______ ____
ROOT
ATOM      1  N   UNL     1       5.238   4.829  16.610  0.00  0.00    +0.000 NA
ATOM      2  C   UNL     1       4.930   5.964  17.170  0.00  0.00    +0.000 C 
ATOM      3  N   UNL     1       3.606   6.321  17.456  0.00  0.00    +0.000 N 
ENDROOT
BRANCH   2   4
ATOM      4  S   UNL     1       6.175   7.130  17.653  0.00  0.00    +0.000 S 
ATOM      5  H   UNL     1       6.869   6.374  18.500  0.00  0.00    +0.000 HD
ENDBRANCH   2   4
BRANCH   1   6
ATOM      6  C   UNL     1       6.595   4.388  16.245  0.00  0.00    +0.000 C 
BRANCH   6   8
ATOM      7  N   UNL     1       6.142   3.433  14.032  0.00  0.00    +0.000 N 
ATOM      8  C   UNL     1       6.791   4.417  14.732  0.00  0.00    +0.000 C 
ATOM      9  O   UNL     1       7.456   5.304  14.163  0.00  0.00    +0.000 OA
ATOM     10  H   UNL     1       5.598   2.754  14.558  0.00  0.00    +0.000 HD
BRANCH   7  11
ATOM     11  C   UNL     1       6.212   3.367  12.588  0.00  0.00    +0.000 C 
BRANCH  11  12
ATOM     12  C   UNL     1       5.002   4.008  11.909  0.00  0.00    +0.000 C 
BRANCH  12  14
ATOM     13  C   UNL     1       3.192   3.629  10.188  0.00  0.00    +0.000 C 
ATOM     14  C   UNL     1       4.165   2.973  11.153  0.00  0.00    +0.000 C 
ENDBRANCH  12  14
ENDBRANCH  11  12
ENDBRANCH   7  11
ENDBRANCH   6   8
ENDBRANCH   1   6
BRANCH   3  15
ATOM     15  C   UNL     1       3.152   7.730  17.438  0.00  0.00    +0.000 C 
BRANCH  15  16
ATOM     16  C   UNL     1       2.267   8.238  18.563  0.00  0.00    +0.000 A 
ATOM     17  C   UNL     1       1.442   9.356  18.434  0.00  0.00    +0.000 A 
ATOM     18  C   UNL     1       0.604   9.747  19.479  0.00  0.00    +0.000 A 
ATOM     19  C   UNL     1       0.593   9.031  20.678  0.00  0.00    +0.000 A 
ATOM     20  C   UNL     1       1.418   7.921  20.836  0.00  0.00    +0.000 A 
ATOM     21  C   UNL     1       2.239   7.517  19.783  0.00  0.00    +0.000 A 
ENDBRANCH  15  16
ENDBRANCH   3  15
BRANCH   3  22
ATOM     22  C   UNL     1       2.571   5.313  17.819  0.00  0.00    +0.000 C 
BRANCH  22  23
ATOM     23  C   UNL     1       3.018   3.980  18.392  0.00  0.00    +0.000 A 
ATOM     24  C   UNL     1       2.908   2.782  17.689  0.00  0.00    +0.000 A 
ATOM     25  C   UNL     1       3.416   1.596  18.216  0.00  0.00    +0.000 A 
ATOM     26  C   UNL     1       4.046   1.639  19.447  0.00  0.00    +0.000 A 
ATOM     27  N   UNL     1       4.118   2.752  20.202  0.00  0.00    +0.000 NA
ATOM     28  C   UNL     1       3.588   3.886  19.670  0.00  0.00    +0.000 A 
ENDBRANCH  22  23
ENDBRANCH   3  22
TORSDOF 10
ENDMDL
