MODEL 1
REMARK VINA RESULT:      -8.9      0.000      0.000
REMARK  Name = 
REMARK  5 active torsions:
REMARK  status: ('A' for Active; 'I' for Inactive)
REMARK    1  A    between atoms: C_1  and  C_2
REMARK    2  A    between atoms: C_4  and  N_5
REMARK    3  A    between atoms: N_5  and  C_6
REMARK    4  A    between atoms: C_9  and  N_10
REMARK    5  A    between atoms: C_13  and  C_14
REMARK                            x       y       z     vdW  Elec       q    Type
REMARK                         _______ _______ _______ _____ _____    ______ ____
ROOT
ATOM      1  C   UNL     1       2.832   5.641  18.773  0.00  0.00    +0.000 A 
ATOM      2  C   UNL     1       2.785   6.916  18.209  0.00  0.00    +0.000 A 
ATOM      3  C   UNL     1       2.221   7.995  18.904  0.00  0.00    +0.000 A 
ATOM      4  C   UNL     1       1.663   7.856  20.183  0.00  0.00    +0.000 A 
ATOM      5  C   UNL     1       1.718   6.569  20.735  0.00  0.00    +0.000 A 
ATOM      6  C   UNL     1       2.288   5.483  20.048  0.00  0.00    +0.000 A 
ENDROOT
BRANCH   4   7
ATOM      7  N   UNL     1       1.152   8.952  20.860  0.00  0.00    +0.000 N 
ATOM      8  C   UNL     1       1.403   9.119  22.299  0.00  0.00    +0.000 C 
ATOM      9  C   UNL     1       0.118   9.602  22.966  0.00  0.00    +0.000 C 
ATOM     10  C   UNL     1      -0.380  10.906  22.324  0.00  0.00    +0.000 C 
ATOM     11  C   UNL     1      -1.721  11.323  22.925  0.00  0.00    +0.000 C 
ATOM     12  C   UNL     1      -0.500  10.746  20.802  0.00  0.00    +0.000 C 
ATOM     13  C   UNL     1       0.782  10.192  20.172  0.00  0.00    +0.000 C 
ENDBRANCH   4   7
BRANCH   1  14
ATOM     14  N   UNL     1       3.441   4.537  18.147  0.00  0.00    +0.000 N 
ATOM     15  H   UNL     1       2.766   3.867  17.772  0.00  0.00    +0.000 HD
BRANCH  14  19
ATOM     16  C   UNL     1       6.346   3.987  14.146  0.00  0.00    +0.000 C 
ATOM     17  C   UNL     1       6.197   4.301  15.615  0.00  0.00    +0.000 A 
ATOM     18  C   UNL     1       4.812   4.267  16.167  0.00  0.00    +0.000 A 
ATOM     19  C   UNL     1       4.662   4.523  17.481  0.00  0.00    +0.000 A 
ATOM     20  N   UNL     1       5.821   4.847  18.214  0.00  0.00    +0.000 N 
ATOM     21  N   UNL     1       5.930   5.174  19.535  0.00  0.00    +0.000 NA
ATOM     22  C   UNL     1       7.247   5.352  19.660  0.00  0.00    +0.000 A 
ATOM     23  N   UNL     1       7.984   5.179  18.532  0.00  0.00    +0.000 NA
ATOM     24  C   UNL     1       7.088   4.865  17.621  0.00  0.00    +0.000 A 
ATOM     25  N   UNL     1       7.267   4.582  16.297  0.00  0.00    +0.000 NA
ENDBRANCH  14  19
ENDBRANCH   1  14
TORSDOF 3
ENDMDL
MODEL 2
REMARK VINA RESULT:      -8.3      0.907      1.134
REMARK  Name = 
REMARK  5 active torsions:
REMARK  status: ('A' for Active; 'I' for Inactive)
REMARK    1  A    between atoms: C_1  and  C_2
REMARK    2  A    between atoms: C_4  and  N_5
REMARK    3  A    between atoms: N_5  and  C_6
REMARK    4  A    between atoms: C_9  and  N_10
REMARK    5  A    between atoms: C_13  and  C_14
REMARK                            x       y       z     vdW  Elec       q    Type
REMARK                         _______ _______ _______ _____ _____    ______ ____
ROOT
ATOM      1  C   UNL     1       2.903   6.023  18.560  0.00  0.00    +0.000 A 
ATOM      2  C   UNL     1       2.739   7.082  17.669  0.00  0.00    +0.000 A 
ATOM      3  C   UNL     1       2.127   8.278  18.070  0.00  0.00    +0.000 A 
ATOM      4  C   UNL     1       1.634   8.472  19.369  0.00  0.00    +0.000 A 
ATOM      5  C   UNL     1       1.807   7.398  20.252  0.00  0.00    +0.000 A 
ATOM      6  C   UNL     1       2.426   6.198  19.860  0.00  0.00    +0.000 A 
ENDROOT
BRANCH   4   7
ATOM      7  N   UNL     1       1.073   9.682  19.745  0.00  0.00    +0.000 N 
ATOM      8  C   UNL     1       0.855   9.989  21.166  0.00  0.00    +0.000 C 
ATOM      9  C   UNL     1      -0.506  10.664  21.316  0.00  0.00    +0.000 C 
ATOM     10  C   UNL     1      -0.594  11.926  20.444  0.00  0.00    +0.000 C 
ATOM     11  C   UNL     1      -1.993  12.535  20.519  0.00  0.00    +0.000 C 
ATOM     12  C   UNL     1      -0.224  11.605  18.990  0.00  0.00    +0.000 C 
ATOM     13  C   UNL     1       1.112  10.864  18.879  0.00  0.00    +0.000 C 
ENDBRANCH   4   7
BRANCH   1  14
ATOM     14  N   UNL     1       3.566   4.825  18.230  0.00  0.00    +0.000 N 
ATOM     15  H   UNL     1       2.925   4.047  18.062  0.00  0.00    +0.000 HD
BRANCH  14  19
ATOM     16  C   UNL     1       6.387   3.979  14.221  0.00  0.00    +0.000 C 
ATOM     17  C   UNL     1       6.275   4.323  15.686  0.00  0.00    +0.000 A 
ATOM     18  C   UNL     1       4.896   4.415  16.246  0.00  0.00    +0.000 A 
ATOM     19  C   UNL     1       4.776   4.698  17.557  0.00  0.00    +0.000 A 
ATOM     20  N   UNL     1       5.964   4.930  18.280  0.00  0.00    +0.000 N 
ATOM     21  N   UNL     1       6.109   5.262  19.596  0.00  0.00    +0.000 NA
ATOM     22  C   UNL     1       7.437   5.327  19.713  0.00  0.00    +0.000 A 
ATOM     23  N   UNL     1       8.149   5.078  18.582  0.00  0.00    +0.000 NA
ATOM     24  C   UNL     1       7.224   4.832  17.680  0.00  0.00    +0.000 A 
ATOM     25  N   UNL     1       7.369   4.518  16.359  0.00  0.00    +0.000 NA
ENDBRANCH  14  19
ENDBRANCH   1  14
TORSDOF 3
ENDMDL
MODEL 3
REMARK VINA RESULT:      -8.3      0.977      1.797
REMARK  Name = 
REMARK  5 active torsions:
REMARK  status: ('A' for Active; 'I' for Inactive)
REMARK    1  A    between atoms: C_1  and  C_2
REMARK    2  A    between atoms: C_4  and  N_5
REMARK    3  A    between atoms: N_5  and  C_6
REMARK    4  A    between atoms: C_9  and  N_10
REMARK    5  A    between atoms: C_13  and  C_14
REMARK                            x       y       z     vdW  Elec       q    Type
REMARK                         _______ _______ _______ _____ _____    ______ ____
ROOT
ATOM      1  C   UNL     1       2.974   6.056  18.727  0.00  0.00    +0.000 A 
ATOM      2  C   UNL     1       2.379   6.234  19.976  0.00  0.00    +0.000 A 
ATOM      3  C   UNL     1       1.735   7.435  20.307  0.00  0.00    +0.000 A 
ATOM      4  C   UNL     1       1.669   8.521  19.421  0.00  0.00    +0.000 A 
ATOM      5  C   UNL     1       2.272   8.326  18.171  0.00  0.00    +0.000 A 
ATOM      6  C   UNL     1       2.912   7.122  17.829  0.00  0.00    +0.000 A 
ENDROOT
BRANCH   4   7
ATOM      7  N   UNL     1       0.988   9.679  19.764  0.00  0.00    +0.000 N 
ATOM      8  C   UNL     1       0.996  10.839  18.862  0.00  0.00    +0.000 C 
ATOM      9  C   UNL     1       1.165  12.106  19.697  0.00  0.00    +0.000 C 
ATOM     10  C   UNL     1       0.057  12.220  20.755  0.00  0.00    +0.000 C 
ATOM     11  C   UNL     1       0.295  13.432  21.654  0.00  0.00    +0.000 C 
ATOM     12  C   UNL     1      -0.023  10.936  21.594  0.00  0.00    +0.000 C 
ATOM     13  C   UNL     1      -0.119   9.679  20.725  0.00  0.00    +0.000 C 
ENDBRANCH   4   7
BRANCH   1  14
ATOM     14  N   UNL     1       3.577   4.851  18.319  0.00  0.00    +0.000 N 
ATOM     15  H   UNL     1       2.899   4.114  18.114  0.00  0.00    +0.000 HD
BRANCH  14  19
ATOM     16  C   UNL     1       6.316   3.940  14.267  0.00  0.00    +0.000 C 
ATOM     17  C   UNL     1       6.233   4.302  15.730  0.00  0.00    +0.000 A 
ATOM     18  C   UNL     1       4.866   4.409  16.315  0.00  0.00    +0.000 A 
ATOM     19  C   UNL     1       4.774   4.709  17.625  0.00  0.00    +0.000 A 
ATOM     20  N   UNL     1       5.976   4.943  18.322  0.00  0.00    +0.000 N 
ATOM     21  N   UNL     1       6.148   5.290  19.630  0.00  0.00    +0.000 NA
ATOM     22  C   UNL     1       7.478   5.348  19.721  0.00  0.00    +0.000 A 
ATOM     23  N   UNL     1       8.167   5.081  18.580  0.00  0.00    +0.000 NA
ATOM     24  C   UNL     1       7.224   4.830  17.699  0.00  0.00    +0.000 A 
ATOM     25  N   UNL     1       7.342   4.499  16.379  0.00  0.00    +0.000 NA
ENDBRANCH  14  19
ENDBRANCH   1  14
TORSDOF 3
ENDMDL
MODEL 4
REMARK VINA RESULT:      -8.3      1.836      2.733
REMARK  Name = 
REMARK  5 active torsions:
REMARK  status: ('A' for Active; 'I' for Inactive)
REMARK    1  A    between atoms: C_1  and  C_2
REMARK    2  A    between atoms: C_4  and  N_5
REMARK    3  A    between atoms: N_5  and  C_6
REMARK    4  A    between atoms: C_9  and  N_10
REMARK    5  A    between atoms: C_13  and  C_14
REMARK                            x       y       z     vdW  Elec       q    Type
REMARK                         _______ _______ _______ _____ _____    ______ ____
ROOT
ATOM      1  C   UNL     1       2.291   7.637  18.561  0.00  0.00    +0.000 A 
ATOM      2  C   UNL     1       1.765   8.845  18.103  0.00  0.00    +0.000 A 
ATOM      3  C   UNL     1       1.096   9.719  18.971  0.00  0.00    +0.000 A 
ATOM      4  C   UNL     1       0.901   9.427  20.329  0.00  0.00    +0.000 A 
ATOM      5  C   UNL     1       1.436   8.210  20.773  0.00  0.00    +0.000 A 
ATOM      6  C   UNL     1       2.115   7.331  19.911  0.00  0.00    +0.000 A 
ENDROOT
BRANCH   4   7
ATOM      7  N   UNL     1       0.272  10.333  21.170  0.00  0.00    +0.000 N 
ATOM      8  C   UNL     1       0.265  10.114  22.623  0.00  0.00    +0.000 C 
ATOM      9  C   UNL     1      -1.121  10.460  23.162  0.00  0.00    +0.000 C 
ATOM     10  C   UNL     1      -1.506  11.904  22.805  0.00  0.00    +0.000 C 
ATOM     11  C   UNL     1      -2.934  12.206  23.254  0.00  0.00    +0.000 C 
ATOM     12  C   UNL     1      -1.354  12.146  21.296  0.00  0.00    +0.000 C 
ATOM     13  C   UNL     1       0.022  11.721  20.774  0.00  0.00    +0.000 C 
ENDBRANCH   4   7
BRANCH   1  14
ATOM     14  N   UNL     1       3.026   6.753  17.749  0.00  0.00    +0.000 N 
ATOM     15  H   UNL     1       3.113   7.075  16.783  0.00  0.00    +0.000 HD
BRANCH  14  19
ATOM     16  C   UNL     1       7.786   5.710  18.753  0.00  0.00    +0.000 C 
ATOM     17  C   UNL     1       6.342   5.275  18.689  0.00  0.00    +0.000 A 
ATOM     18  C   UNL     1       5.356   6.297  18.234  0.00  0.00    +0.000 A 
ATOM     19  C   UNL     1       4.066   5.921  18.148  0.00  0.00    +0.000 A 
ATOM     20  N   UNL     1       3.749   4.605  18.541  0.00  0.00    +0.000 N 
ATOM     21  N   UNL     1       2.527   3.998  18.577  0.00  0.00    +0.000 NA
ATOM     22  C   UNL     1       2.846   2.774  19.001  0.00  0.00    +0.000 A 
ATOM     23  N   UNL     1       4.164   2.552  19.249  0.00  0.00    +0.000 NA
ATOM     24  C   UNL     1       4.732   3.703  18.964  0.00  0.00    +0.000 A 
ATOM     25  N   UNL     1       6.050   4.056  19.032  0.00  0.00    +0.000 NA
ENDBRANCH  14  19
ENDBRANCH   1  14
TORSDOF 3
ENDMDL
MODEL 5
REMARK VINA RESULT:      -8.3      1.613      2.851
REMARK  Name = 
REMARK  5 active torsions:
REMARK  status: ('A' for Active; 'I' for Inactive)
REMARK    1  A    between atoms: C_1  and  C_2
REMARK    2  A    between atoms: C_4  and  N_5
REMARK    3  A    between atoms: N_5  and  C_6
REMARK    4  A    between atoms: C_9  and  N_10
REMARK    5  A    between atoms: C_13  and  C_14
REMARK                            x       y       z     vdW  Elec       q    Type
REMARK                         _______ _______ _______ _____ _____    ______ ____
ROOT
ATOM      1  C   UNL     1       2.888   6.857  18.530  0.00  0.00    +0.000 A 
ATOM      2  C   UNL     1       2.469   6.564  19.827  0.00  0.00    +0.000 A 
ATOM      3  C   UNL     1       1.599   7.419  20.518  0.00  0.00    +0.000 A 
ATOM      4  C   UNL     1       1.121   8.614  19.961  0.00  0.00    +0.000 A 
ATOM      5  C   UNL     1       1.552   8.894  18.657  0.00  0.00    +0.000 A 
ATOM      6  C   UNL     1       2.418   8.037  17.955  0.00  0.00    +0.000 A 
ENDROOT
BRANCH   4   7
ATOM      7  N   UNL     1       0.229   9.417  20.655  0.00  0.00    +0.000 N 
ATOM      8  C   UNL     1      -0.599  10.397  19.938  0.00  0.00    +0.000 C 
ATOM      9  C   UNL     1      -0.641  11.689  20.752  0.00  0.00    +0.000 C 
ATOM     10  C   UNL     1      -1.171  11.429  22.171  0.00  0.00    +0.000 C 
ATOM     11  C   UNL     1      -1.108  12.704  23.009  0.00  0.00    +0.000 C 
ATOM     12  C   UNL     1      -0.377  10.302  22.846  0.00  0.00    +0.000 C 
ATOM     13  C   UNL     1      -0.293   9.046  21.973  0.00  0.00    +0.000 C 
ENDBRANCH   4   7
BRANCH   1  14
ATOM     14  N   UNL     1       3.708   6.003  17.767  0.00  0.00    +0.000 N 
ATOM     15  H   UNL     1       3.181   5.428  17.106  0.00  0.00    +0.000 HD
BRANCH  14  19
ATOM     16  C   UNL     1       8.020   8.483  17.823  0.00  0.00    +0.000 C 
ATOM     17  C   UNL     1       7.181   7.341  17.305  0.00  0.00    +0.000 A 
ATOM     18  C   UNL     1       5.791   7.239  17.837  0.00  0.00    +0.000 A 
ATOM     19  C   UNL     1       5.019   6.240  17.369  0.00  0.00    +0.000 A 
ATOM     20  N   UNL     1       5.605   5.345  16.451  0.00  0.00    +0.000 N 
ATOM     21  N   UNL     1       5.051   4.245  15.862  0.00  0.00    +0.000 NA
ATOM     22  C   UNL     1       6.052   3.820  15.090  0.00  0.00    +0.000 A 
ATOM     23  N   UNL     1       7.200   4.546  15.145  0.00  0.00    +0.000 NA
ATOM     24  C   UNL     1       6.921   5.503  16.004  0.00  0.00    +0.000 A 
ATOM     25  N   UNL     1       7.712   6.526  16.444  0.00  0.00    +0.000 NA
ENDBRANCH  14  19
ENDBRANCH   1  14
TORSDOF 3
ENDMDL
MODEL 6
REMARK VINA RESULT:      -8.3      1.569      2.419
REMARK  Name = 
REMARK  5 active torsions:
REMARK  status: ('A' for Active; 'I' for Inactive)
REMARK    1  A    between atoms: C_1  and  C_2
REMARK    2  A    between atoms: C_4  and  N_5
REMARK    3  A    between atoms: N_5  and  C_6
REMARK    4  A    between atoms: C_9  and  N_10
REMARK    5  A    between atoms: C_13  and  C_14
REMARK                            x       y       z     vdW  Elec       q    Type
REMARK                         _______ _______ _______ _____ _____    ______ ____
ROOT
ATOM      1  C   UNL     1       2.712   7.061  18.482  0.00  0.00    +0.000 A 
ATOM      2  C   UNL     1       2.294   8.322  18.058  0.00  0.00    +0.000 A 
ATOM      3  C   UNL     1       1.635   9.198  18.933  0.00  0.00    +0.000 A 
ATOM      4  C   UNL     1       1.344   8.856  20.261  0.00  0.00    +0.000 A 
ATOM      5  C   UNL     1       1.771   7.585  20.670  0.00  0.00    +0.000 A 
ATOM      6  C   UNL     1       2.439   6.704  19.802  0.00  0.00    +0.000 A 
ENDROOT
BRANCH   4   7
ATOM      7  N   UNL     1       0.728   9.761  21.112  0.00  0.00    +0.000 N 
ATOM      8  C   UNL     1       0.675   9.502  22.558  0.00  0.00    +0.000 C 
ATOM      9  C   UNL     1      -0.710   9.887  23.072  0.00  0.00    +0.000 C 
ATOM     10  C   UNL     1      -1.031  11.354  22.747  0.00  0.00    +0.000 C 
ATOM     11  C   UNL     1      -2.458  11.698  23.170  0.00  0.00    +0.000 C 
ATOM     12  C   UNL     1      -0.831  11.632  21.250  0.00  0.00    +0.000 C 
ATOM     13  C   UNL     1       0.541  11.169  20.751  0.00  0.00    +0.000 C 
ENDBRANCH   4   7
BRANCH   1  14
ATOM     14  N   UNL     1       3.434   6.168  17.666  0.00  0.00    +0.000 N 
ATOM     15  H   UNL     1       2.853   5.718  16.955  0.00  0.00    +0.000 HD
BRANCH  14  19
ATOM     16  C   UNL     1       7.935   8.287  17.691  0.00  0.00    +0.000 C 
ATOM     17  C   UNL     1       7.021   7.174  17.239  0.00  0.00    +0.000 A 
ATOM     18  C   UNL     1       5.610   7.234  17.717  0.00  0.00    +0.000 A 
ATOM     19  C   UNL     1       4.774   6.261  17.306  0.00  0.00    +0.000 A 
ATOM     20  N   UNL     1       5.314   5.243  16.496  0.00  0.00    +0.000 N 
ATOM     21  N   UNL     1       4.692   4.142  15.982  0.00  0.00    +0.000 NA
ATOM     22  C   UNL     1       5.681   3.570  15.293  0.00  0.00    +0.000 A 
ATOM     23  N   UNL     1       6.883   4.203  15.335  0.00  0.00    +0.000 NA
ATOM     24  C   UNL     1       6.655   5.253  16.094  0.00  0.00    +0.000 A 
ATOM     25  N   UNL     1       7.513   6.244  16.476  0.00  0.00    +0.000 NA
ENDBRANCH  14  19
ENDBRANCH   1  14
TORSDOF 3
ENDMDL
MODEL 7
REMARK VINA RESULT:      -8.2      1.124      2.372
REMARK  Name = 
REMARK  5 active torsions:
REMARK  status: ('A' for Active; 'I' for Inactive)
REMARK    1  A    between atoms: C_1  and  C_2
REMARK    2  A    between atoms: C_4  and  N_5
REMARK    3  A    between atoms: N_5  and  C_6
REMARK    4  A    between atoms: C_9  and  N_10
REMARK    5  A    between atoms: C_13  and  C_14
REMARK                            x       y       z     vdW  Elec       q    Type
REMARK                         _______ _______ _______ _____ _____    ______ ____
ROOT
ATOM      1  C   UNL     1       2.886   6.644  18.373  0.00  0.00    +0.000 A 
ATOM      2  C   UNL     1       2.615   7.945  17.950  0.00  0.00    +0.000 A 
ATOM      3  C   UNL     1       1.981   8.865  18.797  0.00  0.00    +0.000 A 
ATOM      4  C   UNL     1       1.570   8.532  20.096  0.00  0.00    +0.000 A 
ATOM      5  C   UNL     1       1.849   7.221  20.505  0.00  0.00    +0.000 A 
ATOM      6  C   UNL     1       2.491   6.295  19.665  0.00  0.00    +0.000 A 
ENDROOT
BRANCH   4   7
ATOM      7  N   UNL     1       0.983   9.478  20.923  0.00  0.00    +0.000 N 
ATOM      8  C   UNL     1       1.033   9.319  22.383  0.00  0.00    +0.000 C 
ATOM      9  C   UNL     1      -0.327   9.702  22.962  0.00  0.00    +0.000 C 
ATOM     10  C   UNL     1      -0.713  11.134  22.560  0.00  0.00    +0.000 C 
ATOM     11  C   UNL     1      -2.119  11.470  23.054  0.00  0.00    +0.000 C 
ATOM     12  C   UNL     1      -0.619  11.312  21.038  0.00  0.00    +0.000 C 
ATOM     13  C   UNL     1       0.730  10.852  20.480  0.00  0.00    +0.000 C 
ENDBRANCH   4   7
BRANCH   1  14
ATOM     14  N   UNL     1       3.575   5.700  17.589  0.00  0.00    +0.000 N 
ATOM     15  H   UNL     1       3.113   5.507  16.698  0.00  0.00    +0.000 HD
BRANCH  14  19
ATOM     16  C   UNL     1       8.121   5.513  19.600  0.00  0.00    +0.000 C 
ATOM     17  C   UNL     1       7.217   5.335  18.406  0.00  0.00    +0.000 A 
ATOM     18  C   UNL     1       5.768   5.615  18.618  0.00  0.00    +0.000 A 
ATOM     19  C   UNL     1       4.949   5.484  17.557  0.00  0.00    +0.000 A 
ATOM     20  N   UNL     1       5.522   5.047  16.346  0.00  0.00    +0.000 N 
ATOM     21  N   UNL     1       4.910   4.807  15.150  0.00  0.00    +0.000 NA
ATOM     22  C   UNL     1       5.942   4.447  14.386  0.00  0.00    +0.000 A 
ATOM     23  N   UNL     1       7.157   4.423  14.994  0.00  0.00    +0.000 NA
ATOM     24  C   UNL     1       6.894   4.797  16.228  0.00  0.00    +0.000 A 
ATOM     25  N   UNL     1       7.747   4.951  17.283  0.00  0.00    +0.000 NA
ENDBRANCH  14  19
ENDBRANCH   1  14
TORSDOF 3
ENDMDL
MODEL 8
REMARK VINA RESULT:      -8.2      1.123      1.667
REMARK  Name = 
REMARK  5 active torsions:
REMARK  status: ('A' for Active; 'I' for Inactive)
REMARK    1  A    between atoms: C_1  and  C_2
REMARK    2  A    between atoms: C_4  and  N_5
REMARK    3  A    between atoms: N_5  and  C_6
REMARK    4  A    between atoms: C_9  and  N_10
REMARK    5  A    between atoms: C_13  and  C_14
REMARK                            x       y       z     vdW  Elec       q    Type
REMARK                         _______ _______ _______ _____ _____    ______ ____
ROOT
ATOM      1  C   UNL     1       2.966   6.189  18.706  0.00  0.00    +0.000 A 
ATOM      2  C   UNL     1       2.915   7.228  17.778  0.00  0.00    +0.000 A 
ATOM      3  C   UNL     1       2.281   8.440  18.082  0.00  0.00    +0.000 A 
ATOM      4  C   UNL     1       1.652   8.671  19.315  0.00  0.00    +0.000 A 
ATOM      5  C   UNL     1       1.713   7.617  20.236  0.00  0.00    +0.000 A 
ATOM      6  C   UNL     1       2.354   6.400  19.941  0.00  0.00    +0.000 A 
ENDROOT
BRANCH   4   7
ATOM      7  N   UNL     1       1.071   9.897  19.600  0.00  0.00    +0.000 N 
ATOM      8  C   UNL     1       1.327  11.058  18.736  0.00  0.00    +0.000 C 
ATOM      9  C   UNL     1       1.532  12.287  19.619  0.00  0.00    +0.000 C 
ATOM     10  C   UNL     1       0.318  12.517  20.533  0.00  0.00    +0.000 C 
ATOM     11  C   UNL     1       0.576  13.683  21.485  0.00  0.00    +0.000 C 
ATOM     12  C   UNL     1      -0.015  11.242  21.320  0.00  0.00    +0.000 C 
ATOM     13  C   UNL     1      -0.143  10.015  20.414  0.00  0.00    +0.000 C 
ENDBRANCH   4   7
BRANCH   1  14
ATOM     14  N   UNL     1       3.644   4.976  18.477  0.00  0.00    +0.000 N 
ATOM     15  H   UNL     1       3.018   4.168  18.449  0.00  0.00    +0.000 HD
BRANCH  14  19
ATOM     16  C   UNL     1       6.213   3.965  14.339  0.00  0.00    +0.000 C 
ATOM     17  C   UNL     1       6.192   4.337  15.801  0.00  0.00    +0.000 A 
ATOM     18  C   UNL     1       4.849   4.485  16.433  0.00  0.00    +0.000 A 
ATOM     19  C   UNL     1       4.811   4.796  17.743  0.00  0.00    +0.000 A 
ATOM     20  N   UNL     1       6.043   5.000  18.396  0.00  0.00    +0.000 N 
ATOM     21  N   UNL     1       6.271   5.350  19.696  0.00  0.00    +0.000 NA
ATOM     22  C   UNL     1       7.604   5.372  19.740  0.00  0.00    +0.000 A 
ATOM     23  N   UNL     1       8.245   5.079  18.578  0.00  0.00    +0.000 NA
ATOM     24  C   UNL     1       7.265   4.848  17.731  0.00  0.00    +0.000 A 
ATOM     25  N   UNL     1       7.327   4.507  16.410  0.00  0.00    +0.000 NA
ENDBRANCH  14  19
ENDBRANCH   1  14
TORSDOF 3
ENDMDL
MODEL 9
REMARK VINA RESULT:      -8.1      1.836      2.922
REMARK  Name = 
REMARK  5 active torsions:
REMARK  status: ('A' for Active; 'I' for Inactive)
REMARK    1  A    between atoms: C_1  and  C_2
REMARK    2  A    between atoms: C_4  and  N_5
REMARK    3  A    between atoms: N_5  and  C_6
REMARK    4  A    between atoms: C_9  and  N_10
REMARK    5  A    between atoms: C_13  and  C_14
REMARK                            x       y       z     vdW  Elec       q    Type
REMARK                         _______ _______ _______ _____ _____    ______ ____
ROOT
ATOM      1  C   UNL     1       2.209   7.600  18.757  0.00  0.00    +0.000 A 
ATOM      2  C   UNL     1       1.997   7.432  20.125  0.00  0.00    +0.000 A 
ATOM      3  C   UNL     1       1.329   8.407  20.880  0.00  0.00    +0.000 A 
ATOM      4  C   UNL     1       0.857   9.601  20.316  0.00  0.00    +0.000 A 
ATOM      5  C   UNL     1       1.077   9.754  18.940  0.00  0.00    +0.000 A 
ATOM      6  C   UNL     1       1.740   8.778  18.175  0.00  0.00    +0.000 A 
ENDROOT
BRANCH   4   7
ATOM      7  N   UNL     1       0.163  10.526  21.081  0.00  0.00    +0.000 N 
ATOM      8  C   UNL     1       0.184  10.438  22.548  0.00  0.00    +0.000 C 
ATOM      9  C   UNL     1      -1.222  10.721  23.074  0.00  0.00    +0.000 C 
ATOM     10  C   UNL     1      -1.724  12.092  22.595  0.00  0.00    +0.000 C 
ATOM     11  C   UNL     1      -3.168  12.319  23.036  0.00  0.00    +0.000 C 
ATOM     12  C   UNL     1      -1.602  12.209  21.069  0.00  0.00    +0.000 C 
ATOM     13  C   UNL     1      -0.201  11.849  20.567  0.00  0.00    +0.000 C 
ENDBRANCH   4   7
BRANCH   1  14
ATOM     14  N   UNL     1       2.816   6.628  17.940  0.00  0.00    +0.000 N 
ATOM     15  H   UNL     1       2.764   6.853  16.944  0.00  0.00    +0.000 HD
BRANCH  14  19
ATOM     16  C   UNL     1       7.665   5.626  18.420  0.00  0.00    +0.000 C 
ATOM     17  C   UNL     1       6.225   5.198  18.567  0.00  0.00    +0.000 A 
ATOM     18  C   UNL     1       5.189   6.192  18.164  0.00  0.00    +0.000 A 
ATOM     19  C   UNL     1       3.899   5.819  18.267  0.00  0.00    +0.000 A 
ATOM     20  N   UNL     1       3.635   4.538  18.790  0.00  0.00    +0.000 N 
ATOM     21  N   UNL     1       2.428   3.944  19.022  0.00  0.00    +0.000 NA
ATOM     22  C   UNL     1       2.799   2.752  19.491  0.00  0.00    +0.000 A 
ATOM     23  N   UNL     1       4.138   2.539  19.590  0.00  0.00    +0.000 NA
ATOM     24  C   UNL     1       4.665   3.662  19.153  0.00  0.00    +0.000 A 
ATOM     25  N   UNL     1       5.980   4.009  19.031  0.00  0.00    +0.000 NA
ENDBRANCH  14  19
ENDBRANCH   1  14
TORSDOF 3
ENDMDL
