MODEL 1
REMARK VINA RESULT:      -7.4      0.000      0.000
REMARK  Name = 
REMARK  7 active torsions:
REMARK  status: ('A' for Active; 'I' for Inactive)
REMARK    1  A    between atoms: C_1  and  O_2
REMARK    2  A    between atoms: O_2  and  C_3
REMARK    3  A    between atoms: N_8  and  C_9
REMARK    4  A    between atoms: C_9  and  C_10
REMARK    5  A    between atoms: C_10  and  O_11
REMARK    6  A    between atoms: C_16  and  N_17
REMARK    7  A    between atoms: C_18  and  C_20
REMARK                            x       y       z     vdW  Elec       q    Type
REMARK                         _______ _______ _______ _____ _____    ______ ____
ROOT
ATOM      1  C   UNL     1       2.020   8.875  18.205  0.00  0.00    +0.000 A 
ATOM      2  C   UNL     1       2.905   7.944  17.610  0.00  0.00    +0.000 A 
ATOM      3  C   UNL     1       3.268   6.754  18.223  0.00  0.00    +0.000 A 
ATOM      4  N   UNL     1       4.138   5.909  17.623  0.00  0.00    +0.000 NA
ATOM      5  C   UNL     1       4.462   4.749  18.234  0.00  0.00    +0.000 A 
ATOM      6  N   UNL     1       5.297   3.801  17.602  0.00  0.00    +0.000 N 
ATOM      7  C   UNL     1       3.912   4.403  19.464  0.00  0.00    +0.000 A 
ATOM      8  C   UNL     1       3.043   5.282  20.097  0.00  0.00    +0.000 A 
ATOM      9  C   UNL     1       2.693   6.477  19.469  0.00  0.00    +0.000 A 
ATOM     10  C   UNL     1       1.780   7.373  20.057  0.00  0.00    +0.000 A 
ATOM     11  C   UNL     1       1.424   8.582  19.446  0.00  0.00    +0.000 A 
ATOM     12  H   UNL     1       5.861   3.347  18.315  0.00  0.00    +0.000 HD
ENDROOT
BRANCH  11  13
ATOM     13  N   UNL     1       0.481   9.478  20.046  0.00  0.00    +0.000 N 
ATOM     14  C   UNL     1       0.553   9.944  21.356  0.00  0.00    +0.000 C 
ATOM     15  O   UNL     1       1.506   9.734  22.102  0.00  0.00    +0.000 OA
ATOM     16  H   UNL     1      -0.256   9.845  19.449  0.00  0.00    +0.000 HD
BRANCH  14  17
ATOM     17  C   UNL     1      -0.529  10.768  21.867  0.00  0.00    +0.000 A 
ATOM     18  C   UNL     1      -1.089  10.597  23.160  0.00  0.00    +0.000 A 
ATOM     19  N   UNL     1      -2.058  11.461  23.443  0.00  0.00    +0.000 NA
ATOM     20  N   UNL     1      -2.160  12.209  22.327  0.00  0.00    +0.000 N 
ATOM     21  C   UNL     1      -3.026  13.274  22.124  0.00  0.00    +0.000 A 
ATOM     22  C   UNL     1      -3.039  13.914  20.948  0.00  0.00    +0.000 A 
ATOM     23  C   UNL     1      -2.094  13.387  19.931  0.00  0.00    +0.000 A 
ATOM     24  N   UNL     1      -1.245  12.411  20.090  0.00  0.00    +0.000 NA
ATOM     25  C   UNL     1      -1.262  11.802  21.321  0.00  0.00    +0.000 A 
ENDBRANCH  14  17
ENDBRANCH  11  13
BRANCH   1  27
ATOM     26  C   UNL     1       2.558  11.171  18.039  0.00  0.00    +0.000 C 
ATOM     27  O   UNL     1       1.723  10.087  17.619  0.00  0.00    +0.000 OA
ENDBRANCH   1  27
BRANCH   6  28
ATOM     28  C   UNL     1       6.144   4.369  16.544  0.00  0.00    +0.000 C 
BRANCH  28  29
ATOM     29  C   UNL     1       7.389   4.999  17.187  0.00  0.00    +0.000 C 
BRANCH  29  30
ATOM     30  O   UNL     1       8.272   3.993  17.680  0.00  0.00    +0.000 OA
ATOM     31  H   UNL     1       8.990   3.928  17.019  0.00  0.00    +0.000 HD
ENDBRANCH  29  30
ENDBRANCH  28  29
ENDBRANCH   6  28
TORSDOF 6
ENDMDL
MODEL 2
REMARK VINA RESULT:      -7.3      7.308     11.041
REMARK  Name = 
REMARK  7 active torsions:
REMARK  status: ('A' for Active; 'I' for Inactive)
REMARK    1  A    between atoms: C_1  and  O_2
REMARK    2  A    between atoms: O_2  and  C_3
REMARK    3  A    between atoms: N_8  and  C_9
REMARK    4  A    between atoms: C_9  and  C_10
REMARK    5  A    between atoms: C_10  and  O_11
REMARK    6  A    between atoms: C_16  and  N_17
REMARK    7  A    between atoms: C_18  and  C_20
REMARK                            x       y       z     vdW  Elec       q    Type
REMARK                         _______ _______ _______ _____ _____    ______ ____
ROOT
ATOM      1  C   UNL     1       9.420  11.318  20.191  0.00  0.00    +0.000 A 
ATOM      2  C   UNL     1       9.818  12.675  20.233  0.00  0.00    +0.000 A 
ATOM      3  C   UNL     1      10.436  13.312  19.167  0.00  0.00    +0.000 A 
ATOM      4  N   UNL     1      10.819  14.606  19.267  0.00  0.00    +0.000 NA
ATOM      5  C   UNL     1      11.403  15.207  18.208  0.00  0.00    +0.000 A 
ATOM      6  N   UNL     1      11.739  16.578  18.242  0.00  0.00    +0.000 N 
ATOM      7  C   UNL     1      11.609  14.524  17.014  0.00  0.00    +0.000 A 
ATOM      8  C   UNL     1      11.243  13.188  16.917  0.00  0.00    +0.000 A 
ATOM      9  C   UNL     1      10.630  12.561  18.001  0.00  0.00    +0.000 A 
ATOM     10  C   UNL     1      10.203  11.222  17.928  0.00  0.00    +0.000 A 
ATOM     11  C   UNL     1       9.594  10.573  19.009  0.00  0.00    +0.000 A 
ATOM     12  H   UNL     1      12.593  16.712  17.707  0.00  0.00    +0.000 HD
ENDROOT
BRANCH  11  13
ATOM     13  N   UNL     1       9.149   9.215  18.916  0.00  0.00    +0.000 N 
ATOM     14  C   UNL     1       8.132   8.768  18.077  0.00  0.00    +0.000 C 
ATOM     15  O   UNL     1       7.587   9.475  17.232  0.00  0.00    +0.000 OA
ATOM     16  H   UNL     1       9.659   8.521  19.458  0.00  0.00    +0.000 HD
BRANCH  14  17
ATOM     17  C   UNL     1       7.712   7.380  18.160  0.00  0.00    +0.000 A 
ATOM     18  C   UNL     1       8.194   6.482  19.147  0.00  0.00    +0.000 A 
ATOM     19  N   UNL     1       7.675   5.262  19.061  0.00  0.00    +0.000 NA
ATOM     20  N   UNL     1       6.850   5.335  17.998  0.00  0.00    +0.000 N 
ATOM     21  C   UNL     1       6.050   4.316  17.501  0.00  0.00    +0.000 A 
ATOM     22  C   UNL     1       5.296   4.523  16.414  0.00  0.00    +0.000 A 
ATOM     23  C   UNL     1       5.408   5.878  15.817  0.00  0.00    +0.000 A 
ATOM     24  N   UNL     1       6.122   6.870  16.267  0.00  0.00    +0.000 NA
ATOM     25  C   UNL     1       6.861   6.609  17.394  0.00  0.00    +0.000 A 
ENDBRANCH  14  17
ENDBRANCH  11  13
BRANCH   1  27
ATOM     26  C   UNL     1       8.343  11.551  22.282  0.00  0.00    +0.000 C 
ATOM     27  O   UNL     1       8.874  10.676  21.281  0.00  0.00    +0.000 OA
ENDBRANCH   1  27
BRANCH   6  28
ATOM     28  C   UNL     1      11.881  17.120  19.601  0.00  0.00    +0.000 C 
BRANCH  28  29
ATOM     29  C   UNL     1      10.755  18.134  19.853  0.00  0.00    +0.000 C 
BRANCH  29  30
ATOM     30  O   UNL     1       9.475  17.528  19.682  0.00  0.00    +0.000 OA
ATOM     31  H   UNL     1       8.894  18.235  19.337  0.00  0.00    +0.000 HD
ENDBRANCH  29  30
ENDBRANCH  28  29
ENDBRANCH   6  28
TORSDOF 6
ENDMDL
MODEL 3
REMARK VINA RESULT:      -7.2      2.249      3.476
REMARK  Name = 
REMARK  7 active torsions:
REMARK  status: ('A' for Active; 'I' for Inactive)
REMARK    1  A    between atoms: C_1  and  O_2
REMARK    2  A    between atoms: O_2  and  C_3
REMARK    3  A    between atoms: N_8  and  C_9
REMARK    4  A    between atoms: C_9  and  C_10
REMARK    5  A    between atoms: C_10  and  O_11
REMARK    6  A    between atoms: C_16  and  N_17
REMARK    7  A    between atoms: C_18  and  C_20
REMARK                            x       y       z     vdW  Elec       q    Type
REMARK                         _______ _______ _______ _____ _____    ______ ____
ROOT
ATOM      1  C   UNL     1       0.362   9.014  21.038  0.00  0.00    +0.000 A 
ATOM      2  C   UNL     1       1.116   7.819  20.974  0.00  0.00    +0.000 A 
ATOM      3  C   UNL     1       1.928   7.498  19.895  0.00  0.00    +0.000 A 
ATOM      4  N   UNL     1       2.610   6.330  19.871  0.00  0.00    +0.000 NA
ATOM      5  C   UNL     1       3.406   6.050  18.817  0.00  0.00    +0.000 A 
ATOM      6  N   UNL     1       4.201   4.883  18.794  0.00  0.00    +0.000 N 
ATOM      7  C   UNL     1       3.545   6.943  17.760  0.00  0.00    +0.000 A 
ATOM      8  C   UNL     1       2.823   8.130  17.767  0.00  0.00    +0.000 A 
ATOM      9  C   UNL     1       2.007   8.433  18.856  0.00  0.00    +0.000 A 
ATOM     10  C   UNL     1       1.294   9.646  18.923  0.00  0.00    +0.000 A 
ATOM     11  C   UNL     1       0.463   9.964  20.004  0.00  0.00    +0.000 A 
ATOM     12  H   UNL     1       4.253   4.550  17.834  0.00  0.00    +0.000 HD
ENDROOT
BRANCH  11  13
ATOM     13  N   UNL     1      -0.244  11.208  20.067  0.00  0.00    +0.000 N 
ATOM     14  C   UNL     1       0.239  12.365  20.674  0.00  0.00    +0.000 C 
ATOM     15  O   UNL     1       1.381  12.477  21.114  0.00  0.00    +0.000 OA
ATOM     16  H   UNL     1      -1.134  11.263  19.577  0.00  0.00    +0.000 HD
BRANCH  14  17
ATOM     17  C   UNL     1      -0.627  13.528  20.755  0.00  0.00    +0.000 A 
ATOM     18  C   UNL     1      -1.698  13.634  21.681  0.00  0.00    +0.000 A 
ATOM     19  N   UNL     1      -2.359  14.784  21.606  0.00  0.00    +0.000 NA
ATOM     20  N   UNL     1      -1.738  15.450  20.612  0.00  0.00    +0.000 N 
ATOM     21  C   UNL     1      -2.045  16.724  20.154  0.00  0.00    +0.000 A 
ATOM     22  C   UNL     1      -1.358  17.254  19.134  0.00  0.00    +0.000 A 
ATOM     23  C   UNL     1      -0.302  16.381  18.562  0.00  0.00    +0.000 A 
ATOM     24  N   UNL     1       0.037  15.195  18.980  0.00  0.00    +0.000 NA
ATOM     25  C   UNL     1      -0.687  14.707  20.039  0.00  0.00    +0.000 A 
ENDBRANCH  14  17
ENDBRANCH  11  13
BRANCH   1  27
ATOM     26  C   UNL     1       0.150   9.547  23.332  0.00  0.00    +0.000 C 
ATOM     27  O   UNL     1      -0.496   9.288  22.081  0.00  0.00    +0.000 OA
ENDBRANCH   1  27
BRANCH   6  28
ATOM     28  C   UNL     1       3.723   3.823  19.692  0.00  0.00    +0.000 C 
BRANCH  28  29
ATOM     29  C   UNL     1       4.136   2.459  19.117  0.00  0.00    +0.000 C 
BRANCH  29  30
ATOM     30  O   UNL     1       5.043   1.790  19.992  0.00  0.00    +0.000 OA
ATOM     31  H   UNL     1       5.933   2.101  19.735  0.00  0.00    +0.000 HD
ENDBRANCH  29  30
ENDBRANCH  28  29
ENDBRANCH   6  28
TORSDOF 6
ENDMDL
MODEL 4
REMARK VINA RESULT:      -7.2      2.446      3.546
REMARK  Name = 
REMARK  7 active torsions:
REMARK  status: ('A' for Active; 'I' for Inactive)
REMARK    1  A    between atoms: C_1  and  O_2
REMARK    2  A    between atoms: O_2  and  C_3
REMARK    3  A    between atoms: N_8  and  C_9
REMARK    4  A    between atoms: C_9  and  C_10
REMARK    5  A    between atoms: C_10  and  O_11
REMARK    6  A    between atoms: C_16  and  N_17
REMARK    7  A    between atoms: C_18  and  C_20
REMARK                            x       y       z     vdW  Elec       q    Type
REMARK                         _______ _______ _______ _____ _____    ______ ____
ROOT
ATOM      1  C   UNL     1       2.317   5.408  18.678  0.00  0.00    +0.000 A 
ATOM      2  C   UNL     1       3.083   4.710  17.714  0.00  0.00    +0.000 A 
ATOM      3  C   UNL     1       4.214   5.249  17.118  0.00  0.00    +0.000 A 
ATOM      4  N   UNL     1       4.899   4.550  16.183  0.00  0.00    +0.000 NA
ATOM      5  C   UNL     1       6.006   5.092  15.631  0.00  0.00    +0.000 A 
ATOM      6  N   UNL     1       6.795   4.361  14.716  0.00  0.00    +0.000 N 
ATOM      7  C   UNL     1       6.461   6.349  16.011  0.00  0.00    +0.000 A 
ATOM      8  C   UNL     1       5.745   7.082  16.950  0.00  0.00    +0.000 A 
ATOM      9  C   UNL     1       4.607   6.527  17.534  0.00  0.00    +0.000 A 
ATOM     10  C   UNL     1       3.879   7.219  18.521  0.00  0.00    +0.000 A 
ATOM     11  C   UNL     1       2.729   6.682  19.112  0.00  0.00    +0.000 A 
ATOM     12  H   UNL     1       7.170   5.009  14.028  0.00  0.00    +0.000 HD
ENDROOT
BRANCH  11  13
ATOM     13  N   UNL     1       2.007   7.388  20.127  0.00  0.00    +0.000 N 
ATOM     14  C   UNL     1       1.409   8.634  19.956  0.00  0.00    +0.000 C 
ATOM     15  O   UNL     1       1.331   9.208  18.871  0.00  0.00    +0.000 OA
ATOM     16  H   UNL     1       1.870   6.913  21.017  0.00  0.00    +0.000 HD
BRANCH  14  17
ATOM     17  C   UNL     1       0.797   9.283  21.102  0.00  0.00    +0.000 A 
ATOM     18  C   UNL     1       1.108   8.942  22.444  0.00  0.00    +0.000 A 
ATOM     19  N   UNL     1       0.451   9.664  23.346  0.00  0.00    +0.000 NA
ATOM     20  N   UNL     1      -0.319  10.485  22.605  0.00  0.00    +0.000 N 
ATOM     21  C   UNL     1      -1.187  11.456  23.083  0.00  0.00    +0.000 A 
ATOM     22  C   UNL     1      -1.915  12.185  22.228  0.00  0.00    +0.000 A 
ATOM     23  C   UNL     1      -1.722  11.855  20.793  0.00  0.00    +0.000 A 
ATOM     24  N   UNL     1      -0.898  10.974  20.302  0.00  0.00    +0.000 NA
ATOM     25  C   UNL     1      -0.163  10.268  21.222  0.00  0.00    +0.000 A 
ENDBRANCH  14  17
ENDBRANCH  11  13
BRANCH   1  27
ATOM     26  C   UNL     1       1.326   3.674  19.943  0.00  0.00    +0.000 C 
ATOM     27  O   UNL     1       1.156   4.891  19.209  0.00  0.00    +0.000 OA
ENDBRANCH   1  27
BRANCH   6  28
ATOM     28  C   UNL     1       6.077   3.258  14.061  0.00  0.00    +0.000 C 
BRANCH  28  29
ATOM     29  C   UNL     1       6.132   3.462  12.539  0.00  0.00    +0.000 C 
BRANCH  29  30
ATOM     30  O   UNL     1       6.329   2.220  11.866  0.00  0.00    +0.000 OA
ATOM     31  H   UNL     1       6.464   1.557  12.572  0.00  0.00    +0.000 HD
ENDBRANCH  29  30
ENDBRANCH  28  29
ENDBRANCH   6  28
TORSDOF 6
ENDMDL
MODEL 5
REMARK VINA RESULT:      -7.1      2.215      3.489
REMARK  Name = 
REMARK  7 active torsions:
REMARK  status: ('A' for Active; 'I' for Inactive)
REMARK    1  A    between atoms: C_1  and  O_2
REMARK    2  A    between atoms: O_2  and  C_3
REMARK    3  A    between atoms: N_8  and  C_9
REMARK    4  A    between atoms: C_9  and  C_10
REMARK    5  A    between atoms: C_10  and  O_11
REMARK    6  A    between atoms: C_16  and  N_17
REMARK    7  A    between atoms: C_18  and  C_20
REMARK                            x       y       z     vdW  Elec       q    Type
REMARK                         _______ _______ _______ _____ _____    ______ ____
ROOT
ATOM      1  C   UNL     1       0.413   8.848  21.104  0.00  0.00    +0.000 A 
ATOM      2  C   UNL     1       1.104   7.617  21.020  0.00  0.00    +0.000 A 
ATOM      3  C   UNL     1       1.926   7.286  19.952  0.00  0.00    +0.000 A 
ATOM      4  N   UNL     1       2.546   6.084  19.908  0.00  0.00    +0.000 NA
ATOM      5  C   UNL     1       3.353   5.794  18.865  0.00  0.00    +0.000 A 
ATOM      6  N   UNL     1       4.085   4.587  18.824  0.00  0.00    +0.000 N 
ATOM      7  C   UNL     1       3.567   6.710  17.841  0.00  0.00    +0.000 A 
ATOM      8  C   UNL     1       2.909   7.934  17.869  0.00  0.00    +0.000 A 
ATOM      9  C   UNL     1       2.082   8.247  18.946  0.00  0.00    +0.000 A 
ATOM     10  C   UNL     1       1.433   9.493  19.034  0.00  0.00    +0.000 A 
ATOM     11  C   UNL     1       0.591   9.822  20.103  0.00  0.00    +0.000 A 
ATOM     12  H   UNL     1       4.145   4.282  17.856  0.00  0.00    +0.000 HD
ENDROOT
BRANCH  11  13
ATOM     13  N   UNL     1      -0.050  11.100  20.189  0.00  0.00    +0.000 N 
ATOM     14  C   UNL     1       0.507  12.229  20.784  0.00  0.00    +0.000 C 
ATOM     15  O   UNL     1       1.665  12.282  21.192  0.00  0.00    +0.000 OA
ATOM     16  H   UNL     1      -0.949  11.201  19.724  0.00  0.00    +0.000 HD
BRANCH  14  17
ATOM     17  C   UNL     1      -0.297  13.434  20.892  0.00  0.00    +0.000 A 
ATOM     18  C   UNL     1      -0.548  14.300  19.797  0.00  0.00    +0.000 A 
ATOM     19  N   UNL     1      -1.319  15.338  20.100  0.00  0.00    +0.000 NA
ATOM     20  N   UNL     1      -1.576  15.178  21.413  0.00  0.00    +0.000 N 
ATOM     21  C   UNL     1      -2.363  16.001  22.206  0.00  0.00    +0.000 A 
ATOM     22  C   UNL     1      -2.510  15.735  23.511  0.00  0.00    +0.000 A 
ATOM     23  C   UNL     1      -1.772  14.543  23.999  0.00  0.00    +0.000 A 
ATOM     24  N   UNL     1      -1.048  13.729  23.284  0.00  0.00    +0.000 NA
ATOM     25  C   UNL     1      -0.946  14.038  21.951  0.00  0.00    +0.000 A 
ENDBRANCH  14  17
ENDBRANCH  11  13
BRANCH   1  27
ATOM     26  C   UNL     1       0.177   9.475  23.372  0.00  0.00    +0.000 C 
ATOM     27  O   UNL     1      -0.457   9.136  22.133  0.00  0.00    +0.000 OA
ENDBRANCH   1  27
BRANCH   6  28
ATOM     28  C   UNL     1       3.529   3.527  19.677  0.00  0.00    +0.000 C 
BRANCH  28  29
ATOM     29  C   UNL     1       4.056   2.168  19.190  0.00  0.00    +0.000 C 
BRANCH  29  30
ATOM     30  O   UNL     1       5.129   1.713  20.013  0.00  0.00    +0.000 OA
ATOM     31  H   UNL     1       5.271   2.420  20.674  0.00  0.00    +0.000 HD
ENDBRANCH  29  30
ENDBRANCH  28  29
ENDBRANCH   6  28
TORSDOF 6
ENDMDL
MODEL 6
REMARK VINA RESULT:      -7.0      1.792      1.996
REMARK  Name = 
REMARK  7 active torsions:
REMARK  status: ('A' for Active; 'I' for Inactive)
REMARK    1  A    between atoms: C_1  and  O_2
REMARK    2  A    between atoms: O_2  and  C_3
REMARK    3  A    between atoms: N_8  and  C_9
REMARK    4  A    between atoms: C_9  and  C_10
REMARK    5  A    between atoms: C_10  and  O_11
REMARK    6  A    between atoms: C_16  and  N_17
REMARK    7  A    between atoms: C_18  and  C_20
REMARK                            x       y       z     vdW  Elec       q    Type
REMARK                         _______ _______ _______ _____ _____    ______ ____
ROOT
ATOM      1  C   UNL     1       1.363   9.998  18.662  0.00  0.00    +0.000 A 
ATOM      2  C   UNL     1       2.200   9.149  17.899  0.00  0.00    +0.000 A 
ATOM      3  C   UNL     1       2.601   7.896  18.338  0.00  0.00    +0.000 A 
ATOM      4  N   UNL     1       3.423   7.133  17.580  0.00  0.00    +0.000 NA
ATOM      5  C   UNL     1       3.785   5.910  18.023  0.00  0.00    +0.000 A 
ATOM      6  N   UNL     1       4.569   5.048  17.225  0.00  0.00    +0.000 N 
ATOM      7  C   UNL     1       3.323   5.416  19.238  0.00  0.00    +0.000 A 
ATOM      8  C   UNL     1       2.504   6.209  20.032  0.00  0.00    +0.000 A 
ATOM      9  C   UNL     1       2.115   7.469  19.579  0.00  0.00    +0.000 A 
ATOM     10  C   UNL     1       1.249   8.284  20.333  0.00  0.00    +0.000 A 
ATOM     11  C   UNL     1       0.856   9.555  19.898  0.00  0.00    +0.000 A 
ATOM     12  H   UNL     1       5.181   4.515  17.836  0.00  0.00    +0.000 HD
ENDROOT
BRANCH  11  13
ATOM     13  N   UNL     1      -0.039  10.368  20.667  0.00  0.00    +0.000 N 
ATOM     14  C   UNL     1       0.346  11.461  21.438  0.00  0.00    +0.000 C 
ATOM     15  O   UNL     1       1.486  11.923  21.443  0.00  0.00    +0.000 OA
ATOM     16  H   UNL     1      -1.033  10.166  20.589  0.00  0.00    +0.000 HD
BRANCH  14  17
ATOM     17  C   UNL     1      -0.652  12.134  22.250  0.00  0.00    +0.000 A 
ATOM     18  C   UNL     1      -1.837  11.500  22.707  0.00  0.00    +0.000 A 
ATOM     19  N   UNL     1      -2.612  12.282  23.449  0.00  0.00    +0.000 NA
ATOM     20  N   UNL     1      -1.952  13.457  23.479  0.00  0.00    +0.000 N 
ATOM     21  C   UNL     1      -2.344  14.607  24.149  0.00  0.00    +0.000 A 
ATOM     22  C   UNL     1      -1.600  15.718  24.069  0.00  0.00    +0.000 A 
ATOM     23  C   UNL     1      -0.386  15.604  23.222  0.00  0.00    +0.000 A 
ATOM     24  N   UNL     1       0.034  14.538  22.602  0.00  0.00    +0.000 NA
ATOM     25  C   UNL     1      -0.757  13.423  22.733  0.00  0.00    +0.000 A 
ENDBRANCH  14  17
ENDBRANCH  11  13
BRANCH   1  27
ATOM     26  C   UNL     1       2.138  12.170  18.142  0.00  0.00    +0.000 C 
ATOM     27  O   UNL     1       1.030  11.269  18.248  0.00  0.00    +0.000 OA
ENDBRANCH   1  27
BRANCH   6  28
ATOM     28  C   UNL     1       5.341   5.743  16.185  0.00  0.00    +0.000 C 
BRANCH  28  29
ATOM     29  C   UNL     1       6.487   4.830  15.721  0.00  0.00    +0.000 C 
BRANCH  29  30
ATOM     30  O   UNL     1       7.491   5.579  15.038  0.00  0.00    +0.000 OA
ATOM     31  H   UNL     1       8.205   5.719  15.692  0.00  0.00    +0.000 HD
ENDBRANCH  29  30
ENDBRANCH  28  29
ENDBRANCH   6  28
TORSDOF 6
ENDMDL
MODEL 7
REMARK VINA RESULT:      -7.0      3.127      4.551
REMARK  Name = 
REMARK  7 active torsions:
REMARK  status: ('A' for Active; 'I' for Inactive)
REMARK    1  A    between atoms: C_1  and  O_2
REMARK    2  A    between atoms: O_2  and  C_3
REMARK    3  A    between atoms: N_8  and  C_9
REMARK    4  A    between atoms: C_9  and  C_10
REMARK    5  A    between atoms: C_10  and  O_11
REMARK    6  A    between atoms: C_16  and  N_17
REMARK    7  A    between atoms: C_18  and  C_20
REMARK                            x       y       z     vdW  Elec       q    Type
REMARK                         _______ _______ _______ _____ _____    ______ ____
ROOT
ATOM      1  C   UNL     1       0.631   9.694  20.708  0.00  0.00    +0.000 A 
ATOM      2  C   UNL     1       1.145   8.388  20.888  0.00  0.00    +0.000 A 
ATOM      3  C   UNL     1       1.845   7.712  19.899  0.00  0.00    +0.000 A 
ATOM      4  N   UNL     1       2.295   6.453  20.113  0.00  0.00    +0.000 NA
ATOM      5  C   UNL     1       2.987   5.824  19.139  0.00  0.00    +0.000 A 
ATOM      6  N   UNL     1       3.547   4.546  19.354  0.00  0.00    +0.000 N 
ATOM      7  C   UNL     1       3.254   6.447  17.925  0.00  0.00    +0.000 A 
ATOM      8  C   UNL     1       2.768   7.728  17.691  0.00  0.00    +0.000 A 
ATOM      9  C   UNL     1       2.062   8.390  18.694  0.00  0.00    +0.000 A 
ATOM     10  C   UNL     1       1.592   9.705  18.513  0.00  0.00    +0.000 A 
ATOM     11  C   UNL     1       0.873  10.383  19.504  0.00  0.00    +0.000 A 
ATOM     12  H   UNL     1       3.503   4.026  18.481  0.00  0.00    +0.000 HD
ENDROOT
BRANCH  11  13
ATOM     13  N   UNL     1       0.415  11.727  19.314  0.00  0.00    +0.000 N 
ATOM     14  C   UNL     1       1.134  12.867  19.660  0.00  0.00    +0.000 C 
ATOM     15  O   UNL     1       2.298  12.844  20.056  0.00  0.00    +0.000 OA
ATOM     16  H   UNL     1      -0.473  11.851  18.833  0.00  0.00    +0.000 HD
BRANCH  14  17
ATOM     17  C   UNL     1       0.506  14.167  19.507  0.00  0.00    +0.000 A 
ATOM     18  C   UNL     1      -0.832  14.433  19.897  0.00  0.00    +0.000 A 
ATOM     19  N   UNL     1      -1.213  15.689  19.688  0.00  0.00    +0.000 NA
ATOM     20  N   UNL     1      -0.128  16.268  19.137  0.00  0.00    +0.000 N 
ATOM     21  C   UNL     1      -0.008  17.595  18.748  0.00  0.00    +0.000 A 
ATOM     22  C   UNL     1       1.127  18.030  18.186  0.00  0.00    +0.000 A 
ATOM     23  C   UNL     1       2.182  16.999  18.014  0.00  0.00    +0.000 A 
ATOM     24  N   UNL     1       2.122  15.754  18.391  0.00  0.00    +0.000 NA
ATOM     25  C   UNL     1       0.943  15.366  18.979  0.00  0.00    +0.000 A 
ENDBRANCH  14  17
ENDBRANCH  11  13
BRANCH   1  27
ATOM     26  C   UNL     1      -0.483   9.501  22.784  0.00  0.00    +0.000 C 
ATOM     27  O   UNL     1      -0.124  10.327  21.671  0.00  0.00    +0.000 OA
ENDBRANCH   1  27
BRANCH   6  28
ATOM     28  C   UNL     1       2.911   3.795  20.445  0.00  0.00    +0.000 C 
BRANCH  28  29
ATOM     29  C   UNL     1       1.675   3.066  19.895  0.00  0.00    +0.000 C 
BRANCH  29  30
ATOM     30  O   UNL     1       0.474   3.696  20.337  0.00  0.00    +0.000 OA
ATOM     31  H   UNL     1       0.638   3.952  21.266  0.00  0.00    +0.000 HD
ENDBRANCH  29  30
ENDBRANCH  28  29
ENDBRANCH   6  28
TORSDOF 6
ENDMDL
MODEL 8
REMARK VINA RESULT:      -7.0      1.844      2.205
REMARK  Name = 
REMARK  7 active torsions:
REMARK  status: ('A' for Active; 'I' for Inactive)
REMARK    1  A    between atoms: C_1  and  O_2
REMARK    2  A    between atoms: O_2  and  C_3
REMARK    3  A    between atoms: N_8  and  C_9
REMARK    4  A    between atoms: C_9  and  C_10
REMARK    5  A    between atoms: C_10  and  O_11
REMARK    6  A    between atoms: C_16  and  N_17
REMARK    7  A    between atoms: C_18  and  C_20
REMARK                            x       y       z     vdW  Elec       q    Type
REMARK                         _______ _______ _______ _____ _____    ______ ____
ROOT
ATOM      1  C   UNL     1       1.151  10.207  19.043  0.00  0.00    +0.000 A 
ATOM      2  C   UNL     1       1.861   9.173  18.388  0.00  0.00    +0.000 A 
ATOM      3  C   UNL     1       2.080   7.929  18.963  0.00  0.00    +0.000 A 
ATOM      4  N   UNL     1       2.788   6.982  18.304  0.00  0.00    +0.000 NA
ATOM      5  C   UNL     1       2.972   5.774  18.879  0.00  0.00    +0.000 A 
ATOM      6  N   UNL     1       3.629   4.732  18.190  0.00  0.00    +0.000 N 
ATOM      7  C   UNL     1       2.441   5.483  20.131  0.00  0.00    +0.000 A 
ATOM      8  C   UNL     1       1.740   6.462  20.823  0.00  0.00    +0.000 A 
ATOM      9  C   UNL     1       1.535   7.708  20.233  0.00  0.00    +0.000 A 
ATOM     10  C   UNL     1       0.790   8.712  20.882  0.00  0.00    +0.000 A 
ATOM     11  C   UNL     1       0.582   9.973  20.310  0.00  0.00    +0.000 A 
ATOM     12  H   UNL     1       4.158   4.185  18.865  0.00  0.00    +0.000 HD
ENDROOT
BRANCH  11  13
ATOM     13  N   UNL     1      -0.191  10.980  20.973  0.00  0.00    +0.000 N 
ATOM     14  C   UNL     1      -0.387  11.052  22.349  0.00  0.00    +0.000 C 
ATOM     15  O   UNL     1       0.187  10.326  23.157  0.00  0.00    +0.000 OA
ATOM     16  H   UNL     1      -0.568  11.730  20.397  0.00  0.00    +0.000 HD
BRANCH  14  17
ATOM     17  C   UNL     1      -1.280  12.068  22.878  0.00  0.00    +0.000 A 
ATOM     18  C   UNL     1      -2.597  11.786  23.326  0.00  0.00    +0.000 A 
ATOM     19  N   UNL     1      -3.245  12.850  23.789  0.00  0.00    +0.000 NA
ATOM     20  N   UNL     1      -2.363  13.858  23.637  0.00  0.00    +0.000 N 
ATOM     21  C   UNL     1      -2.557  15.185  23.993  0.00  0.00    +0.000 A 
ATOM     22  C   UNL     1      -1.599  16.090  23.757  0.00  0.00    +0.000 A 
ATOM     23  C   UNL     1      -0.379  15.561  23.097  0.00  0.00    +0.000 A 
ATOM     24  N   UNL     1      -0.145  14.320  22.774  0.00  0.00    +0.000 NA
ATOM     25  C   UNL     1      -1.153  13.432  23.055  0.00  0.00    +0.000 A 
ENDBRANCH  14  17
ENDBRANCH  11  13
BRANCH   1  27
ATOM     26  C   UNL     1       2.192  12.258  18.498  0.00  0.00    +0.000 C 
ATOM     27  O   UNL     1       1.002  11.461  18.493  0.00  0.00    +0.000 OA
ENDBRANCH   1  27
BRANCH   6  28
ATOM     28  C   UNL     1       4.495   5.197  17.098  0.00  0.00    +0.000 C 
BRANCH  28  29
ATOM     29  C   UNL     1       5.959   5.127  17.558  0.00  0.00    +0.000 C 
BRANCH  29  30
ATOM     30  O   UNL     1       6.202   3.937  18.306  0.00  0.00    +0.000 OA
ATOM     31  H   UNL     1       7.153   3.741  18.186  0.00  0.00    +0.000 HD
ENDBRANCH  29  30
ENDBRANCH  28  29
ENDBRANCH   6  28
TORSDOF 6
ENDMDL
MODEL 9
REMARK VINA RESULT:      -7.0      2.128      8.898
REMARK  Name = 
REMARK  7 active torsions:
REMARK  status: ('A' for Active; 'I' for Inactive)
REMARK    1  A    between atoms: C_1  and  O_2
REMARK    2  A    between atoms: O_2  and  C_3
REMARK    3  A    between atoms: N_8  and  C_9
REMARK    4  A    between atoms: C_9  and  C_10
REMARK    5  A    between atoms: C_10  and  O_11
REMARK    6  A    between atoms: C_16  and  N_17
REMARK    7  A    between atoms: C_18  and  C_20
REMARK                            x       y       z     vdW  Elec       q    Type
REMARK                         _______ _______ _______ _____ _____    ______ ____
ROOT
ATOM      1  C   UNL     1       1.549  10.037  19.015  0.00  0.00    +0.000 A 
ATOM      2  C   UNL     1       0.928  11.081  19.740  0.00  0.00    +0.000 A 
ATOM      3  C   UNL     1       0.247  10.869  20.930  0.00  0.00    +0.000 A 
ATOM      4  N   UNL     1      -0.352  11.899  21.573  0.00  0.00    +0.000 NA
ATOM      5  C   UNL     1      -0.994  11.669  22.738  0.00  0.00    +0.000 A 
ATOM      6  N   UNL     1      -1.556  12.729  23.482  0.00  0.00    +0.000 N 
ATOM      7  C   UNL     1      -1.044  10.395  23.294  0.00  0.00    +0.000 A 
ATOM      8  C   UNL     1      -0.456   9.330  22.622  0.00  0.00    +0.000 A 
ATOM      9  C   UNL     1       0.218   9.560  21.424  0.00  0.00    +0.000 A 
ATOM     10  C   UNL     1       0.866   8.516  20.736  0.00  0.00    +0.000 A 
ATOM     11  C   UNL     1       1.540   8.726  19.527  0.00  0.00    +0.000 A 
ATOM     12  H   UNL     1      -2.402  12.390  23.932  0.00  0.00    +0.000 HD
ENDROOT
BRANCH  11  13
ATOM     13  N   UNL     1       2.209   7.658  18.846  0.00  0.00    +0.000 N 
ATOM     14  C   UNL     1       2.451   6.399  19.387  0.00  0.00    +0.000 C 
ATOM     15  O   UNL     1       2.005   6.027  20.471  0.00  0.00    +0.000 OA
ATOM     16  H   UNL     1       2.467   7.817  17.874  0.00  0.00    +0.000 HD
BRANCH  14  17
ATOM     17  C   UNL     1       3.232   5.444  18.622  0.00  0.00    +0.000 A 
ATOM     18  C   UNL     1       3.290   4.061  18.934  0.00  0.00    +0.000 A 
ATOM     19  N   UNL     1       4.047   3.354  18.102  0.00  0.00    +0.000 NA
ATOM     20  N   UNL     1       4.515   4.271  17.232  0.00  0.00    +0.000 N 
ATOM     21  C   UNL     1       5.346   4.031  16.147  0.00  0.00    +0.000 A 
ATOM     22  C   UNL     1       5.757   5.047  15.379  0.00  0.00    +0.000 A 
ATOM     23  C   UNL     1       5.274   6.388  15.793  0.00  0.00    +0.000 A 
ATOM     24  N   UNL     1       4.471   6.654  16.785  0.00  0.00    +0.000 NA
ATOM     25  C   UNL     1       4.066   5.573  17.528  0.00  0.00    +0.000 A 
ENDBRANCH  14  17
ENDBRANCH  11  13
BRANCH   1  27
ATOM     26  C   UNL     1       2.661  11.575  17.605  0.00  0.00    +0.000 C 
ATOM     27  O   UNL     1       2.160  10.247  17.798  0.00  0.00    +0.000 OA
ENDBRANCH   1  27
BRANCH   6  28
ATOM     28  C   UNL     1      -1.830  13.933  22.685  0.00  0.00    +0.000 C 
BRANCH  28  29
ATOM     29  C   UNL     1      -0.875  15.052  23.129  0.00  0.00    +0.000 C 
BRANCH  29  30
ATOM     30  O   UNL     1       0.450  14.807  22.660  0.00  0.00    +0.000 OA
ATOM     31  H   UNL     1       1.024  14.874  23.448  0.00  0.00    +0.000 HD
ENDBRANCH  29  30
ENDBRANCH  28  29
ENDBRANCH   6  28
TORSDOF 6
ENDMDL
