MODEL 1
REMARK VINA RESULT:      -7.1      0.000      0.000
REMARK  Name = 
REMARK  5 active torsions:
REMARK  status: ('A' for Active; 'I' for Inactive)
REMARK    1  A    between atoms: C_1  and  C_2
REMARK    2  A    between atoms: C_8  and  C_9
REMARK    3  A    between atoms: C_12  and  C_13
REMARK    4  A    between atoms: C_25  and  C_26
REMARK    5  A    between atoms: C_25  and  C_27
REMARK                            x       y       z     vdW  Elec       q    Type
REMARK                         _______ _______ _______ _____ _____    ______ ____
ROOT
ATOM      1  C   UNL     1       9.001  10.761  21.248  0.00  0.00    +0.000 C 
ATOM      2  C   UNL     1       8.473  12.107  21.724  0.00  0.00    +0.000 C 
ATOM      3  O   UNL     1       7.577  12.267  22.872  0.00  0.00    +0.000 OA
ATOM      4  C   UNL     1       8.143  13.084  23.980  0.00  0.00    +0.000 C 
ATOM      5  O   UNL     1       7.378  13.726  24.986  0.00  0.00    +0.000 OA
ATOM      6  C   UNL     1       8.141  14.923  25.242  0.00  0.00    +0.000 C 
ATOM      7  O   UNL     1       8.443  15.280  26.356  0.00  0.00    +0.000 OA
ATOM      8  C   UNL     1       8.333  15.698  23.893  0.00  0.00    +0.000 C 
ATOM      9  C   UNL     1       6.993  16.443  24.052  0.00  0.00    +0.000 C 
ATOM     10  C   UNL     1       9.449  16.707  22.920  0.00  0.00    +0.000 C 
ATOM     11  C   UNL     1       9.204  16.693  21.188  0.00  0.00    +0.000 C 
ATOM     12  C   UNL     1       9.104  15.201  21.159  0.00  0.00    +0.000 C 
ATOM     13  C   UNL     1       7.565  15.147  20.830  0.00  0.00    +0.000 C 
ATOM     14  C   UNL     1       9.135  14.227  22.201  0.00  0.00    +0.000 C 
ATOM     15  C   UNL     1       9.635  13.074  21.829  0.00  0.00    +0.000 C 
ATOM     16  O   UNL     1      10.583  13.177  20.906  0.00  0.00    +0.000 OA
ATOM     17  C   UNL     1      10.681  14.625  20.857  0.00  0.00    +0.000 C 
ATOM     18  C   UNL     1      11.560  14.711  19.642  0.00  0.00    +0.000 C 
ATOM     19  C   UNL     1      10.856  14.411  18.552  0.00  0.00    +0.000 C 
ATOM     20  C   UNL     1       9.564  15.084  18.583  0.00  0.00    +0.000 C 
ATOM     21  C   UNL     1       8.543  14.420  17.989  0.00  0.00    +0.000 C 
ATOM     22  C   UNL     1       8.643  13.025  17.498  0.00  0.00    +0.000 C 
ATOM     23  O   UNL     1       7.628  12.397  17.188  0.00  0.00    +0.000 OA
ATOM     24  O   UNL     1       9.873  12.462  17.431  0.00  0.00    +0.000 OA
ATOM     25  C   UNL     1      11.116  13.155  17.732  0.00  0.00    +0.000 C 
ATOM     26  C   UNL     1      11.799  13.519  16.423  0.00  0.00    +0.000 C 
ATOM     27  C   UNL     1      12.007  12.080  18.427  0.00  0.00    +0.000 C 
ATOM     28  C   UNL     1       9.635  16.549  19.461  0.00  0.00    +0.000 C 
ATOM     29  C   UNL     1       9.298  17.619  18.407  0.00  0.00    +0.000 C 
ATOM     30  O   UNL     1      10.559  17.576  19.068  0.00  0.00    +0.000 OA
ATOM     31  C   UNL     1       8.874  14.350  23.555  0.00  0.00    +0.000 C 
ENDROOT
TORSDOF 0
ENDMDL
MODEL 2
REMARK VINA RESULT:      -7.0      1.242      1.435
REMARK  Name = 
REMARK  5 active torsions:
REMARK  status: ('A' for Active; 'I' for Inactive)
REMARK    1  A    between atoms: C_1  and  C_2
REMARK    2  A    between atoms: C_8  and  C_9
REMARK    3  A    between atoms: C_12  and  C_13
REMARK    4  A    between atoms: C_25  and  C_26
REMARK    5  A    between atoms: C_25  and  C_27
REMARK                            x       y       z     vdW  Elec       q    Type
REMARK                         _______ _______ _______ _____ _____    ______ ____
ROOT
ATOM      1  C   UNL     1       9.499  10.756  20.744  0.00  0.00    +0.000 C 
ATOM      2  C   UNL     1       8.665  11.718  21.577  0.00  0.00    +0.000 C 
ATOM      3  O   UNL     1       7.823  11.298  22.700  0.00  0.00    +0.000 OA
ATOM      4  C   UNL     1       8.215  11.882  24.011  0.00  0.00    +0.000 C 
ATOM      5  O   UNL     1       7.365  11.981  25.142  0.00  0.00    +0.000 OA
ATOM      6  C   UNL     1       7.801  13.212  25.754  0.00  0.00    +0.000 C 
ATOM      7  O   UNL     1       8.060  13.301  26.930  0.00  0.00    +0.000 OA
ATOM      8  C   UNL     1       7.709  14.363  24.693  0.00  0.00    +0.000 C 
ATOM      9  C   UNL     1       6.231  14.646  25.030  0.00  0.00    +0.000 C 
ATOM     10  C   UNL     1       8.467  15.868  24.084  0.00  0.00    +0.000 C 
ATOM     11  C   UNL     1       8.139  16.286  22.417  0.00  0.00    +0.000 C 
ATOM     12  C   UNL     1       8.432  14.895  21.953  0.00  0.00    +0.000 C 
ATOM     13  C   UNL     1       6.945  14.530  21.585  0.00  0.00    +0.000 C 
ATOM     14  C   UNL     1       8.774  13.708  22.666  0.00  0.00    +0.000 C 
ATOM     15  C   UNL     1       9.537  12.887  21.987  0.00  0.00    +0.000 C 
ATOM     16  O   UNL     1      10.373  13.499  21.158  0.00  0.00    +0.000 OA
ATOM     17  C   UNL     1      10.086  14.871  21.535  0.00  0.00    +0.000 C 
ATOM     18  C   UNL     1      10.843  15.532  20.419  0.00  0.00    +0.000 C 
ATOM     19  C   UNL     1      10.184  15.382  19.272  0.00  0.00    +0.000 C 
ATOM     20  C   UNL     1       8.764  15.648  19.466  0.00  0.00    +0.000 C 
ATOM     21  C   UNL     1       7.922  14.935  18.680  0.00  0.00    +0.000 C 
ATOM     22  C   UNL     1       8.356  13.819  17.806  0.00  0.00    +0.000 C 
ATOM     23  O   UNL     1       7.525  13.060  17.303  0.00  0.00    +0.000 OA
ATOM     24  O   UNL     1       9.685  13.648  17.609  0.00  0.00    +0.000 OA
ATOM     25  C   UNL     1      10.718  14.530  18.129  0.00  0.00    +0.000 C 
ATOM     26  C   UNL     1      11.208  15.422  16.999  0.00  0.00    +0.000 C 
ATOM     27  C   UNL     1      11.895  13.579  18.503  0.00  0.00    +0.000 C 
ATOM     28  C   UNL     1       8.497  16.763  20.733  0.00  0.00    +0.000 C 
ATOM     29  C   UNL     1       7.834  17.961  20.028  0.00  0.00    +0.000 C 
ATOM     30  O   UNL     1       9.098  18.067  20.679  0.00  0.00    +0.000 OA
ATOM     31  C   UNL     1       8.564  13.364  23.991  0.00  0.00    +0.000 C 
ENDROOT
TORSDOF 0
ENDMDL
MODEL 3
REMARK VINA RESULT:      -6.9      8.780     11.509
REMARK  Name = 
REMARK  5 active torsions:
REMARK  status: ('A' for Active; 'I' for Inactive)
REMARK    1  A    between atoms: C_1  and  C_2
REMARK    2  A    between atoms: C_8  and  C_9
REMARK    3  A    between atoms: C_12  and  C_13
REMARK    4  A    between atoms: C_25  and  C_26
REMARK    5  A    between atoms: C_25  and  C_27
REMARK                            x       y       z     vdW  Elec       q    Type
REMARK                         _______ _______ _______ _____ _____    ______ ____
ROOT
ATOM      1  C   UNL     1      -2.630  17.211  20.308  0.00  0.00    +0.000 C 
ATOM      2  C   UNL     1      -1.461  16.432  19.722  0.00  0.00    +0.000 C 
ATOM      3  O   UNL     1      -0.625  16.926  18.626  0.00  0.00    +0.000 OA
ATOM      4  C   UNL     1       0.809  17.105  18.983  0.00  0.00    +0.000 C 
ATOM      5  O   UNL     1       1.875  17.165  18.050  0.00  0.00    +0.000 OA
ATOM      6  C   UNL     1       2.955  16.536  18.770  0.00  0.00    +0.000 C 
ATOM      7  O   UNL     1       4.054  17.028  18.859  0.00  0.00    +0.000 OA
ATOM      8  C   UNL     1       2.493  15.111  19.232  0.00  0.00    +0.000 C 
ATOM      9  C   UNL     1       2.924  14.466  17.899  0.00  0.00    +0.000 C 
ATOM     10  C   UNL     1       2.587  13.881  20.531  0.00  0.00    +0.000 C 
ATOM     11  C   UNL     1       1.263  12.741  20.623  0.00  0.00    +0.000 C 
ATOM     12  C   UNL     1       0.244  13.830  20.504  0.00  0.00    +0.000 C 
ATOM     13  C   UNL     1      -0.239  13.444  19.056  0.00  0.00    +0.000 C 
ATOM     14  C   UNL     1       0.377  15.238  20.317  0.00  0.00    +0.000 C 
ATOM     15  C   UNL     1      -0.592  15.935  20.859  0.00  0.00    +0.000 C 
ATOM     16  O   UNL     1      -1.081  15.395  21.969  0.00  0.00    +0.000 OA
ATOM     17  C   UNL     1      -0.149  14.289  22.100  0.00  0.00    +0.000 C 
ATOM     18  C   UNL     1      -0.875  13.564  23.197  0.00  0.00    +0.000 C 
ATOM     19  C   UNL     1      -1.973  12.988  22.710  0.00  0.00    +0.000 C 
ATOM     20  C   UNL     1      -1.678  12.322  21.448  0.00  0.00    +0.000 C 
ATOM     21  C   UNL     1      -2.691  12.296  20.549  0.00  0.00    +0.000 C 
ATOM     22  C   UNL     1      -3.961  13.042  20.717  0.00  0.00    +0.000 C 
ATOM     23  O   UNL     1      -4.740  13.172  19.769  0.00  0.00    +0.000 OA
ATOM     24  O   UNL     1      -4.218  13.594  21.927  0.00  0.00    +0.000 OA
ATOM     25  C   UNL     1      -3.373  13.441  23.101  0.00  0.00    +0.000 C 
ATOM     26  C   UNL     1      -4.011  12.418  24.028  0.00  0.00    +0.000 C 
ATOM     27  C   UNL     1      -3.449  14.821  23.822  0.00  0.00    +0.000 C 
ATOM     28  C   UNL     1      -0.053  11.796  21.375  0.00  0.00    +0.000 C 
ATOM     29  C   UNL     1      -0.173  10.265  21.265  0.00  0.00    +0.000 C 
ATOM     30  O   UNL     1       0.456  10.901  22.376  0.00  0.00    +0.000 OA
ATOM     31  C   UNL     1       1.426  15.982  19.803  0.00  0.00    +0.000 C 
ENDROOT
TORSDOF 0
ENDMDL
MODEL 4
REMARK VINA RESULT:      -6.6      8.620     10.665
REMARK  Name = 
REMARK  5 active torsions:
REMARK  status: ('A' for Active; 'I' for Inactive)
REMARK    1  A    between atoms: C_1  and  C_2
REMARK    2  A    between atoms: C_8  and  C_9
REMARK    3  A    between atoms: C_12  and  C_13
REMARK    4  A    between atoms: C_25  and  C_26
REMARK    5  A    between atoms: C_25  and  C_27
REMARK                            x       y       z     vdW  Elec       q    Type
REMARK                         _______ _______ _______ _____ _____    ______ ____
ROOT
ATOM      1  C   UNL     1       0.996  17.095  23.342  0.00  0.00    +0.000 C 
ATOM      2  C   UNL     1      -0.024  15.965  23.346  0.00  0.00    +0.000 C 
ATOM      3  O   UNL     1      -0.919  15.685  24.470  0.00  0.00    +0.000 OA
ATOM      4  C   UNL     1      -2.366  15.815  24.147  0.00  0.00    +0.000 C 
ATOM      5  O   UNL     1      -3.419  15.222  24.888  0.00  0.00    +0.000 OA
ATOM      6  C   UNL     1      -4.388  14.916  23.864  0.00  0.00    +0.000 C 
ATOM      7  O   UNL     1      -5.554  15.217  23.957  0.00  0.00    +0.000 OA
ATOM      8  C   UNL     1      -3.702  14.029  22.769  0.00  0.00    +0.000 C 
ATOM      9  C   UNL     1      -4.010  12.727  23.536  0.00  0.00    +0.000 C 
ATOM     10  C   UNL     1      -3.605  13.664  21.018  0.00  0.00    +0.000 C 
ATOM     11  C   UNL     1      -2.113  12.947  20.452  0.00  0.00    +0.000 C 
ATOM     12  C   UNL     1      -1.286  13.945  21.198  0.00  0.00    +0.000 C 
ATOM     13  C   UNL     1      -0.733  12.932  22.268  0.00  0.00    +0.000 C 
ATOM     14  C   UNL     1      -1.646  15.010  22.076  0.00  0.00    +0.000 C 
ATOM     15  C   UNL     1      -0.810  16.019  22.052  0.00  0.00    +0.000 C 
ATOM     16  O   UNL     1      -0.249  16.218  20.865  0.00  0.00    +0.000 OA
ATOM     17  C   UNL     1      -0.988  15.224  20.108  0.00  0.00    +0.000 C 
ATOM     18  C   UNL     1      -0.163  15.295  18.854  0.00  0.00    +0.000 C 
ATOM     19  C   UNL     1       1.019  14.715  19.056  0.00  0.00    +0.000 C 
ATOM     20  C   UNL     1       0.849  13.452  19.762  0.00  0.00    +0.000 C 
ATOM     21  C   UNL     1       1.861  13.106  20.594  0.00  0.00    +0.000 C 
ATOM     22  C   UNL     1       2.990  14.003  20.937  0.00  0.00    +0.000 C 
ATOM     23  O   UNL     1       3.745  13.728  21.873  0.00  0.00    +0.000 OA
ATOM     24  O   UNL     1       3.142  15.137  20.213  0.00  0.00    +0.000 OA
ATOM     25  C   UNL     1       2.322  15.502  19.068  0.00  0.00    +0.000 C 
ATOM     26  C   UNL     1       3.111  15.222  17.798  0.00  0.00    +0.000 C 
ATOM     27  C   UNL     1       2.164  17.049  19.175  0.00  0.00    +0.000 C 
ATOM     28  C   UNL     1      -0.667  12.738  19.425  0.00  0.00    +0.000 C 
ATOM     29  C   UNL     1      -0.297  11.413  18.734  0.00  0.00    +0.000 C 
ATOM     30  O   UNL     1      -1.032  12.437  18.069  0.00  0.00    +0.000 OA
ATOM     31  C   UNL     1      -2.798  15.213  22.817  0.00  0.00    +0.000 C 
ENDROOT
TORSDOF 0
ENDMDL
MODEL 5
REMARK VINA RESULT:      -6.6     10.809     12.666
REMARK  Name = 
REMARK  5 active torsions:
REMARK  status: ('A' for Active; 'I' for Inactive)
REMARK    1  A    between atoms: C_1  and  C_2
REMARK    2  A    between atoms: C_8  and  C_9
REMARK    3  A    between atoms: C_12  and  C_13
REMARK    4  A    between atoms: C_25  and  C_26
REMARK    5  A    between atoms: C_25  and  C_27
REMARK                            x       y       z     vdW  Elec       q    Type
REMARK                         _______ _______ _______ _____ _____    ______ ____
ROOT
ATOM      1  C   UNL     1      -3.410  11.885  18.675  0.00  0.00    +0.000 C 
ATOM      2  C   UNL     1      -4.058  12.721  19.769  0.00  0.00    +0.000 C 
ATOM      3  O   UNL     1      -5.502  12.949  19.868  0.00  0.00    +0.000 OA
ATOM      4  C   UNL     1      -6.119  12.424  21.116  0.00  0.00    +0.000 C 
ATOM      5  O   UNL     1      -7.361  12.853  21.649  0.00  0.00    +0.000 OA
ATOM      6  C   UNL     1      -7.142  12.753  23.072  0.00  0.00    +0.000 C 
ATOM      7  O   UNL     1      -7.916  12.198  23.814  0.00  0.00    +0.000 OA
ATOM      8  C   UNL     1      -5.877  13.599  23.448  0.00  0.00    +0.000 C 
ATOM      9  C   UNL     1      -6.704  14.891  23.604  0.00  0.00    +0.000 C 
ATOM     10  C   UNL     1      -4.435  13.699  24.506  0.00  0.00    +0.000 C 
ATOM     11  C   UNL     1      -3.098  14.659  23.913  0.00  0.00    +0.000 C 
ATOM     12  C   UNL     1      -3.165  14.018  22.563  0.00  0.00    +0.000 C 
ATOM     13  C   UNL     1      -3.704  15.288  21.806  0.00  0.00    +0.000 C 
ATOM     14  C   UNL     1      -4.056  13.048  22.016  0.00  0.00    +0.000 C 
ATOM     15  C   UNL     1      -3.505  12.279  21.108  0.00  0.00    +0.000 C 
ATOM     16  O   UNL     1      -2.218  12.040  21.323  0.00  0.00    +0.000 OA
ATOM     17  C   UNL     1      -2.087  12.696  22.611  0.00  0.00    +0.000 C 
ATOM     18  C   UNL     1      -0.589  12.633  22.701  0.00  0.00    +0.000 C 
ATOM     19  C   UNL     1      -0.047  13.504  21.853  0.00  0.00    +0.000 C 
ATOM     20  C   UNL     1      -0.741  14.783  21.928  0.00  0.00    +0.000 C 
ATOM     21  C   UNL     1      -0.797  15.488  20.773  0.00  0.00    +0.000 C 
ATOM     22  C   UNL     1      -0.364  14.955  19.460  0.00  0.00    +0.000 C 
ATOM     23  O   UNL     1      -0.656  15.546  18.418  0.00  0.00    +0.000 OA
ATOM     24  O   UNL     1       0.331  13.792  19.445  0.00  0.00    +0.000 OA
ATOM     25  C   UNL     1       0.753  13.067  20.633  0.00  0.00    +0.000 C 
ATOM     26  C   UNL     1       2.234  13.328  20.861  0.00  0.00    +0.000 C 
ATOM     27  C   UNL     1       0.610  11.563  20.248  0.00  0.00    +0.000 C 
ATOM     28  C   UNL     1      -1.409  15.049  23.479  0.00  0.00    +0.000 C 
ATOM     29  C   UNL     1      -0.667  16.300  23.983  0.00  0.00    +0.000 C 
ATOM     30  O   UNL     1      -0.560  15.038  24.637  0.00  0.00    +0.000 OA
ATOM     31  C   UNL     1      -5.338  12.690  22.396  0.00  0.00    +0.000 C 
ENDROOT
TORSDOF 0
ENDMDL
MODEL 6
REMARK VINA RESULT:      -6.5      8.357     11.076
REMARK  Name = 
REMARK  5 active torsions:
REMARK  status: ('A' for Active; 'I' for Inactive)
REMARK    1  A    between atoms: C_1  and  C_2
REMARK    2  A    between atoms: C_8  and  C_9
REMARK    3  A    between atoms: C_12  and  C_13
REMARK    4  A    between atoms: C_25  and  C_26
REMARK    5  A    between atoms: C_25  and  C_27
REMARK                            x       y       z     vdW  Elec       q    Type
REMARK                         _______ _______ _______ _____ _____    ______ ____
ROOT
ATOM      1  C   UNL     1      -0.144  11.643  18.859  0.00  0.00    +0.000 C 
ATOM      2  C   UNL     1       0.678  12.824  19.355  0.00  0.00    +0.000 C 
ATOM      3  O   UNL     1       2.046  13.102  18.913  0.00  0.00    +0.000 OA
ATOM      4  C   UNL     1       2.210  14.405  18.213  0.00  0.00    +0.000 C 
ATOM      5  O   UNL     1       3.440  15.093  18.058  0.00  0.00    +0.000 OA
ATOM      6  C   UNL     1       3.034  16.476  18.120  0.00  0.00    +0.000 C 
ATOM      7  O   UNL     1       3.382  17.296  17.305  0.00  0.00    +0.000 OA
ATOM      8  C   UNL     1       2.251  16.713  19.458  0.00  0.00    +0.000 C 
ATOM      9  C   UNL     1       3.547  16.994  20.245  0.00  0.00    +0.000 C 
ATOM     10  C   UNL     1       0.896  17.590  20.234  0.00  0.00    +0.000 C 
ATOM     11  C   UNL     1       0.215  16.858  21.670  0.00  0.00    +0.000 C 
ATOM     12  C   UNL     1       0.143  15.514  21.017  0.00  0.00    +0.000 C 
ATOM     13  C   UNL     1       1.282  14.853  21.881  0.00  0.00    +0.000 C 
ATOM     14  C   UNL     1       0.559  15.060  19.730  0.00  0.00    +0.000 C 
ATOM     15  C   UNL     1      -0.168  14.077  19.258  0.00  0.00    +0.000 C 
ATOM     16  O   UNL     1      -1.441  14.129  19.631  0.00  0.00    +0.000 OA
ATOM     17  C   UNL     1      -1.412  15.404  20.323  0.00  0.00    +0.000 C 
ATOM     18  C   UNL     1      -2.777  15.310  20.943  0.00  0.00    +0.000 C 
ATOM     19  C   UNL     1      -2.765  14.420  21.933  0.00  0.00    +0.000 C 
ATOM     20  C   UNL     1      -1.583  14.605  22.765  0.00  0.00    +0.000 C 
ATOM     21  C   UNL     1      -1.080  13.479  23.327  0.00  0.00    +0.000 C 
ATOM     22  C   UNL     1      -1.550  12.113  22.996  0.00  0.00    +0.000 C 
ATOM     23  O   UNL     1      -0.903  11.126  23.354  0.00  0.00    +0.000 OA
ATOM     24  O   UNL     1      -2.687  11.991  22.270  0.00  0.00    +0.000 OA
ATOM     25  C   UNL     1      -3.526  13.104  21.857  0.00  0.00    +0.000 C 
ATOM     26  C   UNL     1      -4.746  13.155  22.764  0.00  0.00    +0.000 C 
ATOM     27  C   UNL     1      -4.031  12.709  20.436  0.00  0.00    +0.000 C 
ATOM     28  C   UNL     1      -1.053  16.230  22.760  0.00  0.00    +0.000 C 
ATOM     29  C   UNL     1      -1.206  16.665  24.229  0.00  0.00    +0.000 C 
ATOM     30  O   UNL     1      -1.946  17.276  23.175  0.00  0.00    +0.000 OA
ATOM     31  C   UNL     1       1.489  15.586  18.849  0.00  0.00    +0.000 C 
ENDROOT
TORSDOF 0
ENDMDL
MODEL 7
REMARK VINA RESULT:      -6.3      2.195      6.138
REMARK  Name = 
REMARK  5 active torsions:
REMARK  status: ('A' for Active; 'I' for Inactive)
REMARK    1  A    between atoms: C_1  and  C_2
REMARK    2  A    between atoms: C_8  and  C_9
REMARK    3  A    between atoms: C_12  and  C_13
REMARK    4  A    between atoms: C_25  and  C_26
REMARK    5  A    between atoms: C_25  and  C_27
REMARK                            x       y       z     vdW  Elec       q    Type
REMARK                         _______ _______ _______ _____ _____    ______ ____
ROOT
ATOM      1  C   UNL     1       5.668  14.836  17.842  0.00  0.00    +0.000 C 
ATOM      2  C   UNL     1       6.904  14.175  18.435  0.00  0.00    +0.000 C 
ATOM      3  O   UNL     1       7.684  13.147  17.743  0.00  0.00    +0.000 OA
ATOM      4  C   UNL     1       9.095  13.532  17.467  0.00  0.00    +0.000 C 
ATOM      5  O   UNL     1      10.147  12.619  17.202  0.00  0.00    +0.000 OA
ATOM      6  C   UNL     1      11.286  13.272  17.801  0.00  0.00    +0.000 C 
ATOM      7  O   UNL     1      12.333  13.423  17.218  0.00  0.00    +0.000 OA
ATOM      8  C   UNL     1      10.965  13.568  19.306  0.00  0.00    +0.000 C 
ATOM      9  C   UNL     1      11.451  12.175  19.753  0.00  0.00    +0.000 C 
ATOM     10  C   UNL     1      11.182  14.723  20.659  0.00  0.00    +0.000 C 
ATOM     11  C   UNL     1       9.974  14.677  21.924  0.00  0.00    +0.000 C 
ATOM     12  C   UNL     1       8.855  14.674  20.932  0.00  0.00    +0.000 C 
ATOM     13  C   UNL     1       8.405  13.188  21.198  0.00  0.00    +0.000 C 
ATOM     14  C   UNL     1       8.851  14.646  19.505  0.00  0.00    +0.000 C 
ATOM     15  C   UNL     1       7.822  15.256  18.970  0.00  0.00    +0.000 C 
ATOM     16  O   UNL     1       7.391  16.295  19.675  0.00  0.00    +0.000 OA
ATOM     17  C   UNL     1       8.425  16.308  20.694  0.00  0.00    +0.000 C 
ATOM     18  C   UNL     1       7.777  17.312  21.604  0.00  0.00    +0.000 C 
ATOM     19  C   UNL     1       6.738  16.756  22.224  0.00  0.00    +0.000 C 
ATOM     20  C   UNL     1       7.090  15.430  22.713  0.00  0.00    +0.000 C 
ATOM     21  C   UNL     1       6.081  14.526  22.736  0.00  0.00    +0.000 C 
ATOM     22  C   UNL     1       4.745  14.768  22.139  0.00  0.00    +0.000 C 
ATOM     23  O   UNL     1       3.955  13.835  21.978  0.00  0.00    +0.000 OA
ATOM     24  O   UNL     1       4.441  16.030  21.753  0.00  0.00    +0.000 OA
ATOM     25  C   UNL     1       5.302  17.185  21.955  0.00  0.00    +0.000 C 
ATOM     26  C   UNL     1       4.769  17.988  23.131  0.00  0.00    +0.000 C 
ATOM     27  C   UNL     1       5.096  18.056  20.678  0.00  0.00    +0.000 C 
ATOM     28  C   UNL     1       8.758  15.309  23.069  0.00  0.00    +0.000 C 
ATOM     29  C   UNL     1       8.786  15.029  24.583  0.00  0.00    +0.000 C 
ATOM     30  O   UNL     1       9.355  16.208  24.018  0.00  0.00    +0.000 OA
ATOM     31  C   UNL     1       9.821  14.226  18.611  0.00  0.00    +0.000 C 
ENDROOT
TORSDOF 0
ENDMDL
MODEL 8
REMARK VINA RESULT:      -6.2      2.023      6.275
REMARK  Name = 
REMARK  5 active torsions:
REMARK  status: ('A' for Active; 'I' for Inactive)
REMARK    1  A    between atoms: C_1  and  C_2
REMARK    2  A    between atoms: C_8  and  C_9
REMARK    3  A    between atoms: C_12  and  C_13
REMARK    4  A    between atoms: C_25  and  C_26
REMARK    5  A    between atoms: C_25  and  C_27
REMARK                            x       y       z     vdW  Elec       q    Type
REMARK                         _______ _______ _______ _____ _____    ______ ____
ROOT
ATOM      1  C   UNL     1      10.486  17.942  19.045  0.00  0.00    +0.000 C 
ATOM      2  C   UNL     1      10.051  16.491  18.895  0.00  0.00    +0.000 C 
ATOM      3  O   UNL     1      10.393  15.658  17.740  0.00  0.00    +0.000 OA
ATOM      4  C   UNL     1      11.216  14.462  18.070  0.00  0.00    +0.000 C 
ATOM      5  O   UNL     1      11.333  13.308  17.255  0.00  0.00    +0.000 OA
ATOM      6  C   UNL     1      11.465  12.251  18.228  0.00  0.00    +0.000 C 
ATOM      7  O   UNL     1      12.331  11.412  18.168  0.00  0.00    +0.000 OA
ATOM      8  C   UNL     1      10.240  12.309  19.205  0.00  0.00    +0.000 C 
ATOM      9  C   UNL     1       9.373  11.433  18.279  0.00  0.00    +0.000 C 
ATOM     10  C   UNL     1       9.696  12.085  20.897  0.00  0.00    +0.000 C 
ATOM     11  C   UNL     1       8.256  12.958  21.374  0.00  0.00    +0.000 C 
ATOM     12  C   UNL     1       8.758  14.228  20.765  0.00  0.00    +0.000 C 
ATOM     13  C   UNL     1       7.724  14.259  19.578  0.00  0.00    +0.000 C 
ATOM     14  C   UNL     1       9.942  14.525  20.026  0.00  0.00    +0.000 C 
ATOM     15  C   UNL     1      10.366  15.755  20.182  0.00  0.00    +0.000 C 
ATOM     16  O   UNL     1      10.120  16.255  21.386  0.00  0.00    +0.000 OA
ATOM     17  C   UNL     1       9.576  15.062  22.009  0.00  0.00    +0.000 C 
ATOM     18  C   UNL     1       9.078  15.719  23.265  0.00  0.00    +0.000 C 
ATOM     19  C   UNL     1       7.998  16.449  22.997  0.00  0.00    +0.000 C 
ATOM     20  C   UNL     1       7.086  15.707  22.136  0.00  0.00    +0.000 C 
ATOM     21  C   UNL     1       6.357  16.454  21.272  0.00  0.00    +0.000 C 
ATOM     22  C   UNL     1       6.574  17.904  21.050  0.00  0.00    +0.000 C 
ATOM     23  O   UNL     1       6.050  18.474  20.091  0.00  0.00    +0.000 OA
ATOM     24  O   UNL     1       7.384  18.563  21.913  0.00  0.00    +0.000 OA
ATOM     25  C   UNL     1       7.995  17.968  23.091  0.00  0.00    +0.000 C 
ATOM     26  C   UNL     1       7.217  18.414  24.319  0.00  0.00    +0.000 C 
ATOM     27  C   UNL     1       9.404  18.631  23.179  0.00  0.00    +0.000 C 
ATOM     28  C   UNL     1       7.224  14.020  22.373  0.00  0.00    +0.000 C 
ATOM     29  C   UNL     1       5.834  13.612  22.894  0.00  0.00    +0.000 C 
ATOM     30  O   UNL     1       7.013  13.460  23.680  0.00  0.00    +0.000 OA
ATOM     31  C   UNL     1      10.786  13.693  19.311  0.00  0.00    +0.000 C 
ENDROOT
TORSDOF 0
ENDMDL
MODEL 9
REMARK VINA RESULT:      -6.2      7.851     10.473
REMARK  Name = 
REMARK  5 active torsions:
REMARK  status: ('A' for Active; 'I' for Inactive)
REMARK    1  A    between atoms: C_1  and  C_2
REMARK    2  A    between atoms: C_8  and  C_9
REMARK    3  A    between atoms: C_12  and  C_13
REMARK    4  A    between atoms: C_25  and  C_26
REMARK    5  A    between atoms: C_25  and  C_27
REMARK                            x       y       z     vdW  Elec       q    Type
REMARK                         _______ _______ _______ _____ _____    ______ ____
ROOT
ATOM      1  C   UNL     1       3.759  14.797  18.598  0.00  0.00    +0.000 C 
ATOM      2  C   UNL     1       2.598  13.829  18.419  0.00  0.00    +0.000 C 
ATOM      3  O   UNL     1       2.635  12.676  17.517  0.00  0.00    +0.000 OA
ATOM      4  C   UNL     1       2.482  11.362  18.199  0.00  0.00    +0.000 C 
ATOM      5  O   UNL     1       2.077  10.161  17.564  0.00  0.00    +0.000 OA
ATOM      6  C   UNL     1       1.323   9.498  18.600  0.00  0.00    +0.000 C 
ATOM      7  O   UNL     1       1.507   8.344  18.904  0.00  0.00    +0.000 OA
ATOM      8  C   UNL     1       0.188  10.460  19.092  0.00  0.00    +0.000 C 
ATOM      9  C   UNL     1      -0.785   9.983  17.994  0.00  0.00    +0.000 C 
ATOM     10  C   UNL     1      -0.759  11.017  20.508  0.00  0.00    +0.000 C 
ATOM     11  C   UNL     1      -1.460  12.615  20.396  0.00  0.00    +0.000 C 
ATOM     12  C   UNL     1      -0.178  13.204  19.900  0.00  0.00    +0.000 C 
ATOM     13  C   UNL     1      -0.679  13.474  18.432  0.00  0.00    +0.000 C 
ATOM     14  C   UNL     1       1.082  12.610  19.590  0.00  0.00    +0.000 C 
ATOM     15  C   UNL     1       2.103  13.408  19.787  0.00  0.00    +0.000 C 
ATOM     16  O   UNL     1       1.930  14.256  20.793  0.00  0.00    +0.000 OA
ATOM     17  C   UNL     1       0.657  13.756  21.281  0.00  0.00    +0.000 C 
ATOM     18  C   UNL     1       0.371  14.879  22.238  0.00  0.00    +0.000 C 
ATOM     19  C   UNL     1       0.035  15.975  21.562  0.00  0.00    +0.000 C 
ATOM     20  C   UNL     1      -0.907  15.647  20.500  0.00  0.00    +0.000 C 
ATOM     21  C   UNL     1      -0.823  16.412  19.385  0.00  0.00    +0.000 C 
ATOM     22  C   UNL     1       0.257  17.398  19.141  0.00  0.00    +0.000 C 
ATOM     23  O   UNL     1       0.416  17.886  18.019  0.00  0.00    +0.000 OA
ATOM     24  O   UNL     1       1.071  17.716  20.175  0.00  0.00    +0.000 OA
ATOM     25  C   UNL     1       0.914  17.218  21.533  0.00  0.00    +0.000 C 
ATOM     26  C   UNL     1       0.293  18.316  22.383  0.00  0.00    +0.000 C 
ATOM     27  C   UNL     1       2.372  17.014  22.047  0.00  0.00    +0.000 C 
ATOM     28  C   UNL     1      -1.857  14.283  20.898  0.00  0.00    +0.000 C 
ATOM     29  C   UNL     1      -3.292  14.841  20.940  0.00  0.00    +0.000 C 
ATOM     30  O   UNL     1      -2.657  14.290  22.092  0.00  0.00    +0.000 OA
ATOM     31  C   UNL     1       1.405  11.301  19.273  0.00  0.00    +0.000 C 
ENDROOT
TORSDOF 0
ENDMDL
