MODEL 1
REMARK VINA RESULT:      -9.1      0.000      0.000
REMARK  Name = 
REMARK  4 active torsions:
REMARK  status: ('A' for Active; 'I' for Inactive)
REMARK    1  A    between atoms: S_2  and  C_4
REMARK    2  A    between atoms: S_2  and  C_10
REMARK    3  A    between atoms: C_12  and  O_13
REMARK    4  A    between atoms: O_13  and  C_14
REMARK                            x       y       z     vdW  Elec       q    Type
REMARK                         _______ _______ _______ _____ _____    ______ ____
ROOT
ATOM      1  C   UNL     1       5.537   5.731  17.131  0.00  0.00    +0.000 A 
ATOM      2  C   UNL     1       4.719   6.823  16.830  0.00  0.00    +0.000 A 
ATOM      3  C   UNL     1       3.458   6.967  17.450  0.00  0.00    +0.000 A 
ATOM      4  C   UNL     1       3.049   5.927  18.302  0.00  0.00    +0.000 A 
ATOM      5  O   UNL     1       1.831   5.766  18.925  0.00  0.00    +0.000 OA
ATOM      6  C   UNL     1       1.932   4.626  19.655  0.00  0.00    +0.000 A 
ATOM      7  C   UNL     1       3.160   4.028  19.508  0.00  0.00    +0.000 A 
ATOM      8  C   UNL     1       3.876   4.847  18.617  0.00  0.00    +0.000 A 
ATOM      9  C   UNL     1       5.144   4.753  18.044  0.00  0.00    +0.000 A 
ATOM     10  C   UNL     1       3.551   2.768  20.183  0.00  0.00    +0.000 C 
ATOM     11  N   UNL     1       2.344   2.016  20.565  0.00  0.00    +0.000 NA
ATOM     12  C   UNL     1       1.348   2.863  21.264  0.00  0.00    +0.000 C 
ATOM     13  C   UNL     1       0.814   4.078  20.452  0.00  0.00    +0.000 C 
ATOM     14  H   UNL     1       1.925   1.644  19.713  0.00  0.00    +0.000 HD
ENDROOT
BRANCH   1  16
ATOM     15  O   UNL     1       7.711   4.355  17.114  0.00  0.00    +0.000 OA
ATOM     16  S   UNL     1       7.119   5.458  16.378  0.00  0.00    +0.000 S 
ATOM     17  O   UNL     1       7.779   6.751  16.332  0.00  0.00    +0.000 OA
BRANCH  16  18
ATOM     18  C   UNL     1       6.932   4.958  14.698  0.00  0.00    +0.000 A 
ATOM     19  C   UNL     1       5.981   3.987  14.372  0.00  0.00    +0.000 A 
ATOM     20  C   UNL     1       5.920   3.504  13.070  0.00  0.00    +0.000 A 
ATOM     21  C   UNL     1       6.799   3.995  12.103  0.00  0.00    +0.000 A 
ATOM     22  C   UNL     1       7.740   4.974  12.432  0.00  0.00    +0.000 A 
ATOM     23  C   UNL     1       7.815   5.457  13.736  0.00  0.00    +0.000 A 
ENDBRANCH  16  18
ENDBRANCH   1  16
BRANCH   3  24
ATOM     24  O   UNL     1       2.707   8.044  17.036  0.00  0.00    +0.000 OA
BRANCH  24  25
ATOM     25  C   UNL     1       2.120   8.875  18.033  0.00  0.00    +0.000 C 
ATOM     26  F   UNL     1       2.374   8.506  19.301  0.00  0.00    +0.000 F 
ATOM     27  F   UNL     1       2.609  10.129  17.873  0.00  0.00    +0.000 F 
ATOM     28  F   UNL     1       0.785   8.928  17.836  0.00  0.00    +0.000 F 
ENDBRANCH  24  25
ENDBRANCH   3  24
TORSDOF 4
ENDMDL
MODEL 2
REMARK VINA RESULT:      -9.0      3.242      6.930
REMARK  Name = 
REMARK  4 active torsions:
REMARK  status: ('A' for Active; 'I' for Inactive)
REMARK    1  A    between atoms: S_2  and  C_4
REMARK    2  A    between atoms: S_2  and  C_10
REMARK    3  A    between atoms: C_12  and  O_13
REMARK    4  A    between atoms: O_13  and  C_14
REMARK                            x       y       z     vdW  Elec       q    Type
REMARK                         _______ _______ _______ _____ _____    ______ ____
ROOT
ATOM      1  C   UNL     1       5.314   3.898  17.934  0.00  0.00    +0.000 A 
ATOM      2  C   UNL     1       6.224   4.842  18.419  0.00  0.00    +0.000 A 
ATOM      3  C   UNL     1       7.070   5.543  17.533  0.00  0.00    +0.000 A 
ATOM      4  C   UNL     1       7.005   5.183  16.176  0.00  0.00    +0.000 A 
ATOM      5  O   UNL     1       7.799   5.621  15.139  0.00  0.00    +0.000 OA
ATOM      6  C   UNL     1       7.330   5.006  14.023  0.00  0.00    +0.000 A 
ATOM      7  C   UNL     1       6.279   4.166  14.302  0.00  0.00    +0.000 A 
ATOM      8  C   UNL     1       6.081   4.255  15.690  0.00  0.00    +0.000 A 
ATOM      9  C   UNL     1       5.209   3.616  16.573  0.00  0.00    +0.000 A 
ATOM     10  C   UNL     1       5.572   3.361  13.278  0.00  0.00    +0.000 C 
ATOM     11  N   UNL     1       6.442   3.180  12.103  0.00  0.00    +0.000 NA
ATOM     12  C   UNL     1       7.046   4.454  11.646  0.00  0.00    +0.000 C 
ATOM     13  C   UNL     1       7.940   5.185  12.689  0.00  0.00    +0.000 C 
ATOM     14  H   UNL     1       7.187   2.533  12.362  0.00  0.00    +0.000 HD
ENDROOT
BRANCH   1  16
ATOM     15  O   UNL     1       5.080   2.450  20.047  0.00  0.00    +0.000 OA
ATOM     16  S   UNL     1       4.237   2.952  18.978  0.00  0.00    +0.000 S 
ATOM     17  O   UNL     1       3.527   2.032  18.106  0.00  0.00    +0.000 OA
BRANCH  16  18
ATOM     18  C   UNL     1       2.998   3.983  19.694  0.00  0.00    +0.000 A 
ATOM     19  C   UNL     1       1.778   3.423  20.080  0.00  0.00    +0.000 A 
ATOM     20  C   UNL     1       0.759   4.255  20.528  0.00  0.00    +0.000 A 
ATOM     21  C   UNL     1       0.963   5.634  20.594  0.00  0.00    +0.000 A 
ATOM     22  C   UNL     1       2.190   6.188  20.216  0.00  0.00    +0.000 A 
ATOM     23  C   UNL     1       3.214   5.363  19.758  0.00  0.00    +0.000 A 
ENDBRANCH  16  18
ENDBRANCH   1  16
BRANCH   3  24
ATOM     24  O   UNL     1       7.971   6.403  18.119  0.00  0.00    +0.000 OA
BRANCH  24  25
ATOM     25  C   UNL     1       7.826   7.798  17.872  0.00  0.00    +0.000 C 
ATOM     26  F   UNL     1       6.555   8.237  17.827  0.00  0.00    +0.000 F 
ATOM     27  F   UNL     1       8.448   8.468  18.873  0.00  0.00    +0.000 F 
ATOM     28  F   UNL     1       8.454   8.112  16.718  0.00  0.00    +0.000 F 
ENDBRANCH  24  25
ENDBRANCH   3  24
TORSDOF 4
ENDMDL
MODEL 3
REMARK VINA RESULT:      -9.0      0.099      1.194
REMARK  Name = 
REMARK  4 active torsions:
REMARK  status: ('A' for Active; 'I' for Inactive)
REMARK    1  A    between atoms: S_2  and  C_4
REMARK    2  A    between atoms: S_2  and  C_10
REMARK    3  A    between atoms: C_12  and  O_13
REMARK    4  A    between atoms: O_13  and  C_14
REMARK                            x       y       z     vdW  Elec       q    Type
REMARK                         _______ _______ _______ _____ _____    ______ ____
ROOT
ATOM      1  C   UNL     1       5.576   5.727  17.171  0.00  0.00    +0.000 A 
ATOM      2  C   UNL     1       4.754   6.807  16.840  0.00  0.00    +0.000 A 
ATOM      3  C   UNL     1       3.478   6.945  17.430  0.00  0.00    +0.000 A 
ATOM      4  C   UNL     1       3.060   5.909  18.283  0.00  0.00    +0.000 A 
ATOM      5  O   UNL     1       1.830   5.742  18.880  0.00  0.00    +0.000 OA
ATOM      6  C   UNL     1       1.926   4.611  19.625  0.00  0.00    +0.000 A 
ATOM      7  C   UNL     1       3.163   4.025  19.512  0.00  0.00    +0.000 A 
ATOM      8  C   UNL     1       3.890   4.841  18.629  0.00  0.00    +0.000 A 
ATOM      9  C   UNL     1       5.172   4.754  18.085  0.00  0.00    +0.000 A 
ATOM     10  C   UNL     1       3.552   2.776  20.209  0.00  0.00    +0.000 C 
ATOM     11  N   UNL     1       2.344   2.015  20.572  0.00  0.00    +0.000 NA
ATOM     12  C   UNL     1       1.324   2.859  21.239  0.00  0.00    +0.000 C 
ATOM     13  C   UNL     1       0.796   4.060  20.402  0.00  0.00    +0.000 C 
ATOM     14  H   UNL     1       1.948   1.629  19.715  0.00  0.00    +0.000 HD
ENDROOT
BRANCH   1  16
ATOM     15  O   UNL     1       7.796   4.431  17.270  0.00  0.00    +0.000 OA
ATOM     16  S   UNL     1       7.177   5.462  16.457  0.00  0.00    +0.000 S 
ATOM     17  O   UNL     1       7.793   6.773  16.336  0.00  0.00    +0.000 OA
BRANCH  16  18
ATOM     18  C   UNL     1       7.032   4.849  14.810  0.00  0.00    +0.000 A 
ATOM     19  C   UNL     1       7.834   5.391  13.802  0.00  0.00    +0.000 A 
ATOM     20  C   UNL     1       7.631   4.996  12.485  0.00  0.00    +0.000 A 
ATOM     21  C   UNL     1       6.639   4.062  12.183  0.00  0.00    +0.000 A 
ATOM     22  C   UNL     1       5.848   3.515  13.196  0.00  0.00    +0.000 A 
ATOM     23  C   UNL     1       6.037   3.912  14.518  0.00  0.00    +0.000 A 
ENDBRANCH  16  18
ENDBRANCH   1  16
BRANCH   3  24
ATOM     24  O   UNL     1       2.725   8.009  16.988  0.00  0.00    +0.000 OA
BRANCH  24  25
ATOM     25  C   UNL     1       2.179   8.894  17.960  0.00  0.00    +0.000 C 
ATOM     26  F   UNL     1       2.568  10.176  17.844  0.00  0.00    +0.000 F 
ATOM     27  F   UNL     1       0.829   8.871  17.836  0.00  0.00    +0.000 F 
ATOM     28  F   UNL     1       2.483   8.439  19.195  0.00  0.00    +0.000 F 
ENDBRANCH  24  25
ENDBRANCH   3  24
TORSDOF 4
ENDMDL
MODEL 4
REMARK VINA RESULT:      -9.0      3.731      7.291
REMARK  Name = 
REMARK  4 active torsions:
REMARK  status: ('A' for Active; 'I' for Inactive)
REMARK    1  A    between atoms: S_2  and  C_4
REMARK    2  A    between atoms: S_2  and  C_10
REMARK    3  A    between atoms: C_12  and  O_13
REMARK    4  A    between atoms: O_13  and  C_14
REMARK                            x       y       z     vdW  Elec       q    Type
REMARK                         _______ _______ _______ _____ _____    ______ ____
ROOT
ATOM      1  C   UNL     1       4.431   3.435  17.210  0.00  0.00    +0.000 A 
ATOM      2  C   UNL     1       5.016   4.437  17.990  0.00  0.00    +0.000 A 
ATOM      3  C   UNL     1       5.942   5.339  17.421  0.00  0.00    +0.000 A 
ATOM      4  C   UNL     1       6.296   5.121  16.078  0.00  0.00    +0.000 A 
ATOM      5  O   UNL     1       7.254   5.773  15.334  0.00  0.00    +0.000 OA
ATOM      6  C   UNL     1       7.201   5.224  14.093  0.00  0.00    +0.000 A 
ATOM      7  C   UNL     1       6.264   4.222  14.014  0.00  0.00    +0.000 A 
ATOM      8  C   UNL     1       5.695   4.133  15.296  0.00  0.00    +0.000 A 
ATOM      9  C   UNL     1       4.736   3.290  15.858  0.00  0.00    +0.000 A 
ATOM     10  C   UNL     1       5.992   3.442  12.784  0.00  0.00    +0.000 C 
ATOM     11  N   UNL     1       7.158   3.510  11.886  0.00  0.00    +0.000 NA
ATOM     12  C   UNL     1       7.647   4.897  11.699  0.00  0.00    +0.000 C 
ATOM     13  C   UNL     1       8.105   5.627  12.995  0.00  0.00    +0.000 C 
ATOM     14  H   UNL     1       7.902   2.947  12.298  0.00  0.00    +0.000 HD
ENDROOT
BRANCH   1  16
ATOM     15  O   UNL     1       4.072   1.053  18.115  0.00  0.00    +0.000 OA
ATOM     16  S   UNL     1       3.284   2.243  17.850  0.00  0.00    +0.000 S 
ATOM     17  O   UNL     1       2.175   2.199  16.913  0.00  0.00    +0.000 OA
BRANCH  16  18
ATOM     18  C   UNL     1       2.597   2.797  19.377  0.00  0.00    +0.000 A 
ATOM     19  C   UNL     1       3.175   2.384  20.580  0.00  0.00    +0.000 A 
ATOM     20  C   UNL     1       2.559   2.717  21.781  0.00  0.00    +0.000 A 
ATOM     21  C   UNL     1       1.380   3.463  21.775  0.00  0.00    +0.000 A 
ATOM     22  C   UNL     1       0.812   3.883  20.569  0.00  0.00    +0.000 A 
ATOM     23  C   UNL     1       1.416   3.546  19.361  0.00  0.00    +0.000 A 
ENDBRANCH  16  18
ENDBRANCH   1  16
BRANCH   3  24
ATOM     24  O   UNL     1       6.505   6.246  18.290  0.00  0.00    +0.000 OA
BRANCH  24  25
ATOM     25  C   UNL     1       7.715   5.884  18.947  0.00  0.00    +0.000 C 
ATOM     26  F   UNL     1       7.582   5.564  20.247  0.00  0.00    +0.000 F 
ATOM     27  F   UNL     1       8.226   4.798  18.316  0.00  0.00    +0.000 F 
ATOM     28  F   UNL     1       8.608   6.889  18.819  0.00  0.00    +0.000 F 
ENDBRANCH  24  25
ENDBRANCH   3  24
TORSDOF 4
ENDMDL
MODEL 5
REMARK VINA RESULT:      -8.9      3.254      6.985
REMARK  Name = 
REMARK  4 active torsions:
REMARK  status: ('A' for Active; 'I' for Inactive)
REMARK    1  A    between atoms: S_2  and  C_4
REMARK    2  A    between atoms: S_2  and  C_10
REMARK    3  A    between atoms: C_12  and  O_13
REMARK    4  A    between atoms: O_13  and  C_14
REMARK                            x       y       z     vdW  Elec       q    Type
REMARK                         _______ _______ _______ _____ _____    ______ ____
ROOT
ATOM      1  C   UNL     1       5.310   3.876  17.874  0.00  0.00    +0.000 A 
ATOM      2  C   UNL     1       6.215   4.819  18.369  0.00  0.00    +0.000 A 
ATOM      3  C   UNL     1       7.068   5.524  17.491  0.00  0.00    +0.000 A 
ATOM      4  C   UNL     1       7.013   5.168  16.133  0.00  0.00    +0.000 A 
ATOM      5  O   UNL     1       7.814   5.611  15.104  0.00  0.00    +0.000 OA
ATOM      6  C   UNL     1       7.354   4.999  13.982  0.00  0.00    +0.000 A 
ATOM      7  C   UNL     1       6.302   4.158  14.250  0.00  0.00    +0.000 A 
ATOM      8  C   UNL     1       6.093   4.242  15.637  0.00  0.00    +0.000 A 
ATOM      9  C   UNL     1       5.215   3.599  16.511  0.00  0.00    +0.000 A 
ATOM     10  C   UNL     1       5.603   3.355  13.219  0.00  0.00    +0.000 C 
ATOM     11  N   UNL     1       6.482   3.179  12.050  0.00  0.00    +0.000 NA
ATOM     12  C   UNL     1       7.088   4.455  11.601  0.00  0.00    +0.000 C 
ATOM     13  C   UNL     1       7.974   5.183  12.653  0.00  0.00    +0.000 C 
ATOM     14  H   UNL     1       7.225   2.532  12.311  0.00  0.00    +0.000 HD
ENDROOT
BRANCH   1  16
ATOM     15  O   UNL     1       5.036   2.512  20.038  0.00  0.00    +0.000 OA
ATOM     16  S   UNL     1       4.226   2.926  18.907  0.00  0.00    +0.000 S 
ATOM     17  O   UNL     1       3.604   1.936  18.045  0.00  0.00    +0.000 OA
BRANCH  16  18
ATOM     18  C   UNL     1       2.907   3.927  19.513  0.00  0.00    +0.000 A 
ATOM     19  C   UNL     1       3.092   5.307  19.637  0.00  0.00    +0.000 A 
ATOM     20  C   UNL     1       2.098   6.076  20.231  0.00  0.00    +0.000 A 
ATOM     21  C   UNL     1       0.928   5.469  20.690  0.00  0.00    +0.000 A 
ATOM     22  C   UNL     1       0.744   4.091  20.554  0.00  0.00    +0.000 A 
ATOM     23  C   UNL     1       1.738   3.310  19.969  0.00  0.00    +0.000 A 
ENDBRANCH  16  18
ENDBRANCH   1  16
BRANCH   3  24
ATOM     24  O   UNL     1       7.964   6.382  18.088  0.00  0.00    +0.000 OA
BRANCH  24  25
ATOM     25  C   UNL     1       7.809   7.779  17.858  0.00  0.00    +0.000 C 
ATOM     26  F   UNL     1       8.343   8.573  18.804  0.00  0.00    +0.000 F 
ATOM     27  F   UNL     1       8.421   8.082  16.687  0.00  0.00    +0.000 F 
ATOM     28  F   UNL     1       6.496   8.063  17.719  0.00  0.00    +0.000 F 
ENDBRANCH  24  25
ENDBRANCH   3  24
TORSDOF 4
ENDMDL
MODEL 6
REMARK VINA RESULT:      -8.9      3.706      7.258
REMARK  Name = 
REMARK  4 active torsions:
REMARK  status: ('A' for Active; 'I' for Inactive)
REMARK    1  A    between atoms: S_2  and  C_4
REMARK    2  A    between atoms: S_2  and  C_10
REMARK    3  A    between atoms: C_12  and  O_13
REMARK    4  A    between atoms: O_13  and  C_14
REMARK                            x       y       z     vdW  Elec       q    Type
REMARK                         _______ _______ _______ _____ _____    ______ ____
ROOT
ATOM      1  C   UNL     1       4.366   3.479  17.208  0.00  0.00    +0.000 A 
ATOM      2  C   UNL     1       4.986   4.462  17.984  0.00  0.00    +0.000 A 
ATOM      3  C   UNL     1       5.937   5.335  17.412  0.00  0.00    +0.000 A 
ATOM      4  C   UNL     1       6.278   5.105  16.067  0.00  0.00    +0.000 A 
ATOM      5  O   UNL     1       7.254   5.727  15.319  0.00  0.00    +0.000 OA
ATOM      6  C   UNL     1       7.179   5.179  14.079  0.00  0.00    +0.000 A 
ATOM      7  C   UNL     1       6.210   4.207  14.004  0.00  0.00    +0.000 A 
ATOM      8  C   UNL     1       5.644   4.137  15.288  0.00  0.00    +0.000 A 
ATOM      9  C   UNL     1       4.661   3.324  15.854  0.00  0.00    +0.000 A 
ATOM     10  C   UNL     1       5.908   3.436  12.775  0.00  0.00    +0.000 C 
ATOM     11  N   UNL     1       7.073   3.466  11.873  0.00  0.00    +0.000 NA
ATOM     12  C   UNL     1       7.605   4.837  11.683  0.00  0.00    +0.000 C 
ATOM     13  C   UNL     1       8.090   5.552  12.977  0.00  0.00    +0.000 C 
ATOM     14  H   UNL     1       7.800   2.880  12.281  0.00  0.00    +0.000 HD
ENDROOT
BRANCH   1  16
ATOM     15  O   UNL     1       3.941   1.120  18.140  0.00  0.00    +0.000 OA
ATOM     16  S   UNL     1       3.185   2.325  17.853  0.00  0.00    +0.000 S 
ATOM     17  O   UNL     1       2.083   2.295  16.906  0.00  0.00    +0.000 OA
BRANCH  16  18
ATOM     18  C   UNL     1       2.498   2.915  19.366  0.00  0.00    +0.000 A 
ATOM     19  C   UNL     1       1.587   3.975  19.339  0.00  0.00    +0.000 A 
ATOM     20  C   UNL     1       1.143   4.521  20.538  0.00  0.00    +0.000 A 
ATOM     21  C   UNL     1       1.601   4.004  21.751  0.00  0.00    +0.000 A 
ATOM     22  C   UNL     1       2.503   2.936  21.771  0.00  0.00    +0.000 A 
ATOM     23  C   UNL     1       2.961   2.389  20.575  0.00  0.00    +0.000 A 
ENDBRANCH  16  18
ENDBRANCH   1  16
BRANCH   3  24
ATOM     24  O   UNL     1       6.532   6.224  18.278  0.00  0.00    +0.000 OA
BRANCH  24  25
ATOM     25  C   UNL     1       7.728   5.820  18.937  0.00  0.00    +0.000 C 
ATOM     26  F   UNL     1       8.340   4.751  18.398  0.00  0.00    +0.000 F 
ATOM     27  F   UNL     1       8.604   6.854  18.885  0.00  0.00    +0.000 F 
ATOM     28  F   UNL     1       7.458   5.578  20.238  0.00  0.00    +0.000 F 
ENDBRANCH  24  25
ENDBRANCH   3  24
TORSDOF 4
ENDMDL
MODEL 7
REMARK VINA RESULT:      -8.7      3.193      6.997
REMARK  Name = 
REMARK  4 active torsions:
REMARK  status: ('A' for Active; 'I' for Inactive)
REMARK    1  A    between atoms: S_2  and  C_4
REMARK    2  A    between atoms: S_2  and  C_10
REMARK    3  A    between atoms: C_12  and  O_13
REMARK    4  A    between atoms: O_13  and  C_14
REMARK                            x       y       z     vdW  Elec       q    Type
REMARK                         _______ _______ _______ _____ _____    ______ ____
ROOT
ATOM      1  C   UNL     1       4.610   4.855  17.817  0.00  0.00    +0.000 A 
ATOM      2  C   UNL     1       5.703   5.566  18.322  0.00  0.00    +0.000 A 
ATOM      3  C   UNL     1       6.792   5.896  17.486  0.00  0.00    +0.000 A 
ATOM      4  C   UNL     1       6.752   5.405  16.169  0.00  0.00    +0.000 A 
ATOM      5  O   UNL     1       7.730   5.481  15.202  0.00  0.00    +0.000 OA
ATOM      6  C   UNL     1       7.210   4.887  14.097  0.00  0.00    +0.000 A 
ATOM      7  C   UNL     1       5.942   4.406  14.321  0.00  0.00    +0.000 A 
ATOM      8  C   UNL     1       5.651   4.714  15.661  0.00  0.00    +0.000 A 
ATOM      9  C   UNL     1       4.555   4.450  16.484  0.00  0.00    +0.000 A 
ATOM     10  C   UNL     1       5.132   3.706  13.296  0.00  0.00    +0.000 C 
ATOM     11  N   UNL     1       6.019   3.153  12.257  0.00  0.00    +0.000 NA
ATOM     12  C   UNL     1       7.000   4.149  11.763  0.00  0.00    +0.000 C 
ATOM     13  C   UNL     1       7.966   4.728  12.837  0.00  0.00    +0.000 C 
ATOM     14  H   UNL     1       6.521   2.364  12.662  0.00  0.00    +0.000 HD
ENDROOT
BRANCH   1  16
ATOM     15  O   UNL     1       3.774   3.640  19.924  0.00  0.00    +0.000 OA
ATOM     16  S   UNL     1       3.217   4.374  18.802  0.00  0.00    +0.000 S 
ATOM     17  O   UNL     1       2.277   3.735  17.897  0.00  0.00    +0.000 OA
BRANCH  16  18
ATOM     18  C   UNL     1       2.381   5.791  19.435  0.00  0.00    +0.000 A 
ATOM     19  C   UNL     1       2.495   7.012  18.764  0.00  0.00    +0.000 A 
ATOM     20  C   UNL     1       1.940   8.154  19.331  0.00  0.00    +0.000 A 
ATOM     21  C   UNL     1       1.272   8.071  20.554  0.00  0.00    +0.000 A 
ATOM     22  C   UNL     1       1.152   6.846  21.215  0.00  0.00    +0.000 A 
ATOM     23  C   UNL     1       1.713   5.698  20.660  0.00  0.00    +0.000 A 
ENDBRANCH  16  18
ENDBRANCH   1  16
BRANCH   3  24
ATOM     24  O   UNL     1       7.842   6.542  18.098  0.00  0.00    +0.000 OA
BRANCH  24  25
ATOM     25  C   UNL     1       7.975   7.946  17.899  0.00  0.00    +0.000 C 
ATOM     26  F   UNL     1       8.694   8.587  18.838  0.00  0.00    +0.000 F 
ATOM     27  F   UNL     1       8.597   8.143  16.711  0.00  0.00    +0.000 F 
ATOM     28  F   UNL     1       6.746   8.500  17.814  0.00  0.00    +0.000 F 
ENDBRANCH  24  25
ENDBRANCH   3  24
TORSDOF 4
ENDMDL
MODEL 8
REMARK VINA RESULT:      -8.6      2.910      4.202
REMARK  Name = 
REMARK  4 active torsions:
REMARK  status: ('A' for Active; 'I' for Inactive)
REMARK    1  A    between atoms: S_2  and  C_4
REMARK    2  A    between atoms: S_2  and  C_10
REMARK    3  A    between atoms: C_12  and  O_13
REMARK    4  A    between atoms: O_13  and  C_14
REMARK                            x       y       z     vdW  Elec       q    Type
REMARK                         _______ _______ _______ _____ _____    ______ ____
ROOT
ATOM      1  C   UNL     1       5.652   5.389  17.383  0.00  0.00    +0.000 A 
ATOM      2  C   UNL     1       5.252   4.390  18.274  0.00  0.00    +0.000 A 
ATOM      3  C   UNL     1       4.091   4.554  19.062  0.00  0.00    +0.000 A 
ATOM      4  C   UNL     1       3.427   5.789  18.961  0.00  0.00    +0.000 A 
ATOM      5  O   UNL     1       2.357   6.244  19.701  0.00  0.00    +0.000 OA
ATOM      6  C   UNL     1       2.064   7.477  19.215  0.00  0.00    +0.000 A 
ATOM      7  C   UNL     1       2.919   7.849  18.206  0.00  0.00    +0.000 A 
ATOM      8  C   UNL     1       3.816   6.778  18.055  0.00  0.00    +0.000 A 
ATOM      9  C   UNL     1       4.929   6.573  17.239  0.00  0.00    +0.000 A 
ATOM     10  C   UNL     1       2.840   9.146  17.493  0.00  0.00    +0.000 C 
ATOM     11  N   UNL     1       2.122  10.126  18.326  0.00  0.00    +0.000 NA
ATOM     12  C   UNL     1       0.851   9.585  18.866  0.00  0.00    +0.000 C 
ATOM     13  C   UNL     1       0.988   8.326  19.770  0.00  0.00    +0.000 C 
ATOM     14  H   UNL     1       2.730  10.382  19.102  0.00  0.00    +0.000 HD
ENDROOT
BRANCH   1  16
ATOM     15  O   UNL     1       7.914   4.231  16.984  0.00  0.00    +0.000 OA
ATOM     16  S   UNL     1       7.110   5.278  16.380  0.00  0.00    +0.000 S 
ATOM     17  O   UNL     1       7.629   6.629  16.261  0.00  0.00    +0.000 OA
BRANCH  16  18
ATOM     18  C   UNL     1       6.701   4.778  14.739  0.00  0.00    +0.000 A 
ATOM     19  C   UNL     1       5.538   4.036  14.517  0.00  0.00    +0.000 A 
ATOM     20  C   UNL     1       5.282   3.537  13.245  0.00  0.00    +0.000 A 
ATOM     21  C   UNL     1       6.179   3.785  12.205  0.00  0.00    +0.000 A 
ATOM     22  C   UNL     1       7.335   4.538  12.431  0.00  0.00    +0.000 A 
ATOM     23  C   UNL     1       7.605   5.034  13.704  0.00  0.00    +0.000 A 
ENDBRANCH  16  18
ENDBRANCH   1  16
BRANCH   3  24
ATOM     24  O   UNL     1       3.822   3.539  19.951  0.00  0.00    +0.000 OA
BRANCH  24  25
ATOM     25  C   UNL     1       2.941   2.500  19.536  0.00  0.00    +0.000 C 
ATOM     26  F   UNL     1       2.065   2.090  20.471  0.00  0.00    +0.000 F 
ATOM     27  F   UNL     1       2.220   2.957  18.483  0.00  0.00    +0.000 F 
ATOM     28  F   UNL     1       3.669   1.446  19.106  0.00  0.00    +0.000 F 
ENDBRANCH  24  25
ENDBRANCH   3  24
TORSDOF 4
ENDMDL
MODEL 9
REMARK VINA RESULT:      -8.5      0.886      1.057
REMARK  Name = 
REMARK  4 active torsions:
REMARK  status: ('A' for Active; 'I' for Inactive)
REMARK    1  A    between atoms: S_2  and  C_4
REMARK    2  A    between atoms: S_2  and  C_10
REMARK    3  A    between atoms: C_12  and  O_13
REMARK    4  A    between atoms: O_13  and  C_14
REMARK                            x       y       z     vdW  Elec       q    Type
REMARK                         _______ _______ _______ _____ _____    ______ ____
ROOT
ATOM      1  C   UNL     1       5.721   5.546  17.031  0.00  0.00    +0.000 A 
ATOM      2  C   UNL     1       5.175   6.804  17.301  0.00  0.00    +0.000 A 
ATOM      3  C   UNL     1       3.991   6.925  18.061  0.00  0.00    +0.000 A 
ATOM      4  C   UNL     1       3.362   5.728  18.447  0.00  0.00    +0.000 A 
ATOM      5  O   UNL     1       2.149   5.570  19.079  0.00  0.00    +0.000 OA
ATOM      6  C   UNL     1       1.992   4.233  19.257  0.00  0.00    +0.000 A 
ATOM      7  C   UNL     1       3.045   3.518  18.740  0.00  0.00    +0.000 A 
ATOM      8  C   UNL     1       3.919   4.473  18.194  0.00  0.00    +0.000 A 
ATOM      9  C   UNL     1       5.123   4.375  17.495  0.00  0.00    +0.000 A 
ATOM     10  C   UNL     1       3.141   2.040  18.786  0.00  0.00    +0.000 C 
ATOM     11  N   UNL     1       1.797   1.461  18.955  0.00  0.00    +0.000 NA
ATOM     12  C   UNL     1       1.035   2.112  20.048  0.00  0.00    +0.000 C 
ATOM     13  C   UNL     1       0.788   3.639  19.876  0.00  0.00    +0.000 C 
ATOM     14  H   UNL     1       1.291   1.584  18.079  0.00  0.00    +0.000 HD
ENDROOT
BRANCH   1  16
ATOM     15  O   UNL     1       7.902   4.221  16.709  0.00  0.00    +0.000 OA
ATOM     16  S   UNL     1       7.185   5.304  16.061  0.00  0.00    +0.000 S 
ATOM     17  O   UNL     1       7.801   6.612  15.915  0.00  0.00    +0.000 OA
BRANCH  16  18
ATOM     18  C   UNL     1       6.772   4.786  14.426  0.00  0.00    +0.000 A 
ATOM     19  C   UNL     1       5.622   4.019  14.219  0.00  0.00    +0.000 A 
ATOM     20  C   UNL     1       5.365   3.508  12.952  0.00  0.00    +0.000 A 
ATOM     21  C   UNL     1       6.248   3.768  11.903  0.00  0.00    +0.000 A 
ATOM     22  C   UNL     1       7.390   4.546  12.114  0.00  0.00    +0.000 A 
ATOM     23  C   UNL     1       7.661   5.054  13.381  0.00  0.00    +0.000 A 
ENDBRANCH  16  18
ENDBRANCH   1  16
BRANCH   3  24
ATOM     24  O   UNL     1       3.506   8.203  18.216  0.00  0.00    +0.000 OA
BRANCH  24  25
ATOM     25  C   UNL     1       2.123   8.432  17.961  0.00  0.00    +0.000 C 
ATOM     26  F   UNL     1       1.512   7.473  17.243  0.00  0.00    +0.000 F 
ATOM     27  F   UNL     1       1.485   8.510  19.155  0.00  0.00    +0.000 F 
ATOM     28  F   UNL     1       1.978   9.623  17.341  0.00  0.00    +0.000 F 
ENDBRANCH  24  25
ENDBRANCH   3  24
TORSDOF 4
ENDMDL
