MODEL 1
REMARK VINA RESULT:      -8.0      0.000      0.000
REMARK  Name = 
REMARK  12 active torsions:
REMARK  status: ('A' for Active; 'I' for Inactive)
REMARK    1  A    between atoms: C_1  and  O_2
REMARK    2  A    between atoms: O_2  and  C_3
REMARK    3  A    between atoms: C_7  and  O_8
REMARK    4  A    between atoms: C_9  and  C_10
REMARK    5  A    between atoms: C_10  and  C_11
REMARK    6  A    between atoms: C_12  and  C_13
REMARK    7  A    between atoms: C_12  and  C_14
REMARK    8  A    between atoms: C_14  and  C_15
REMARK    9  A    between atoms: C_15  and  C_16
REMARK   10  A    between atoms: C_17  and  C_18
REMARK   11  A    between atoms: C_17  and  C_19
REMARK   12  A    between atoms: C_19  and  O_21
REMARK                            x       y       z     vdW  Elec       q    Type
REMARK                         _______ _______ _______ _____ _____    ______ ____
ROOT
ATOM      1  C   UNL     1       3.398   6.387  17.720  0.00  0.00    +0.000 A 
ATOM      2  C   UNL     1       2.481   5.721  18.538  0.00  0.00    +0.000 A 
ATOM      3  C   UNL     1       2.535   4.343  18.584  0.00  0.00    +0.000 A 
ATOM      4  C   UNL     1       3.441   3.603  17.862  0.00  0.00    +0.000 A 
ATOM      5  C   UNL     1       4.393   4.247  17.094  0.00  0.00    +0.000 A 
ATOM      6  C   UNL     1       4.406   5.659  17.025  0.00  0.00    +0.000 A 
ATOM      7  C   UNL     1       3.193   2.173  18.126  0.00  0.00    +0.000 C 
ATOM      8  O   UNL     1       2.127   2.181  19.098  0.00  0.00    +0.000 OA
ATOM      9  C   UNL     1       1.714   3.450  19.385  0.00  0.00    +0.000 C 
ATOM     10  O   UNL     1       0.841   3.774  20.164  0.00  0.00    +0.000 OA
ENDROOT
BRANCH   1  12
ATOM     11  C   UNL     1       2.160   8.407  17.849  0.00  0.00    +0.000 C 
ATOM     12  O   UNL     1       3.404   7.755  17.590  0.00  0.00    +0.000 OA
ENDBRANCH   1  12
BRANCH   5  13
ATOM     13  O   UNL     1       5.353   3.529  16.441  0.00  0.00    +0.000 OA
ATOM     14  H   UNL     1       5.723   4.046  15.708  0.00  0.00    +0.000 HD
ENDBRANCH   5  13
BRANCH   6  15
ATOM     15  C   UNL     1       5.550   6.397  16.349  0.00  0.00    +0.000 C 
BRANCH  15  16
ATOM     16  C   UNL     1       6.438   7.246  17.222  0.00  0.00    +0.000 C 
ATOM     17  C   UNL     1       7.430   6.875  18.059  0.00  0.00    +0.000 C 
ATOM     18  C   UNL     1       7.691   5.441  18.445  0.00  0.00    +0.000 C 
BRANCH  17  19
ATOM     19  C   UNL     1       8.430   7.873  18.659  0.00  0.00    +0.000 C 
BRANCH  19  20
ATOM     20  C   UNL     1       8.296   9.311  18.127  0.00  0.00    +0.000 C 
BRANCH  20  21
ATOM     21  C   UNL     1       9.516  10.187  18.183  0.00  0.00    +0.000 C 
ATOM     22  C   UNL     1       9.481  11.512  17.900  0.00  0.00    +0.000 C 
ATOM     23  C   UNL     1       8.232  12.256  17.533  0.00  0.00    +0.000 C 
BRANCH  22  24
ATOM     24  C   UNL     1      10.763  12.267  18.049  0.00  0.00    +0.000 C 
ATOM     25  O   UNL     1      10.829  13.396  18.512  0.00  0.00    +0.000 OA
BRANCH  24  26
ATOM     26  O   UNL     1      11.854  11.602  17.620  0.00  0.00    +0.000 OA
ATOM     27  H   UNL     1      12.149  10.859  18.174  0.00  0.00    +0.000 HD
ENDBRANCH  24  26
ENDBRANCH  22  24
ENDBRANCH  20  21
ENDBRANCH  19  20
ENDBRANCH  17  19
ENDBRANCH  15  16
ENDBRANCH   6  15
TORSDOF 9
ENDMDL
MODEL 2
REMARK VINA RESULT:      -7.8      1.077      1.297
REMARK  Name = 
REMARK  12 active torsions:
REMARK  status: ('A' for Active; 'I' for Inactive)
REMARK    1  A    between atoms: C_1  and  O_2
REMARK    2  A    between atoms: O_2  and  C_3
REMARK    3  A    between atoms: C_7  and  O_8
REMARK    4  A    between atoms: C_9  and  C_10
REMARK    5  A    between atoms: C_10  and  C_11
REMARK    6  A    between atoms: C_12  and  C_13
REMARK    7  A    between atoms: C_12  and  C_14
REMARK    8  A    between atoms: C_14  and  C_15
REMARK    9  A    between atoms: C_15  and  C_16
REMARK   10  A    between atoms: C_17  and  C_18
REMARK   11  A    between atoms: C_17  and  C_19
REMARK   12  A    between atoms: C_19  and  O_21
REMARK                            x       y       z     vdW  Elec       q    Type
REMARK                         _______ _______ _______ _____ _____    ______ ____
ROOT
ATOM      1  C   UNL     1       3.215   6.413  18.001  0.00  0.00    +0.000 A 
ATOM      2  C   UNL     1       2.365   5.646  18.803  0.00  0.00    +0.000 A 
ATOM      3  C   UNL     1       2.378   4.276  18.635  0.00  0.00    +0.000 A 
ATOM      4  C   UNL     1       3.180   3.639  17.719  0.00  0.00    +0.000 A 
ATOM      5  C   UNL     1       4.070   4.376  16.960  0.00  0.00    +0.000 A 
ATOM      6  C   UNL     1       4.122   5.782  17.102  0.00  0.00    +0.000 A 
ATOM      7  C   UNL     1       2.913   2.190  17.791  0.00  0.00    +0.000 C 
ATOM      8  O   UNL     1       1.953   2.068  18.860  0.00  0.00    +0.000 OA
ATOM      9  C   UNL     1       1.614   3.285  19.377  0.00  0.00    +0.000 C 
ATOM     10  O   UNL     1       0.837   3.502  20.283  0.00  0.00    +0.000 OA
ENDROOT
BRANCH   1  12
ATOM     11  C   UNL     1       2.019   8.453  17.814  0.00  0.00    +0.000 C 
ATOM     12  O   UNL     1       3.252   7.784  18.078  0.00  0.00    +0.000 OA
ENDBRANCH   1  12
BRANCH   5  13
ATOM     13  O   UNL     1       4.933   3.750  16.109  0.00  0.00    +0.000 OA
ATOM     14  H   UNL     1       4.980   2.802  16.310  0.00  0.00    +0.000 HD
ENDBRANCH   5  13
BRANCH   6  15
ATOM     15  C   UNL     1       5.215   6.594  16.427  0.00  0.00    +0.000 C 
BRANCH  15  16
ATOM     16  C   UNL     1       6.264   7.214  17.314  0.00  0.00    +0.000 C 
ATOM     17  C   UNL     1       7.327   6.642  17.918  0.00  0.00    +0.000 C 
ATOM     18  C   UNL     1       7.534   5.150  17.984  0.00  0.00    +0.000 C 
BRANCH  17  19
ATOM     19  C   UNL     1       8.463   7.457  18.552  0.00  0.00    +0.000 C 
BRANCH  19  20
ATOM     20  C   UNL     1       8.399   8.969  18.273  0.00  0.00    +0.000 C 
BRANCH  20  21
ATOM     21  C   UNL     1       8.900   9.893  19.347  0.00  0.00    +0.000 C 
ATOM     22  C   UNL     1       9.780  10.894  19.101  0.00  0.00    +0.000 C 
ATOM     23  C   UNL     1      10.326  11.211  17.741  0.00  0.00    +0.000 C 
BRANCH  22  24
ATOM     24  C   UNL     1      10.148  11.767  20.258  0.00  0.00    +0.000 C 
ATOM     25  O   UNL     1      11.233  12.319  20.365  0.00  0.00    +0.000 OA
BRANCH  24  26
ATOM     26  O   UNL     1       9.183  11.893  21.189  0.00  0.00    +0.000 OA
ATOM     27  H   UNL     1       9.484  11.965  22.112  0.00  0.00    +0.000 HD
ENDBRANCH  24  26
ENDBRANCH  22  24
ENDBRANCH  20  21
ENDBRANCH  19  20
ENDBRANCH  17  19
ENDBRANCH  15  16
ENDBRANCH   6  15
TORSDOF 9
ENDMDL
MODEL 3
REMARK VINA RESULT:      -7.3      4.539      6.873
REMARK  Name = 
REMARK  12 active torsions:
REMARK  status: ('A' for Active; 'I' for Inactive)
REMARK    1  A    between atoms: C_1  and  O_2
REMARK    2  A    between atoms: O_2  and  C_3
REMARK    3  A    between atoms: C_7  and  O_8
REMARK    4  A    between atoms: C_9  and  C_10
REMARK    5  A    between atoms: C_10  and  C_11
REMARK    6  A    between atoms: C_12  and  C_13
REMARK    7  A    between atoms: C_12  and  C_14
REMARK    8  A    between atoms: C_14  and  C_15
REMARK    9  A    between atoms: C_15  and  C_16
REMARK   10  A    between atoms: C_17  and  C_18
REMARK   11  A    between atoms: C_17  and  C_19
REMARK   12  A    between atoms: C_19  and  O_21
REMARK                            x       y       z     vdW  Elec       q    Type
REMARK                         _______ _______ _______ _____ _____    ______ ____
ROOT
ATOM      1  C   UNL     1       4.034   5.653  17.456  0.00  0.00    +0.000 A 
ATOM      2  C   UNL     1       4.079   4.291  17.770  0.00  0.00    +0.000 A 
ATOM      3  C   UNL     1       3.530   3.884  18.968  0.00  0.00    +0.000 A 
ATOM      4  C   UNL     1       2.951   4.752  19.863  0.00  0.00    +0.000 A 
ATOM      5  C   UNL     1       2.845   6.093  19.543  0.00  0.00    +0.000 A 
ATOM      6  C   UNL     1       3.367   6.569  18.318  0.00  0.00    +0.000 A 
ATOM      7  C   UNL     1       2.502   3.982  21.038  0.00  0.00    +0.000 C 
ATOM      8  O   UNL     1       2.817   2.617  20.698  0.00  0.00    +0.000 OA
ATOM      9  C   UNL     1       3.430   2.527  19.482  0.00  0.00    +0.000 C 
ATOM     10  O   UNL     1       3.808   1.515  18.928  0.00  0.00    +0.000 OA
ENDROOT
BRANCH   1  12
ATOM     11  C   UNL     1       5.492   5.294  15.619  0.00  0.00    +0.000 C 
ATOM     12  O   UNL     1       4.578   6.155  16.298  0.00  0.00    +0.000 OA
ENDBRANCH   1  12
BRANCH   5  13
ATOM     13  O   UNL     1       2.195   6.952  20.381  0.00  0.00    +0.000 OA
ATOM     14  H   UNL     1       2.742   7.145  21.158  0.00  0.00    +0.000 HD
ENDBRANCH   5  13
BRANCH   6  15
ATOM     15  C   UNL     1       3.096   7.992  17.855  0.00  0.00    +0.000 C 
BRANCH  15  16
ATOM     16  C   UNL     1       1.685   8.506  17.988  0.00  0.00    +0.000 C 
ATOM     17  C   UNL     1       1.230   9.776  18.010  0.00  0.00    +0.000 C 
ATOM     18  C   UNL     1       2.137  10.975  18.126  0.00  0.00    +0.000 C 
BRANCH  17  19
ATOM     19  C   UNL     1      -0.256  10.131  17.860  0.00  0.00    +0.000 C 
BRANCH  19  20
ATOM     20  C   UNL     1      -1.010  10.304  19.190  0.00  0.00    +0.000 C 
BRANCH  20  21
ATOM     21  C   UNL     1      -0.397   9.692  20.418  0.00  0.00    +0.000 C 
ATOM     22  C   UNL     1      -0.005  10.429  21.487  0.00  0.00    +0.000 C 
ATOM     23  C   UNL     1      -0.163  11.917  21.579  0.00  0.00    +0.000 C 
BRANCH  22  24
ATOM     24  C   UNL     1       0.540   9.678  22.659  0.00  0.00    +0.000 C 
ATOM     25  O   UNL     1       1.653   9.174  22.676  0.00  0.00    +0.000 OA
BRANCH  24  26
ATOM     26  O   UNL     1      -0.304   9.591  23.706  0.00  0.00    +0.000 OA
ATOM     27  H   UNL     1      -1.226   9.365  23.495  0.00  0.00    +0.000 HD
ENDBRANCH  24  26
ENDBRANCH  22  24
ENDBRANCH  20  21
ENDBRANCH  19  20
ENDBRANCH  17  19
ENDBRANCH  15  16
ENDBRANCH   6  15
TORSDOF 9
ENDMDL
MODEL 4
REMARK VINA RESULT:      -7.3      4.083      6.911
REMARK  Name = 
REMARK  12 active torsions:
REMARK  status: ('A' for Active; 'I' for Inactive)
REMARK    1  A    between atoms: C_1  and  O_2
REMARK    2  A    between atoms: O_2  and  C_3
REMARK    3  A    between atoms: C_7  and  O_8
REMARK    4  A    between atoms: C_9  and  C_10
REMARK    5  A    between atoms: C_10  and  C_11
REMARK    6  A    between atoms: C_12  and  C_13
REMARK    7  A    between atoms: C_12  and  C_14
REMARK    8  A    between atoms: C_14  and  C_15
REMARK    9  A    between atoms: C_15  and  C_16
REMARK   10  A    between atoms: C_17  and  C_18
REMARK   11  A    between atoms: C_17  and  C_19
REMARK   12  A    between atoms: C_19  and  O_21
REMARK                            x       y       z     vdW  Elec       q    Type
REMARK                         _______ _______ _______ _____ _____    ______ ____
ROOT
ATOM      1  C   UNL     1       6.320   4.770  18.367  0.00  0.00    +0.000 A 
ATOM      2  C   UNL     1       7.026   5.085  17.203  0.00  0.00    +0.000 A 
ATOM      3  C   UNL     1       6.477   4.714  15.992  0.00  0.00    +0.000 A 
ATOM      4  C   UNL     1       5.279   4.050  15.882  0.00  0.00    +0.000 A 
ATOM      5  C   UNL     1       4.539   3.782  17.020  0.00  0.00    +0.000 A 
ATOM      6  C   UNL     1       5.036   4.159  18.289  0.00  0.00    +0.000 A 
ATOM      7  C   UNL     1       5.018   3.788  14.454  0.00  0.00    +0.000 C 
ATOM      8  O   UNL     1       6.127   4.415  13.780  0.00  0.00    +0.000 OA
ATOM      9  C   UNL     1       7.009   4.968  14.662  0.00  0.00    +0.000 C 
ATOM     10  O   UNL     1       8.032   5.565  14.395  0.00  0.00    +0.000 OA
ENDROOT
BRANCH   1  12
ATOM     11  C   UNL     1       8.027   5.804  19.650  0.00  0.00    +0.000 C 
ATOM     12  O   UNL     1       6.799   5.075  19.618  0.00  0.00    +0.000 OA
ENDBRANCH   1  12
BRANCH   5  13
ATOM     13  O   UNL     1       3.308   3.201  16.920  0.00  0.00    +0.000 OA
ATOM     14  H   UNL     1       2.650   3.715  17.415  0.00  0.00    +0.000 HD
ENDBRANCH   5  13
BRANCH   6  15
ATOM     15  C   UNL     1       4.164   4.053  19.530  0.00  0.00    +0.000 C 
BRANCH  15  16
ATOM     16  C   UNL     1       3.245   5.209  19.831  0.00  0.00    +0.000 C 
ATOM     17  C   UNL     1       1.984   5.203  20.312  0.00  0.00    +0.000 C 
ATOM     18  C   UNL     1       1.155   3.951  20.436  0.00  0.00    +0.000 C 
BRANCH  17  19
ATOM     19  C   UNL     1       1.287   6.467  20.835  0.00  0.00    +0.000 C 
BRANCH  19  20
ATOM     20  C   UNL     1       1.919   7.789  20.363  0.00  0.00    +0.000 C 
BRANCH  20  21
ATOM     21  C   UNL     1       1.008   8.975  20.206  0.00  0.00    +0.000 C 
ATOM     22  C   UNL     1       0.923   9.687  19.056  0.00  0.00    +0.000 C 
ATOM     23  C   UNL     1       1.695   9.361  17.812  0.00  0.00    +0.000 C 
BRANCH  22  24
ATOM     24  C   UNL     1      -0.065  10.808  19.030  0.00  0.00    +0.000 C 
ATOM     25  O   UNL     1      -1.274  10.638  18.986  0.00  0.00    +0.000 OA
BRANCH  24  26
ATOM     26  O   UNL     1       0.488  12.037  19.049  0.00  0.00    +0.000 OA
ATOM     27  H   UNL     1       0.456  12.534  18.213  0.00  0.00    +0.000 HD
ENDBRANCH  24  26
ENDBRANCH  22  24
ENDBRANCH  20  21
ENDBRANCH  19  20
ENDBRANCH  17  19
ENDBRANCH  15  16
ENDBRANCH   6  15
TORSDOF 9
ENDMDL
MODEL 5
REMARK VINA RESULT:      -7.2      1.825      2.653
REMARK  Name = 
REMARK  12 active torsions:
REMARK  status: ('A' for Active; 'I' for Inactive)
REMARK    1  A    between atoms: C_1  and  O_2
REMARK    2  A    between atoms: O_2  and  C_3
REMARK    3  A    between atoms: C_7  and  O_8
REMARK    4  A    between atoms: C_9  and  C_10
REMARK    5  A    between atoms: C_10  and  C_11
REMARK    6  A    between atoms: C_12  and  C_13
REMARK    7  A    between atoms: C_12  and  C_14
REMARK    8  A    between atoms: C_14  and  C_15
REMARK    9  A    between atoms: C_15  and  C_16
REMARK   10  A    between atoms: C_17  and  C_18
REMARK   11  A    between atoms: C_17  and  C_19
REMARK   12  A    between atoms: C_19  and  O_21
REMARK                            x       y       z     vdW  Elec       q    Type
REMARK                         _______ _______ _______ _____ _____    ______ ____
ROOT
ATOM      1  C   UNL     1       5.137   3.803  16.629  0.00  0.00    +0.000 A 
ATOM      2  C   UNL     1       3.816   3.406  16.856  0.00  0.00    +0.000 A 
ATOM      3  C   UNL     1       3.275   3.637  18.104  0.00  0.00    +0.000 A 
ATOM      4  C   UNL     1       3.974   4.231  19.127  0.00  0.00    +0.000 A 
ATOM      5  C   UNL     1       5.262   4.684  18.903  0.00  0.00    +0.000 A 
ATOM      6  C   UNL     1       5.864   4.499  17.637  0.00  0.00    +0.000 A 
ATOM      7  C   UNL     1       3.104   4.290  20.316  0.00  0.00    +0.000 C 
ATOM      8  O   UNL     1       1.851   3.745  19.855  0.00  0.00    +0.000 OA
ATOM      9  C   UNL     1       1.923   3.346  18.552  0.00  0.00    +0.000 C 
ATOM     10  O   UNL     1       1.032   2.855  17.889  0.00  0.00    +0.000 OA
ENDROOT
BRANCH   1  12
ATOM     11  C   UNL     1       5.419   4.491  14.376  0.00  0.00    +0.000 C 
ATOM     12  O   UNL     1       5.769   3.591  15.427  0.00  0.00    +0.000 OA
ENDBRANCH   1  12
BRANCH   5  13
ATOM     13  O   UNL     1       5.937   5.354  19.882  0.00  0.00    +0.000 OA
ATOM     14  H   UNL     1       5.314   5.778  20.493  0.00  0.00    +0.000 HD
ENDBRANCH   5  13
BRANCH   6  15
ATOM     15  C   UNL     1       7.196   5.152  17.304  0.00  0.00    +0.000 C 
BRANCH  15  16
ATOM     16  C   UNL     1       7.214   6.653  17.166  0.00  0.00    +0.000 C 
ATOM     17  C   UNL     1       7.838   7.579  17.925  0.00  0.00    +0.000 C 
ATOM     18  C   UNL     1       8.488   7.260  19.247  0.00  0.00    +0.000 C 
BRANCH  17  19
ATOM     19  C   UNL     1       7.998   9.042  17.489  0.00  0.00    +0.000 C 
BRANCH  19  20
ATOM     20  C   UNL     1       8.880   9.894  18.418  0.00  0.00    +0.000 C 
BRANCH  20  21
ATOM     21  C   UNL     1       9.500  11.135  17.838  0.00  0.00    +0.000 C 
ATOM     22  C   UNL     1      10.457  11.846  18.483  0.00  0.00    +0.000 C 
ATOM     23  C   UNL     1      11.024  11.467  19.818  0.00  0.00    +0.000 C 
BRANCH  22  24
ATOM     24  C   UNL     1      11.019  13.028  17.761  0.00  0.00    +0.000 C 
ATOM     25  O   UNL     1      12.217  13.217  17.609  0.00  0.00    +0.000 OA
BRANCH  24  26
ATOM     26  O   UNL     1      10.092  13.886  17.291  0.00  0.00    +0.000 OA
ATOM     27  H   UNL     1      10.392  14.509  16.607  0.00  0.00    +0.000 HD
ENDBRANCH  24  26
ENDBRANCH  22  24
ENDBRANCH  20  21
ENDBRANCH  19  20
ENDBRANCH  17  19
ENDBRANCH  15  16
ENDBRANCH   6  15
TORSDOF 9
ENDMDL
MODEL 6
REMARK VINA RESULT:      -7.2      1.137      1.308
REMARK  Name = 
REMARK  12 active torsions:
REMARK  status: ('A' for Active; 'I' for Inactive)
REMARK    1  A    between atoms: C_1  and  O_2
REMARK    2  A    between atoms: O_2  and  C_3
REMARK    3  A    between atoms: C_7  and  O_8
REMARK    4  A    between atoms: C_9  and  C_10
REMARK    5  A    between atoms: C_10  and  C_11
REMARK    6  A    between atoms: C_12  and  C_13
REMARK    7  A    between atoms: C_12  and  C_14
REMARK    8  A    between atoms: C_14  and  C_15
REMARK    9  A    between atoms: C_15  and  C_16
REMARK   10  A    between atoms: C_17  and  C_18
REMARK   11  A    between atoms: C_17  and  C_19
REMARK   12  A    between atoms: C_19  and  O_21
REMARK                            x       y       z     vdW  Elec       q    Type
REMARK                         _______ _______ _______ _____ _____    ______ ____
ROOT
ATOM      1  C   UNL     1       2.769   6.254  18.940  0.00  0.00    +0.000 A 
ATOM      2  C   UNL     1       2.107   5.348  19.774  0.00  0.00    +0.000 A 
ATOM      3  C   UNL     1       2.108   4.016  19.412  0.00  0.00    +0.000 A 
ATOM      4  C   UNL     1       2.720   3.546  18.276  0.00  0.00    +0.000 A 
ATOM      5  C   UNL     1       3.429   4.419  17.471  0.00  0.00    +0.000 A 
ATOM      6  C   UNL     1       3.487   5.793  17.800  0.00  0.00    +0.000 A 
ATOM      7  C   UNL     1       2.496   2.090  18.190  0.00  0.00    +0.000 C 
ATOM      8  O   UNL     1       1.770   1.781  19.397  0.00  0.00    +0.000 OA
ATOM      9  C   UNL     1       1.522   2.900  20.139  0.00  0.00    +0.000 C 
ATOM     10  O   UNL     1       0.938   2.957  21.201  0.00  0.00    +0.000 OA
ENDROOT
BRANCH   1  12
ATOM     11  C   UNL     1       1.543   8.276  19.132  0.00  0.00    +0.000 C 
ATOM     12  O   UNL     1       2.799   7.602  19.204  0.00  0.00    +0.000 OA
ENDBRANCH   1  12
BRANCH   5  13
ATOM     13  O   UNL     1       4.116   3.953  16.387  0.00  0.00    +0.000 OA
ATOM     14  H   UNL     1       5.071   4.048  16.524  0.00  0.00    +0.000 HD
ENDBRANCH   5  13
BRANCH   6  15
ATOM     15  C   UNL     1       4.411   6.737  17.048  0.00  0.00    +0.000 C 
BRANCH  15  16
ATOM     16  C   UNL     1       5.664   7.187  17.754  0.00  0.00    +0.000 C 
ATOM     17  C   UNL     1       6.947   6.822  17.548  0.00  0.00    +0.000 C 
ATOM     18  C   UNL     1       7.344   5.669  16.662  0.00  0.00    +0.000 C 
BRANCH  17  19
ATOM     19  C   UNL     1       8.136   7.582  18.152  0.00  0.00    +0.000 C 
BRANCH  19  20
ATOM     20  C   UNL     1       8.118   9.101  17.904  0.00  0.00    +0.000 C 
BRANCH  20  21
ATOM     21  C   UNL     1       9.088   9.942  18.687  0.00  0.00    +0.000 C 
ATOM     22  C   UNL     1       9.204  11.281  18.511  0.00  0.00    +0.000 C 
ATOM     23  C   UNL     1       8.369  12.074  17.551  0.00  0.00    +0.000 C 
BRANCH  22  24
ATOM     24  C   UNL     1      10.174  11.994  19.398  0.00  0.00    +0.000 C 
ATOM     25  O   UNL     1      10.707  11.475  20.367  0.00  0.00    +0.000 OA
BRANCH  24  26
ATOM     26  O   UNL     1      10.410  13.274  19.048  0.00  0.00    +0.000 OA
ATOM     27  H   UNL     1      10.505  13.447  18.095  0.00  0.00    +0.000 HD
ENDBRANCH  24  26
ENDBRANCH  22  24
ENDBRANCH  20  21
ENDBRANCH  19  20
ENDBRANCH  17  19
ENDBRANCH  15  16
ENDBRANCH   6  15
TORSDOF 9
ENDMDL
MODEL 7
REMARK VINA RESULT:      -7.1      1.632      1.895
REMARK  Name = 
REMARK  12 active torsions:
REMARK  status: ('A' for Active; 'I' for Inactive)
REMARK    1  A    between atoms: C_1  and  O_2
REMARK    2  A    between atoms: O_2  and  C_3
REMARK    3  A    between atoms: C_7  and  O_8
REMARK    4  A    between atoms: C_9  and  C_10
REMARK    5  A    between atoms: C_10  and  C_11
REMARK    6  A    between atoms: C_12  and  C_13
REMARK    7  A    between atoms: C_12  and  C_14
REMARK    8  A    between atoms: C_14  and  C_15
REMARK    9  A    between atoms: C_15  and  C_16
REMARK   10  A    between atoms: C_17  and  C_18
REMARK   11  A    between atoms: C_17  and  C_19
REMARK   12  A    between atoms: C_19  and  O_21
REMARK                            x       y       z     vdW  Elec       q    Type
REMARK                         _______ _______ _______ _____ _____    ______ ____
ROOT
ATOM      1  C   UNL     1       2.663   6.155  19.416  0.00  0.00    +0.000 A 
ATOM      2  C   UNL     1       2.172   5.238  20.350  0.00  0.00    +0.000 A 
ATOM      3  C   UNL     1       2.082   3.914  19.972  0.00  0.00    +0.000 A 
ATOM      4  C   UNL     1       2.445   3.462  18.726  0.00  0.00    +0.000 A 
ATOM      5  C   UNL     1       2.988   4.344  17.810  0.00  0.00    +0.000 A 
ATOM      6  C   UNL     1       3.129   5.711  18.146  0.00  0.00    +0.000 A 
ATOM      7  C   UNL     1       2.188   2.011  18.662  0.00  0.00    +0.000 C 
ATOM      8  O   UNL     1       1.718   1.684  19.986  0.00  0.00    +0.000 OA
ATOM      9  C   UNL     1       1.640   2.789  20.782  0.00  0.00    +0.000 C 
ATOM     10  O   UNL     1       1.285   2.830  21.942  0.00  0.00    +0.000 OA
ENDROOT
BRANCH   1  12
ATOM     11  C   UNL     1       1.528   8.204  19.794  0.00  0.00    +0.000 C 
ATOM     12  O   UNL     1       2.765   7.497  19.692  0.00  0.00    +0.000 OA
ENDBRANCH   1  12
BRANCH   5  13
ATOM     13  O   UNL     1       3.434   3.895  16.601  0.00  0.00    +0.000 OA
ATOM     14  H   UNL     1       2.750   3.362  16.165  0.00  0.00    +0.000 HD
ENDBRANCH   5  13
BRANCH   6  15
ATOM     15  C   UNL     1       3.894   6.661  17.239  0.00  0.00    +0.000 C 
BRANCH  15  16
ATOM     16  C   UNL     1       5.308   7.006  17.633  0.00  0.00    +0.000 C 
ATOM     17  C   UNL     1       6.438   6.280  17.505  0.00  0.00    +0.000 C 
ATOM     18  C   UNL     1       6.444   4.825  17.115  0.00  0.00    +0.000 C 
BRANCH  17  19
ATOM     19  C   UNL     1       7.839   6.882  17.689  0.00  0.00    +0.000 C 
BRANCH  19  20
ATOM     20  C   UNL     1       7.874   8.420  17.733  0.00  0.00    +0.000 C 
BRANCH  20  21
ATOM     21  C   UNL     1       8.698   9.063  18.814  0.00  0.00    +0.000 C 
ATOM     22  C   UNL     1       9.020  10.379  18.805  0.00  0.00    +0.000 C 
ATOM     23  C   UNL     1       8.574  11.342  17.745  0.00  0.00    +0.000 C 
BRANCH  22  24
ATOM     24  C   UNL     1       9.800  10.890  19.973  0.00  0.00    +0.000 C 
ATOM     25  O   UNL     1      10.756  11.642  19.867  0.00  0.00    +0.000 OA
BRANCH  24  26
ATOM     26  O   UNL     1       9.367  10.443  21.169  0.00  0.00    +0.000 OA
ATOM     27  H   UNL     1       9.793   9.636  21.505  0.00  0.00    +0.000 HD
ENDBRANCH  24  26
ENDBRANCH  22  24
ENDBRANCH  20  21
ENDBRANCH  19  20
ENDBRANCH  17  19
ENDBRANCH  15  16
ENDBRANCH   6  15
TORSDOF 9
ENDMDL
MODEL 8
REMARK VINA RESULT:      -7.1      0.977      1.248
REMARK  Name = 
REMARK  12 active torsions:
REMARK  status: ('A' for Active; 'I' for Inactive)
REMARK    1  A    between atoms: C_1  and  O_2
REMARK    2  A    between atoms: O_2  and  C_3
REMARK    3  A    between atoms: C_7  and  O_8
REMARK    4  A    between atoms: C_9  and  C_10
REMARK    5  A    between atoms: C_10  and  C_11
REMARK    6  A    between atoms: C_12  and  C_13
REMARK    7  A    between atoms: C_12  and  C_14
REMARK    8  A    between atoms: C_14  and  C_15
REMARK    9  A    between atoms: C_15  and  C_16
REMARK   10  A    between atoms: C_17  and  C_18
REMARK   11  A    between atoms: C_17  and  C_19
REMARK   12  A    between atoms: C_19  and  O_21
REMARK                            x       y       z     vdW  Elec       q    Type
REMARK                         _______ _______ _______ _____ _____    ______ ____
ROOT
ATOM      1  C   UNL     1       3.551   6.108  17.826  0.00  0.00    +0.000 A 
ATOM      2  C   UNL     1       2.565   5.627  18.692  0.00  0.00    +0.000 A 
ATOM      3  C   UNL     1       2.456   4.261  18.855  0.00  0.00    +0.000 A 
ATOM      4  C   UNL     1       3.264   3.360  18.205  0.00  0.00    +0.000 A 
ATOM      5  C   UNL     1       4.283   3.820  17.391  0.00  0.00    +0.000 A 
ATOM      6  C   UNL     1       4.462   5.209  17.202  0.00  0.00    +0.000 A 
ATOM      7  C   UNL     1       2.850   1.997  18.588  0.00  0.00    +0.000 C 
ATOM      8  O   UNL     1       1.796   2.214  19.549  0.00  0.00    +0.000 OA
ATOM      9  C   UNL     1       1.537   3.543  19.725  0.00  0.00    +0.000 C 
ATOM     10  O   UNL     1       0.712   4.034  20.468  0.00  0.00    +0.000 OA
ENDROOT
BRANCH   1  12
ATOM     11  C   UNL     1       2.529   8.239  17.620  0.00  0.00    +0.000 C 
ATOM     12  O   UNL     1       3.718   7.450  17.581  0.00  0.00    +0.000 OA
ENDBRANCH   1  12
BRANCH   5  13
ATOM     13  O   UNL     1       5.148   2.940  16.807  0.00  0.00    +0.000 OA
ATOM     14  H   UNL     1       4.809   2.652  15.946  0.00  0.00    +0.000 HD
ENDBRANCH   5  13
BRANCH   6  15
ATOM     15  C   UNL     1       5.684   5.746  16.473  0.00  0.00    +0.000 C 
BRANCH  15  16
ATOM     16  C   UNL     1       6.149   7.134  16.831  0.00  0.00    +0.000 C 
ATOM     17  C   UNL     1       7.170   7.522  17.624  0.00  0.00    +0.000 C 
ATOM     18  C   UNL     1       7.934   6.571  18.509  0.00  0.00    +0.000 C 
BRANCH  17  19
ATOM     19  C   UNL     1       7.695   8.964  17.660  0.00  0.00    +0.000 C 
BRANCH  19  20
ATOM     20  C   UNL     1       8.802   9.217  18.698  0.00  0.00    +0.000 C 
BRANCH  20  21
ATOM     21  C   UNL     1       9.605  10.480  18.561  0.00  0.00    +0.000 C 
ATOM     22  C   UNL     1       9.789  11.348  19.586  0.00  0.00    +0.000 C 
ATOM     23  C   UNL     1       9.245  11.136  20.967  0.00  0.00    +0.000 C 
BRANCH  22  24
ATOM     24  C   UNL     1      10.656  12.535  19.316  0.00  0.00    +0.000 C 
ATOM     25  O   UNL     1      10.913  12.939  18.192  0.00  0.00    +0.000 OA
BRANCH  24  26
ATOM     26  O   UNL     1      11.146  13.129  20.422  0.00  0.00    +0.000 OA
ATOM     27  H   UNL     1      10.525  13.689  20.919  0.00  0.00    +0.000 HD
ENDBRANCH  24  26
ENDBRANCH  22  24
ENDBRANCH  20  21
ENDBRANCH  19  20
ENDBRANCH  17  19
ENDBRANCH  15  16
ENDBRANCH   6  15
TORSDOF 9
ENDMDL
MODEL 9
REMARK VINA RESULT:      -7.0      4.204      6.769
REMARK  Name = 
REMARK  12 active torsions:
REMARK  status: ('A' for Active; 'I' for Inactive)
REMARK    1  A    between atoms: C_1  and  O_2
REMARK    2  A    between atoms: O_2  and  C_3
REMARK    3  A    between atoms: C_7  and  O_8
REMARK    4  A    between atoms: C_9  and  C_10
REMARK    5  A    between atoms: C_10  and  C_11
REMARK    6  A    between atoms: C_12  and  C_13
REMARK    7  A    between atoms: C_12  and  C_14
REMARK    8  A    between atoms: C_14  and  C_15
REMARK    9  A    between atoms: C_15  and  C_16
REMARK   10  A    between atoms: C_17  and  C_18
REMARK   11  A    between atoms: C_17  and  C_19
REMARK   12  A    between atoms: C_19  and  O_21
REMARK                            x       y       z     vdW  Elec       q    Type
REMARK                         _______ _______ _______ _____ _____    ______ ____
ROOT
ATOM      1  C   UNL     1       1.913   7.299  20.185  0.00  0.00    +0.000 A 
ATOM      2  C   UNL     1       1.156   8.013  21.118  0.00  0.00    +0.000 A 
ATOM      3  C   UNL     1       0.711   9.271  20.766  0.00  0.00    +0.000 A 
ATOM      4  C   UNL     1       0.982   9.850  19.549  0.00  0.00    +0.000 A 
ATOM      5  C   UNL     1       1.679   9.135  18.592  0.00  0.00    +0.000 A 
ATOM      6  C   UNL     1       2.142   7.831  18.884  0.00  0.00    +0.000 A 
ATOM      7  C   UNL     1       0.382  11.197  19.528  0.00  0.00    +0.000 C 
ATOM      8  O   UNL     1      -0.296  11.294  20.797  0.00  0.00    +0.000 OA
ATOM      9  C   UNL     1      -0.116  10.172  21.553  0.00  0.00    +0.000 C 
ATOM     10  O   UNL     1      -0.566   9.958  22.660  0.00  0.00    +0.000 OA
ENDROOT
BRANCH   1  12
ATOM     11  C   UNL     1       1.456   5.010  20.612  0.00  0.00    +0.000 C 
ATOM     12  O   UNL     1       2.421   6.052  20.456  0.00  0.00    +0.000 OA
ENDBRANCH   1  12
BRANCH   5  13
ATOM     13  O   UNL     1       1.881   9.662  17.350  0.00  0.00    +0.000 OA
ATOM     14  H   UNL     1       2.393  10.484  17.410  0.00  0.00    +0.000 HD
ENDBRANCH   5  13
BRANCH   6  15
ATOM     15  C   UNL     1       2.738   6.953  17.795  0.00  0.00    +0.000 C 
BRANCH  15  16
ATOM     16  C   UNL     1       4.194   7.157  17.463  0.00  0.00    +0.000 C 
ATOM     17  C   UNL     1       5.264   6.401  17.786  0.00  0.00    +0.000 C 
ATOM     18  C   UNL     1       5.204   5.267  18.778  0.00  0.00    +0.000 C 
BRANCH  17  19
ATOM     19  C   UNL     1       6.641   6.584  17.132  0.00  0.00    +0.000 C 
BRANCH  19  20
ATOM     20  C   UNL     1       7.306   5.277  16.664  0.00  0.00    +0.000 C 
BRANCH  20  21
ATOM     21  C   UNL     1       7.246   4.957  15.196  0.00  0.00    +0.000 C 
ATOM     22  C   UNL     1       6.275   4.181  14.654  0.00  0.00    +0.000 C 
ATOM     23  C   UNL     1       5.144   3.587  15.440  0.00  0.00    +0.000 C 
BRANCH  22  24
ATOM     24  C   UNL     1       6.313   3.992  13.172  0.00  0.00    +0.000 C 
ATOM     25  O   UNL     1       5.451   3.391  12.549  0.00  0.00    +0.000 OA
BRANCH  24  26
ATOM     26  O   UNL     1       7.389   4.534  12.569  0.00  0.00    +0.000 OA
ATOM     27  H   UNL     1       7.741   5.347  12.970  0.00  0.00    +0.000 HD
ENDBRANCH  24  26
ENDBRANCH  22  24
ENDBRANCH  20  21
ENDBRANCH  19  20
ENDBRANCH  17  19
ENDBRANCH  15  16
ENDBRANCH   6  15
TORSDOF 9
ENDMDL
