MODEL 1
REMARK VINA RESULT:      -8.9      0.000      0.000
REMARK  Name = 
REMARK  6 active torsions:
REMARK  status: ('A' for Active; 'I' for Inactive)
REMARK    1  A    between atoms: C_1  and  N_2
REMARK    2  A    between atoms: C_5  and  C_6
REMARK    3  A    between atoms: C_8  and  C_9
REMARK    4  A    between atoms: C_9  and  O_11
REMARK    5  A    between atoms: C_15  and  C_16
REMARK    6  A    between atoms: C_19  and  C_20
REMARK                            x       y       z     vdW  Elec       q    Type
REMARK                         _______ _______ _______ _____ _____    ______ ____
ROOT
ATOM      1  C   UNL     1       1.305   3.433  20.985  0.00  0.00    +0.000 C 
ATOM      2  N   UNL     1       2.649   3.432  20.460  0.00  0.00    +0.000 N 
ATOM      3  C   UNL     1       3.470   2.339  20.513  0.00  0.00    +0.000 A 
ATOM      4  N   UNL     1       4.604   2.551  19.891  0.00  0.00    +0.000 NA
ATOM      5  C   UNL     1       4.536   3.855  19.446  0.00  0.00    +0.000 A 
ATOM      6  C   UNL     1       3.305   4.443  19.769  0.00  0.00    +0.000 A 
ENDROOT
BRANCH   5   7
ATOM      7  C   UNL     1       5.636   4.457  18.695  0.00  0.00    +0.000 A 
ATOM      8  C   UNL     1       5.778   4.185  17.340  0.00  0.00    +0.000 A 
ATOM      9  C   UNL     1       6.774   4.863  16.635  0.00  0.00    +0.000 A 
ATOM     10  C   UNL     1       7.580   5.798  17.294  0.00  0.00    +0.000 A 
ATOM     11  C   UNL     1       7.382   5.980  18.643  0.00  0.00    +0.000 A 
ATOM     12  N   UNL     1       6.449   5.317  19.354  0.00  0.00    +0.000 NA
BRANCH   9  13
ATOM     13  C   UNL     1       6.973   4.696  15.176  0.00  0.00    +0.000 C 
ATOM     14  O   UNL     1       7.661   5.459  14.520  0.00  0.00    +0.000 OA
BRANCH  13  15
ATOM     15  O   UNL     1       6.366   3.614  14.650  0.00  0.00    +0.000 OA
ATOM     16  H   UNL     1       6.876   3.123  13.978  0.00  0.00    +0.000 HD
ENDBRANCH  13  15
ENDBRANCH   9  13
ENDBRANCH   5   7
BRANCH   6  17
ATOM     17  C   UNL     1       2.746   5.774  19.446  0.00  0.00    +0.000 A 
ATOM     18  C   UNL     1       2.766   6.254  18.127  0.00  0.00    +0.000 A 
ATOM     19  C   UNL     1       2.352   7.553  17.811  0.00  0.00    +0.000 A 
ATOM     20  C   UNL     1       1.835   8.393  18.801  0.00  0.00    +0.000 A 
ATOM     21  C   UNL     1       1.754   7.905  20.112  0.00  0.00    +0.000 A 
ATOM     22  C   UNL     1       2.229   6.625  20.431  0.00  0.00    +0.000 A 
BRANCH  20  23
ATOM     23  C   UNL     1       1.382   9.795  18.483  0.00  0.00    +0.000 C 
ATOM     24  F   UNL     1       0.240   9.847  17.742  0.00  0.00    +0.000 F 
ATOM     25  F   UNL     1       1.131  10.526  19.604  0.00  0.00    +0.000 F 
ATOM     26  F   UNL     1       2.313  10.498  17.780  0.00  0.00    +0.000 F 
ENDBRANCH  20  23
ENDBRANCH   6  17
TORSDOF 5
ENDMDL
MODEL 2
REMARK VINA RESULT:      -8.8      0.482      1.305
REMARK  Name = 
REMARK  6 active torsions:
REMARK  status: ('A' for Active; 'I' for Inactive)
REMARK    1  A    between atoms: C_1  and  N_2
REMARK    2  A    between atoms: C_5  and  C_6
REMARK    3  A    between atoms: C_8  and  C_9
REMARK    4  A    between atoms: C_9  and  O_11
REMARK    5  A    between atoms: C_15  and  C_16
REMARK    6  A    between atoms: C_19  and  C_20
REMARK                            x       y       z     vdW  Elec       q    Type
REMARK                         _______ _______ _______ _____ _____    ______ ____
ROOT
ATOM      1  C   UNL     1       0.736   3.542  20.319  0.00  0.00    +0.000 C 
ATOM      2  N   UNL     1       2.103   3.412  19.877  0.00  0.00    +0.000 N 
ATOM      3  C   UNL     1       2.760   2.213  19.824  0.00  0.00    +0.000 A 
ATOM      4  N   UNL     1       3.957   2.336  19.304  0.00  0.00    +0.000 NA
ATOM      5  C   UNL     1       4.102   3.683  19.042  0.00  0.00    +0.000 A 
ATOM      6  C   UNL     1       2.943   4.397  19.372  0.00  0.00    +0.000 A 
ENDROOT
BRANCH   5   7
ATOM      7  C   UNL     1       5.329   4.209  18.446  0.00  0.00    +0.000 A 
ATOM      8  C   UNL     1       5.548   4.073  17.080  0.00  0.00    +0.000 A 
ATOM      9  C   UNL     1       6.678   4.684  16.532  0.00  0.00    +0.000 A 
ATOM     10  C   UNL     1       7.537   5.421  17.354  0.00  0.00    +0.000 A 
ATOM     11  C   UNL     1       7.253   5.477  18.699  0.00  0.00    +0.000 A 
ATOM     12  N   UNL     1       6.187   4.871  19.259  0.00  0.00    +0.000 NA
BRANCH   9  13
ATOM     13  C   UNL     1       6.975   4.655  15.081  0.00  0.00    +0.000 C 
ATOM     14  O   UNL     1       7.713   5.467  14.550  0.00  0.00    +0.000 OA
BRANCH  13  15
ATOM     15  O   UNL     1       6.397   3.637  14.413  0.00  0.00    +0.000 OA
ATOM     16  H   UNL     1       7.006   3.019  13.968  0.00  0.00    +0.000 HD
ENDBRANCH  13  15
ENDBRANCH   9  13
ENDBRANCH   5   7
BRANCH   6  17
ATOM     17  C   UNL     1       2.598   5.827  19.206  0.00  0.00    +0.000 A 
ATOM     18  C   UNL     1       2.151   6.583  20.301  0.00  0.00    +0.000 A 
ATOM     19  C   UNL     1       1.708   7.902  20.151  0.00  0.00    +0.000 A 
ATOM     20  C   UNL     1       1.764   8.531  18.905  0.00  0.00    +0.000 A 
ATOM     21  C   UNL     1       2.265   7.807  17.816  0.00  0.00    +0.000 A 
ATOM     22  C   UNL     1       2.648   6.466  17.962  0.00  0.00    +0.000 A 
BRANCH  20  23
ATOM     23  C   UNL     1       1.294   9.952  18.721  0.00  0.00    +0.000 C 
ATOM     24  F   UNL     1       1.024  10.596  19.891  0.00  0.00    +0.000 F 
ATOM     25  F   UNL     1       2.212  10.723  18.076  0.00  0.00    +0.000 F 
ATOM     26  F   UNL     1       0.153  10.033  17.981  0.00  0.00    +0.000 F 
ENDBRANCH  20  23
ENDBRANCH   6  17
TORSDOF 5
ENDMDL
MODEL 3
REMARK VINA RESULT:      -8.4      0.774      1.521
REMARK  Name = 
REMARK  6 active torsions:
REMARK  status: ('A' for Active; 'I' for Inactive)
REMARK    1  A    between atoms: C_1  and  N_2
REMARK    2  A    between atoms: C_5  and  C_6
REMARK    3  A    between atoms: C_8  and  C_9
REMARK    4  A    between atoms: C_9  and  O_11
REMARK    5  A    between atoms: C_15  and  C_16
REMARK    6  A    between atoms: C_19  and  C_20
REMARK                            x       y       z     vdW  Elec       q    Type
REMARK                         _______ _______ _______ _____ _____    ______ ____
ROOT
ATOM      1  C   UNL     1       0.821   3.356  20.061  0.00  0.00    +0.000 C 
ATOM      2  N   UNL     1       2.163   3.318  19.534  0.00  0.00    +0.000 N 
ATOM      3  C   UNL     1       2.841   2.152  19.304  0.00  0.00    +0.000 A 
ATOM      4  N   UNL     1       4.004   2.368  18.739  0.00  0.00    +0.000 NA
ATOM      5  C   UNL     1       4.106   3.740  18.633  0.00  0.00    +0.000 A 
ATOM      6  C   UNL     1       2.953   4.379  19.108  0.00  0.00    +0.000 A 
ENDROOT
BRANCH   5   7
ATOM      7  C   UNL     1       5.287   4.367  18.041  0.00  0.00    +0.000 A 
ATOM      8  C   UNL     1       5.571   4.171  16.694  0.00  0.00    +0.000 A 
ATOM      9  C   UNL     1       6.644   4.873  16.141  0.00  0.00    +0.000 A 
ATOM     10  C   UNL     1       7.382   5.756  16.936  0.00  0.00    +0.000 A 
ATOM     11  C   UNL     1       7.042   5.864  18.265  0.00  0.00    +0.000 A 
ATOM     12  N   UNL     1       6.032   5.175  18.832  0.00  0.00    +0.000 NA
BRANCH   9  13
ATOM     13  C   UNL     1       6.997   4.787  14.705  0.00  0.00    +0.000 C 
ATOM     14  O   UNL     1       6.402   4.057  13.930  0.00  0.00    +0.000 OA
BRANCH  13  15
ATOM     15  O   UNL     1       7.995   5.608  14.324  0.00  0.00    +0.000 OA
ATOM     16  H   UNL     1       8.847   5.178  14.120  0.00  0.00    +0.000 HD
ENDBRANCH  13  15
ENDBRANCH   9  13
ENDBRANCH   5   7
BRANCH   6  17
ATOM     17  C   UNL     1       2.569   5.808  19.133  0.00  0.00    +0.000 A 
ATOM     18  C   UNL     1       2.119   6.403  20.322  0.00  0.00    +0.000 A 
ATOM     19  C   UNL     1       1.640   7.718  20.350  0.00  0.00    +0.000 A 
ATOM     20  C   UNL     1       1.663   8.505  19.196  0.00  0.00    +0.000 A 
ATOM     21  C   UNL     1       2.166   7.942  18.016  0.00  0.00    +0.000 A 
ATOM     22  C   UNL     1       2.586   6.604  17.983  0.00  0.00    +0.000 A 
BRANCH  20  23
ATOM     23  C   UNL     1       1.154   9.924  19.204  0.00  0.00    +0.000 C 
ATOM     24  F   UNL     1       1.756  10.728  18.284  0.00  0.00    +0.000 F 
ATOM     25  F   UNL     1      -0.181   9.997  18.944  0.00  0.00    +0.000 F 
ATOM     26  F   UNL     1       1.333  10.537  20.407  0.00  0.00    +0.000 F 
ENDBRANCH  20  23
ENDBRANCH   6  17
TORSDOF 5
ENDMDL
MODEL 4
REMARK VINA RESULT:      -8.3      2.053      2.670
REMARK  Name = 
REMARK  6 active torsions:
REMARK  status: ('A' for Active; 'I' for Inactive)
REMARK    1  A    between atoms: C_1  and  N_2
REMARK    2  A    between atoms: C_5  and  C_6
REMARK    3  A    between atoms: C_8  and  C_9
REMARK    4  A    between atoms: C_9  and  O_11
REMARK    5  A    between atoms: C_15  and  C_16
REMARK    6  A    between atoms: C_19  and  C_20
REMARK                            x       y       z     vdW  Elec       q    Type
REMARK                         _______ _______ _______ _____ _____    ______ ____
ROOT
ATOM      1  C   UNL     1       0.524   2.825  19.453  0.00  0.00    +0.000 C 
ATOM      2  N   UNL     1       1.870   2.854  18.933  0.00  0.00    +0.000 N 
ATOM      3  C   UNL     1       2.504   1.745  18.443  0.00  0.00    +0.000 A 
ATOM      4  N   UNL     1       3.680   2.037  17.944  0.00  0.00    +0.000 NA
ATOM      5  C   UNL     1       3.837   3.392  18.155  0.00  0.00    +0.000 A 
ATOM      6  C   UNL     1       2.704   3.951  18.762  0.00  0.00    +0.000 A 
ENDROOT
BRANCH   5   7
ATOM      7  C   UNL     1       5.047   4.089  17.723  0.00  0.00    +0.000 A 
ATOM      8  C   UNL     1       5.794   4.813  18.645  0.00  0.00    +0.000 A 
ATOM      9  C   UNL     1       7.000   5.373  18.218  0.00  0.00    +0.000 A 
ATOM     10  C   UNL     1       7.429   5.180  16.900  0.00  0.00    +0.000 A 
ATOM     11  C   UNL     1       6.608   4.471  16.053  0.00  0.00    +0.000 A 
ATOM     12  N   UNL     1       5.426   3.946  16.431  0.00  0.00    +0.000 NA
BRANCH   9  13
ATOM     13  C   UNL     1       7.904   6.111  19.131  0.00  0.00    +0.000 C 
ATOM     14  O   UNL     1       8.413   7.176  18.825  0.00  0.00    +0.000 OA
BRANCH  13  15
ATOM     15  O   UNL     1       8.080   5.529  20.334  0.00  0.00    +0.000 OA
ATOM     16  H   UNL     1       7.300   5.517  20.920  0.00  0.00    +0.000 HD
ENDBRANCH  13  15
ENDBRANCH   9  13
ENDBRANCH   5   7
BRANCH   6  17
ATOM     17  C   UNL     1       2.377   5.351  19.113  0.00  0.00    +0.000 A 
ATOM     18  C   UNL     1       1.943   5.677  20.408  0.00  0.00    +0.000 A 
ATOM     19  C   UNL     1       1.516   6.969  20.736  0.00  0.00    +0.000 A 
ATOM     20  C   UNL     1       1.576   7.996  19.791  0.00  0.00    +0.000 A 
ATOM     21  C   UNL     1       2.064   7.697  18.512  0.00  0.00    +0.000 A 
ATOM     22  C   UNL     1       2.431   6.387  18.174  0.00  0.00    +0.000 A 
BRANCH  20  23
ATOM     23  C   UNL     1       1.123   9.395  20.123  0.00  0.00    +0.000 C 
ATOM     24  F   UNL     1       1.585  10.342  19.259  0.00  0.00    +0.000 F 
ATOM     25  F   UNL     1      -0.234   9.516  20.115  0.00  0.00    +0.000 F 
ATOM     26  F   UNL     1       1.525   9.794  21.362  0.00  0.00    +0.000 F 
ENDBRANCH  20  23
ENDBRANCH   6  17
TORSDOF 5
ENDMDL
MODEL 5
REMARK VINA RESULT:      -8.3      1.597      2.124
REMARK  Name = 
REMARK  6 active torsions:
REMARK  status: ('A' for Active; 'I' for Inactive)
REMARK    1  A    between atoms: C_1  and  N_2
REMARK    2  A    between atoms: C_5  and  C_6
REMARK    3  A    between atoms: C_8  and  C_9
REMARK    4  A    between atoms: C_9  and  O_11
REMARK    5  A    between atoms: C_15  and  C_16
REMARK    6  A    between atoms: C_19  and  C_20
REMARK                            x       y       z     vdW  Elec       q    Type
REMARK                         _______ _______ _______ _____ _____    ______ ____
ROOT
ATOM      1  C   UNL     1       1.515   3.627  21.171  0.00  0.00    +0.000 C 
ATOM      2  N   UNL     1       2.745   3.624  20.417  0.00  0.00    +0.000 N 
ATOM      3  C   UNL     1       3.563   2.531  20.329  0.00  0.00    +0.000 A 
ATOM      4  N   UNL     1       4.569   2.741  19.515  0.00  0.00    +0.000 NA
ATOM      5  C   UNL     1       4.422   4.043  19.084  0.00  0.00    +0.000 A 
ATOM      6  C   UNL     1       3.268   4.632  19.617  0.00  0.00    +0.000 A 
ENDROOT
BRANCH   5   7
ATOM      7  C   UNL     1       5.372   4.641  18.147  0.00  0.00    +0.000 A 
ATOM      8  C   UNL     1       6.061   5.794  18.504  0.00  0.00    +0.000 A 
ATOM      9  C   UNL     1       7.038   6.273  17.628  0.00  0.00    +0.000 A 
ATOM     10  C   UNL     1       7.307   5.582  16.442  0.00  0.00    +0.000 A 
ATOM     11  C   UNL     1       6.555   4.464  16.162  0.00  0.00    +0.000 A 
ATOM     12  N   UNL     1       5.585   3.999  16.975  0.00  0.00    +0.000 NA
BRANCH   9  13
ATOM     13  C   UNL     1       7.874   7.456  17.936  0.00  0.00    +0.000 C 
ATOM     14  O   UNL     1       7.862   8.461  17.246  0.00  0.00    +0.000 OA
BRANCH  13  15
ATOM     15  O   UNL     1       8.611   7.343  19.059  0.00  0.00    +0.000 OA
ATOM     16  H   UNL     1       8.116   7.371  19.899  0.00  0.00    +0.000 HD
ENDBRANCH  13  15
ENDBRANCH   9  13
ENDBRANCH   5   7
BRANCH   6  17
ATOM     17  C   UNL     1       2.659   5.962  19.392  0.00  0.00    +0.000 A 
ATOM     18  C   UNL     1       2.586   6.502  18.098  0.00  0.00    +0.000 A 
ATOM     19  C   UNL     1       2.123   7.804  17.871  0.00  0.00    +0.000 A 
ATOM     20  C   UNL     1       1.651   8.583  18.930  0.00  0.00    +0.000 A 
ATOM     21  C   UNL     1       1.663   8.034  20.218  0.00  0.00    +0.000 A 
ATOM     22  C   UNL     1       2.186   6.753  20.446  0.00  0.00    +0.000 A 
BRANCH  20  23
ATOM     23  C   UNL     1       1.147   9.987  18.707  0.00  0.00    +0.000 C 
ATOM     24  F   UNL     1       0.945  10.686  19.858  0.00  0.00    +0.000 F 
ATOM     25  F   UNL     1       2.008  10.735  17.963  0.00  0.00    +0.000 F 
ATOM     26  F   UNL     1      -0.041  10.015  18.041  0.00  0.00    +0.000 F 
ENDBRANCH  20  23
ENDBRANCH   6  17
TORSDOF 5
ENDMDL
MODEL 6
REMARK VINA RESULT:      -8.2      1.813      2.443
REMARK  Name = 
REMARK  6 active torsions:
REMARK  status: ('A' for Active; 'I' for Inactive)
REMARK    1  A    between atoms: C_1  and  N_2
REMARK    2  A    between atoms: C_5  and  C_6
REMARK    3  A    between atoms: C_8  and  C_9
REMARK    4  A    between atoms: C_9  and  O_11
REMARK    5  A    between atoms: C_15  and  C_16
REMARK    6  A    between atoms: C_19  and  C_20
REMARK                            x       y       z     vdW  Elec       q    Type
REMARK                         _______ _______ _______ _____ _____    ______ ____
ROOT
ATOM      1  C   UNL     1       0.936   3.366  19.959  0.00  0.00    +0.000 C 
ATOM      2  N   UNL     1       2.196   3.344  19.258  0.00  0.00    +0.000 N 
ATOM      3  C   UNL     1       2.837   2.186  18.911  0.00  0.00    +0.000 A 
ATOM      4  N   UNL     1       3.914   2.418  18.203  0.00  0.00    +0.000 NA
ATOM      5  C   UNL     1       4.003   3.793  18.117  0.00  0.00    +0.000 A 
ATOM      6  C   UNL     1       2.923   4.417  18.756  0.00  0.00    +0.000 A 
ENDROOT
BRANCH   5   7
ATOM      7  C   UNL     1       5.094   4.437  17.389  0.00  0.00    +0.000 A 
ATOM      8  C   UNL     1       5.761   5.517  17.955  0.00  0.00    +0.000 A 
ATOM      9  C   UNL     1       6.867   6.035  17.277  0.00  0.00    +0.000 A 
ATOM     10  C   UNL     1       7.282   5.451  16.076  0.00  0.00    +0.000 A 
ATOM     11  C   UNL     1       6.543   4.402  15.580  0.00  0.00    +0.000 A 
ATOM     12  N   UNL     1       5.454   3.903  16.197  0.00  0.00    +0.000 NA
BRANCH   9  13
ATOM     13  C   UNL     1       7.686   7.144  17.819  0.00  0.00    +0.000 C 
ATOM     14  O   UNL     1       7.733   8.240  17.288  0.00  0.00    +0.000 OA
BRANCH  13  15
ATOM     15  O   UNL     1       8.335   6.852  18.964  0.00  0.00    +0.000 OA
ATOM     16  H   UNL     1       8.011   6.072  19.452  0.00  0.00    +0.000 HD
ENDBRANCH  13  15
ENDBRANCH   9  13
ENDBRANCH   5   7
BRANCH   6  17
ATOM     17  C   UNL     1       2.547   5.844  18.867  0.00  0.00    +0.000 A 
ATOM     18  C   UNL     1       2.250   6.406  20.119  0.00  0.00    +0.000 A 
ATOM     19  C   UNL     1       1.780   7.719  20.241  0.00  0.00    +0.000 A 
ATOM     20  C   UNL     1       1.659   8.536  19.114  0.00  0.00    +0.000 A 
ATOM     21  C   UNL     1       2.009   8.005  17.866  0.00  0.00    +0.000 A 
ATOM     22  C   UNL     1       2.420   6.670  17.745  0.00  0.00    +0.000 A 
BRANCH  20  23
ATOM     23  C   UNL     1       1.156   9.953  19.223  0.00  0.00    +0.000 C 
ATOM     24  F   UNL     1       1.141  10.434  20.497  0.00  0.00    +0.000 F 
ATOM     25  F   UNL     1       1.913  10.828  18.504  0.00  0.00    +0.000 F 
ATOM     26  F   UNL     1      -0.117  10.093  18.758  0.00  0.00    +0.000 F 
ENDBRANCH  20  23
ENDBRANCH   6  17
TORSDOF 5
ENDMDL
MODEL 7
REMARK VINA RESULT:      -7.9      2.291      2.830
REMARK  Name = 
REMARK  6 active torsions:
REMARK  status: ('A' for Active; 'I' for Inactive)
REMARK    1  A    between atoms: C_1  and  N_2
REMARK    2  A    between atoms: C_5  and  C_6
REMARK    3  A    between atoms: C_8  and  C_9
REMARK    4  A    between atoms: C_9  and  O_11
REMARK    5  A    between atoms: C_15  and  C_16
REMARK    6  A    between atoms: C_19  and  C_20
REMARK                            x       y       z     vdW  Elec       q    Type
REMARK                         _______ _______ _______ _____ _____    ______ ____
ROOT
ATOM      1  C   UNL     1       0.648   2.522  19.076  0.00  0.00    +0.000 C 
ATOM      2  N   UNL     1       1.969   2.797  18.564  0.00  0.00    +0.000 N 
ATOM      3  C   UNL     1       2.700   1.882  17.857  0.00  0.00    +0.000 A 
ATOM      4  N   UNL     1       3.826   2.391  17.420  0.00  0.00    +0.000 NA
ATOM      5  C   UNL     1       3.848   3.686  17.897  0.00  0.00    +0.000 A 
ATOM      6  C   UNL     1       2.680   3.989  18.611  0.00  0.00    +0.000 A 
ENDROOT
BRANCH   5   7
ATOM      7  C   UNL     1       4.967   4.580  17.607  0.00  0.00    +0.000 A 
ATOM      8  C   UNL     1       5.887   4.883  18.603  0.00  0.00    +0.000 A 
ATOM      9  C   UNL     1       7.001   5.651  18.257  0.00  0.00    +0.000 A 
ATOM     10  C   UNL     1       7.169   6.076  16.935  0.00  0.00    +0.000 A 
ATOM     11  C   UNL     1       6.191   5.750  16.024  0.00  0.00    +0.000 A 
ATOM     12  N   UNL     1       5.092   5.036  16.337  0.00  0.00    +0.000 NA
BRANCH   9  13
ATOM     13  C   UNL     1       8.074   5.980  19.224  0.00  0.00    +0.000 C 
ATOM     14  O   UNL     1       8.487   5.173  20.039  0.00  0.00    +0.000 OA
BRANCH  13  15
ATOM     15  O   UNL     1       8.578   7.224  19.099  0.00  0.00    +0.000 OA
ATOM     16  H   UNL     1       9.459   7.287  18.683  0.00  0.00    +0.000 HD
ENDBRANCH  13  15
ENDBRANCH   9  13
ENDBRANCH   5   7
BRANCH   6  17
ATOM     17  C   UNL     1       2.220   5.248  19.238  0.00  0.00    +0.000 A 
ATOM     18  C   UNL     1       2.364   6.472  18.566  0.00  0.00    +0.000 A 
ATOM     19  C   UNL     1       2.045   7.689  19.180  0.00  0.00    +0.000 A 
ATOM     20  C   UNL     1       1.504   7.713  20.468  0.00  0.00    +0.000 A 
ATOM     21  C   UNL     1       1.299   6.494  21.126  0.00  0.00    +0.000 A 
ATOM     22  C   UNL     1       1.679   5.283  20.528  0.00  0.00    +0.000 A 
BRANCH  20  23
ATOM     23  C   UNL     1       1.152   9.012  21.147  0.00  0.00    +0.000 C 
ATOM     24  F   UNL     1       1.249  10.100  20.333  0.00  0.00    +0.000 F 
ATOM     25  F   UNL     1      -0.123   9.018  21.625  0.00  0.00    +0.000 F 
ATOM     26  F   UNL     1       1.952   9.275  22.217  0.00  0.00    +0.000 F 
ENDBRANCH  20  23
ENDBRANCH   6  17
TORSDOF 5
ENDMDL
MODEL 8
REMARK VINA RESULT:      -7.7      1.046      1.398
REMARK  Name = 
REMARK  6 active torsions:
REMARK  status: ('A' for Active; 'I' for Inactive)
REMARK    1  A    between atoms: C_1  and  N_2
REMARK    2  A    between atoms: C_5  and  C_6
REMARK    3  A    between atoms: C_8  and  C_9
REMARK    4  A    between atoms: C_9  and  O_11
REMARK    5  A    between atoms: C_15  and  C_16
REMARK    6  A    between atoms: C_19  and  C_20
REMARK                            x       y       z     vdW  Elec       q    Type
REMARK                         _______ _______ _______ _____ _____    ______ ____
ROOT
ATOM      1  C   UNL     1       1.019   2.630  19.958  0.00  0.00    +0.000 C 
ATOM      2  N   UNL     1       2.329   2.784  19.376  0.00  0.00    +0.000 N 
ATOM      3  C   UNL     1       3.107   1.723  18.998  0.00  0.00    +0.000 A 
ATOM      4  N   UNL     1       4.212   2.114  18.411  0.00  0.00    +0.000 NA
ATOM      5  C   UNL     1       4.172   3.493  18.444  0.00  0.00    +0.000 A 
ATOM      6  C   UNL     1       2.987   3.958  19.029  0.00  0.00    +0.000 A 
ENDROOT
BRANCH   5   7
ATOM      7  C   UNL     1       5.252   4.294  17.871  0.00  0.00    +0.000 A 
ATOM      8  C   UNL     1       5.647   4.083  16.555  0.00  0.00    +0.000 A 
ATOM      9  C   UNL     1       6.605   4.941  16.011  0.00  0.00    +0.000 A 
ATOM     10  C   UNL     1       7.123   5.985  16.785  0.00  0.00    +0.000 A 
ATOM     11  C   UNL     1       6.691   6.098  18.086  0.00  0.00    +0.000 A 
ATOM     12  N   UNL     1       5.790   5.266  18.645  0.00  0.00    +0.000 NA
BRANCH   9  13
ATOM     13  C   UNL     1       7.053   4.845  14.602  0.00  0.00    +0.000 C 
ATOM     14  O   UNL     1       6.495   4.129  13.788  0.00  0.00    +0.000 OA
BRANCH  13  15
ATOM     15  O   UNL     1       8.094   5.642  14.290  0.00  0.00    +0.000 OA
ATOM     16  H   UNL     1       8.295   5.729  13.340  0.00  0.00    +0.000 HD
ENDBRANCH  13  15
ENDBRANCH   9  13
ENDBRANCH   5   7
BRANCH   6  17
ATOM     17  C   UNL     1       2.465   5.330  19.217  0.00  0.00    +0.000 A 
ATOM     18  C   UNL     1       2.512   6.260  18.167  0.00  0.00    +0.000 A 
ATOM     19  C   UNL     1       2.135   7.595  18.350  0.00  0.00    +0.000 A 
ATOM     20  C   UNL     1       1.630   8.026  19.580  0.00  0.00    +0.000 A 
ATOM     21  C   UNL     1       1.521   7.093  20.619  0.00  0.00    +0.000 A 
ATOM     22  C   UNL     1       1.960   5.773  20.445  0.00  0.00    +0.000 A 
BRANCH  20  23
ATOM     23  C   UNL     1       1.216   9.459  19.799  0.00  0.00    +0.000 C 
ATOM     24  F   UNL     1       1.715  10.322  18.870  0.00  0.00    +0.000 F 
ATOM     25  F   UNL     1      -0.136   9.619  19.767  0.00  0.00    +0.000 F 
ATOM     26  F   UNL     1       1.619   9.940  21.008  0.00  0.00    +0.000 F 
ENDBRANCH  20  23
ENDBRANCH   6  17
TORSDOF 5
ENDMDL
MODEL 9
REMARK VINA RESULT:      -7.4      2.958      4.797
REMARK  Name = 
REMARK  6 active torsions:
REMARK  status: ('A' for Active; 'I' for Inactive)
REMARK    1  A    between atoms: C_1  and  N_2
REMARK    2  A    between atoms: C_5  and  C_6
REMARK    3  A    between atoms: C_8  and  C_9
REMARK    4  A    between atoms: C_9  and  O_11
REMARK    5  A    between atoms: C_15  and  C_16
REMARK    6  A    between atoms: C_19  and  C_20
REMARK                            x       y       z     vdW  Elec       q    Type
REMARK                         _______ _______ _______ _____ _____    ______ ____
ROOT
ATOM      1  C   UNL     1       6.650   7.835  17.334  0.00  0.00    +0.000 C 
ATOM      2  N   UNL     1       6.176   6.481  17.488  0.00  0.00    +0.000 N 
ATOM      3  C   UNL     1       6.981   5.386  17.327  0.00  0.00    +0.000 A 
ATOM      4  N   UNL     1       6.351   4.272  17.609  0.00  0.00    +0.000 NA
ATOM      5  C   UNL     1       5.064   4.655  17.929  0.00  0.00    +0.000 A 
ATOM      6  C   UNL     1       4.917   6.048  17.883  0.00  0.00    +0.000 A 
ENDROOT
BRANCH   5   7
ATOM      7  C   UNL     1       4.053   3.668  18.306  0.00  0.00    +0.000 A 
ATOM      8  C   UNL     1       3.636   3.576  19.628  0.00  0.00    +0.000 A 
ATOM      9  C   UNL     1       2.593   2.698  19.929  0.00  0.00    +0.000 A 
ATOM     10  C   UNL     1       1.990   1.958  18.906  0.00  0.00    +0.000 A 
ATOM     11  C   UNL     1       2.489   2.097  17.631  0.00  0.00    +0.000 A 
ATOM     12  N   UNL     1       3.515   2.913  17.319  0.00  0.00    +0.000 NA
BRANCH   9  13
ATOM     13  C   UNL     1       2.029   2.567  21.292  0.00  0.00    +0.000 C 
ATOM     14  O   UNL     1       2.715   2.271  22.256  0.00  0.00    +0.000 OA
BRANCH  13  15
ATOM     15  O   UNL     1       0.713   2.842  21.382  0.00  0.00    +0.000 OA
ATOM     16  H   UNL     1       0.285   3.157  20.563  0.00  0.00    +0.000 HD
ENDBRANCH  13  15
ENDBRANCH   9  13
ENDBRANCH   5   7
BRANCH   6  17
ATOM     17  C   UNL     1       3.766   6.918  18.212  0.00  0.00    +0.000 A 
ATOM     18  C   UNL     1       3.314   7.877  17.292  0.00  0.00    +0.000 A 
ATOM     19  C   UNL     1       2.305   8.791  17.619  0.00  0.00    +0.000 A 
ATOM     20  C   UNL     1       1.666   8.726  18.860  0.00  0.00    +0.000 A 
ATOM     21  C   UNL     1       2.067   7.735  19.765  0.00  0.00    +0.000 A 
ATOM     22  C   UNL     1       3.121   6.864  19.453  0.00  0.00    +0.000 A 
BRANCH  20  23
ATOM     23  C   UNL     1       0.576   9.699  19.233  0.00  0.00    +0.000 C 
ATOM     24  F   UNL     1       1.039  10.931  19.588  0.00  0.00    +0.000 F 
ATOM     25  F   UNL     1      -0.300   9.911  18.213  0.00  0.00    +0.000 F 
ATOM     26  F   UNL     1      -0.174   9.266  20.284  0.00  0.00    +0.000 F 
ENDBRANCH  20  23
ENDBRANCH   6  17
TORSDOF 5
ENDMDL
