MODEL 1
REMARK VINA RESULT:      -8.1      0.000      0.000
REMARK  Name = 
REMARK  4 active torsions:
REMARK  status: ('A' for Active; 'I' for Inactive)
REMARK    1  A    between atoms: O_1  and  C_2
REMARK    2  A    between atoms: C_6  and  C_7
REMARK    3  A    between atoms: C_9  and  C_10
REMARK    4  A    between atoms: C_24  and  O_25
REMARK                            x       y       z     vdW  Elec       q    Type
REMARK                         _______ _______ _______ _____ _____    ______ ____
ROOT
ATOM      1  C   UNL     1      -0.758  10.888  18.143  0.00  0.00    +0.000 A 
ATOM      2  C   UNL     1      -0.055   9.675  18.002  0.00  0.00    +0.000 A 
ATOM      3  C   UNL     1       1.316   9.597  18.270  0.00  0.00    +0.000 A 
ATOM      4  N   UNL     1       2.081  10.712  18.366  0.00  0.00    +0.000 NA
ATOM      5  C   UNL     1       1.402  11.850  18.494  0.00  0.00    +0.000 A 
ATOM      6  C   UNL     1       0.009  11.953  18.591  0.00  0.00    +0.000 A 
ATOM      7  C   UNL     1      -0.323  13.264  19.267  0.00  0.00    +0.000 C 
ATOM      8  C   UNL     1       1.005  14.009  19.202  0.00  0.00    +0.000 A 
ATOM      9  C   UNL     1       1.314  15.315  19.537  0.00  0.00    +0.000 A 
ATOM     10  C   UNL     1       2.576  15.803  19.175  0.00  0.00    +0.000 A 
ATOM     11  C   UNL     1       3.487  14.980  18.491  0.00  0.00    +0.000 A 
ATOM     12  C   UNL     1       3.218  13.637  18.261  0.00  0.00    +0.000 A 
ATOM     13  C   UNL     1       1.986  13.154  18.664  0.00  0.00    +0.000 A 
ENDROOT
BRANCH   3  14
ATOM     14  C   UNL     1       2.033   8.329  18.546  0.00  0.00    +0.000 A 
ATOM     15  C   UNL     1       2.956   7.848  17.590  0.00  0.00    +0.000 A 
ATOM     16  C   UNL     1       3.708   6.693  17.804  0.00  0.00    +0.000 A 
ATOM     17  C   UNL     1       3.560   5.974  18.985  0.00  0.00    +0.000 A 
ATOM     18  C   UNL     1       2.682   6.437  19.960  0.00  0.00    +0.000 A 
ATOM     19  C   UNL     1       1.942   7.608  19.759  0.00  0.00    +0.000 A 
ATOM     20 CL   UNL     1       1.018   8.138  21.130  0.00  0.00    +0.000 Cl
ENDBRANCH   3  14
BRANCH   1  25
ATOM     21  C   UNL     1      -3.967  10.820  16.099  0.00  0.00    +0.000 A 
ATOM     22  C   UNL     1      -4.892  11.358  16.986  0.00  0.00    +0.000 A 
ATOM     23  C   UNL     1      -4.465  11.742  18.252  0.00  0.00    +0.000 A 
ATOM     24  C   UNL     1      -3.127  11.570  18.624  0.00  0.00    +0.000 A 
ATOM     25  C   UNL     1      -2.182  10.989  17.753  0.00  0.00    +0.000 A 
ATOM     26  C   UNL     1      -2.635  10.637  16.468  0.00  0.00    +0.000 A 
BRANCH  21  27
ATOM     27  O   UNL     1      -4.327  10.459  14.835  0.00  0.00    +0.000 OA
ATOM     28  H   UNL     1      -5.267  10.671  14.706  0.00  0.00    +0.000 HD
ENDBRANCH  21  27
ENDBRANCH   1  25
BRANCH  11  29
ATOM     29  O   UNL     1       4.659  15.482  18.008  0.00  0.00    +0.000 OA
ATOM     30  H   UNL     1       4.834  15.083  17.140  0.00  0.00    +0.000 HD
ENDBRANCH  11  29
TORSDOF 4
ENDMDL
MODEL 2
REMARK VINA RESULT:      -8.0      1.050      1.385
REMARK  Name = 
REMARK  4 active torsions:
REMARK  status: ('A' for Active; 'I' for Inactive)
REMARK    1  A    between atoms: O_1  and  C_2
REMARK    2  A    between atoms: C_6  and  C_7
REMARK    3  A    between atoms: C_9  and  C_10
REMARK    4  A    between atoms: C_24  and  O_25
REMARK                            x       y       z     vdW  Elec       q    Type
REMARK                         _______ _______ _______ _____ _____    ______ ____
ROOT
ATOM      1  C   UNL     1      -0.921  11.267  18.304  0.00  0.00    +0.000 A 
ATOM      2  C   UNL     1      -0.276  10.020  18.171  0.00  0.00    +0.000 A 
ATOM      3  C   UNL     1       1.098   9.888  18.395  0.00  0.00    +0.000 A 
ATOM      4  N   UNL     1       1.914  10.971  18.438  0.00  0.00    +0.000 NA
ATOM      5  C   UNL     1       1.290  12.140  18.560  0.00  0.00    +0.000 A 
ATOM      6  C   UNL     1      -0.094  12.307  18.700  0.00  0.00    +0.000 A 
ATOM      7  C   UNL     1      -0.345  13.647  19.354  0.00  0.00    +0.000 C 
ATOM      8  C   UNL     1       1.011  14.331  19.226  0.00  0.00    +0.000 A 
ATOM      9  C   UNL     1       1.386  15.629  19.519  0.00  0.00    +0.000 A 
ATOM     10  C   UNL     1       2.656  16.053  19.104  0.00  0.00    +0.000 A 
ATOM     11  C   UNL     1       3.506  15.175  18.411  0.00  0.00    +0.000 A 
ATOM     12  C   UNL     1       3.173  13.840  18.224  0.00  0.00    +0.000 A 
ATOM     13  C   UNL     1       1.935  13.421  18.678  0.00  0.00    +0.000 A 
ENDROOT
BRANCH   3  14
ATOM     14  C   UNL     1       1.769   8.597  18.679  0.00  0.00    +0.000 A 
ATOM     15  C   UNL     1       2.653   8.063  17.714  0.00  0.00    +0.000 A 
ATOM     16  C   UNL     1       3.360   6.882  17.934  0.00  0.00    +0.000 A 
ATOM     17  C   UNL     1       3.207   6.190  19.129  0.00  0.00    +0.000 A 
ATOM     18  C   UNL     1       2.369   6.704  20.113  0.00  0.00    +0.000 A 
ATOM     19  C   UNL     1       1.673   7.901  19.906  0.00  0.00    +0.000 A 
ATOM     20 CL   UNL     1       0.799   8.491  21.285  0.00  0.00    +0.000 Cl
ENDBRANCH   3  14
BRANCH   1  25
ATOM     21  C   UNL     1      -4.674  11.830  18.582  0.00  0.00    +0.000 A 
ATOM     22  C   UNL     1      -5.111  11.541  17.295  0.00  0.00    +0.000 A 
ATOM     23  C   UNL     1      -4.177  11.162  16.337  0.00  0.00    +0.000 A 
ATOM     24  C   UNL     1      -2.819  11.093  16.669  0.00  0.00    +0.000 A 
ATOM     25  C   UNL     1      -2.352  11.421  17.958  0.00  0.00    +0.000 A 
ATOM     26  C   UNL     1      -3.322  11.772  18.916  0.00  0.00    +0.000 A 
BRANCH  21  27
ATOM     27  O   UNL     1      -5.553  12.172  19.566  0.00  0.00    +0.000 OA
ATOM     28  H   UNL     1      -6.394  12.433  19.156  0.00  0.00    +0.000 HD
ENDBRANCH  21  27
ENDBRANCH   1  25
BRANCH  11  29
ATOM     29  O   UNL     1       4.683  15.613  17.877  0.00  0.00    +0.000 OA
ATOM     30  H   UNL     1       4.682  15.420  16.926  0.00  0.00    +0.000 HD
ENDBRANCH  11  29
TORSDOF 4
ENDMDL
MODEL 3
REMARK VINA RESULT:      -8.0      2.631      6.066
REMARK  Name = 
REMARK  4 active torsions:
REMARK  status: ('A' for Active; 'I' for Inactive)
REMARK    1  A    between atoms: O_1  and  C_2
REMARK    2  A    between atoms: C_6  and  C_7
REMARK    3  A    between atoms: C_9  and  C_10
REMARK    4  A    between atoms: C_24  and  O_25
REMARK                            x       y       z     vdW  Elec       q    Type
REMARK                         _______ _______ _______ _____ _____    ______ ____
ROOT
ATOM      1  C   UNL     1       0.633  10.361  18.623  0.00  0.00    +0.000 A 
ATOM      2  C   UNL     1      -0.773  10.369  18.728  0.00  0.00    +0.000 A 
ATOM      3  C   UNL     1      -1.491  11.569  18.753  0.00  0.00    +0.000 A 
ATOM      4  N   UNL     1      -0.877  12.754  18.991  0.00  0.00    +0.000 NA
ATOM      5  C   UNL     1       0.450  12.729  18.892  0.00  0.00    +0.000 A 
ATOM      6  C   UNL     1       1.212  11.616  18.515  0.00  0.00    +0.000 A 
ATOM      7  C   UNL     1       2.541  12.109  17.987  0.00  0.00    +0.000 C 
ATOM      8  C   UNL     1       2.556  13.562  18.447  0.00  0.00    +0.000 A 
ATOM      9  C   UNL     1       3.562  14.507  18.385  0.00  0.00    +0.000 A 
ATOM     10  C   UNL     1       3.374  15.711  19.078  0.00  0.00    +0.000 A 
ATOM     11  C   UNL     1       2.196  15.932  19.810  0.00  0.00    +0.000 A 
ATOM     12  C   UNL     1       1.140  15.030  19.773  0.00  0.00    +0.000 A 
ATOM     13  C   UNL     1       1.319  13.866  19.049  0.00  0.00    +0.000 A 
ENDROOT
BRANCH   3  14
ATOM     14  C   UNL     1      -2.938  11.672  18.450  0.00  0.00    +0.000 A 
ATOM     15  C   UNL     1      -3.804  12.193  19.438  0.00  0.00    +0.000 A 
ATOM     16  C   UNL     1      -5.168  12.371  19.207  0.00  0.00    +0.000 A 
ATOM     17  C   UNL     1      -5.716  12.030  17.976  0.00  0.00    +0.000 A 
ATOM     18  C   UNL     1      -4.887  11.544  16.971  0.00  0.00    +0.000 A 
ATOM     19  C   UNL     1      -3.513  11.384  17.190  0.00  0.00    +0.000 A 
ATOM     20 CL   UNL     1      -2.594  10.923  15.793  0.00  0.00    +0.000 Cl
ENDBRANCH   3  14
BRANCH   1  25
ATOM     21  C   UNL     1       2.165   7.139  19.948  0.00  0.00    +0.000 A 
ATOM     22  C   UNL     1       2.998   6.759  18.903  0.00  0.00    +0.000 A 
ATOM     23  C   UNL     1       3.058   7.556  17.766  0.00  0.00    +0.000 A 
ATOM     24  C   UNL     1       2.274   8.712  17.677  0.00  0.00    +0.000 A 
ATOM     25  C   UNL     1       1.393   9.094  18.709  0.00  0.00    +0.000 A 
ATOM     26  C   UNL     1       1.375   8.285  19.861  0.00  0.00    +0.000 A 
BRANCH  21  27
ATOM     27  O   UNL     1       2.096   6.411  21.098  0.00  0.00    +0.000 OA
ATOM     28  H   UNL     1       2.874   6.616  21.644  0.00  0.00    +0.000 HD
ENDBRANCH  21  27
ENDBRANCH   1  25
BRANCH  11  29
ATOM     29  O   UNL     1       2.059  17.033  20.603  0.00  0.00    +0.000 OA
ATOM     30  H   UNL     1       2.345  17.814  20.103  0.00  0.00    +0.000 HD
ENDBRANCH  11  29
TORSDOF 4
ENDMDL
MODEL 4
REMARK VINA RESULT:      -7.9      2.535      5.962
REMARK  Name = 
REMARK  4 active torsions:
REMARK  status: ('A' for Active; 'I' for Inactive)
REMARK    1  A    between atoms: O_1  and  C_2
REMARK    2  A    between atoms: C_6  and  C_7
REMARK    3  A    between atoms: C_9  and  C_10
REMARK    4  A    between atoms: C_24  and  O_25
REMARK                            x       y       z     vdW  Elec       q    Type
REMARK                         _______ _______ _______ _____ _____    ______ ____
ROOT
ATOM      1  C   UNL     1       0.500  10.428  18.870  0.00  0.00    +0.000 A 
ATOM      2  C   UNL     1      -0.908  10.450  18.932  0.00  0.00    +0.000 A 
ATOM      3  C   UNL     1      -1.623  11.638  18.749  0.00  0.00    +0.000 A 
ATOM      4  N   UNL     1      -1.012  12.848  18.818  0.00  0.00    +0.000 NA
ATOM      5  C   UNL     1       0.317  12.810  18.762  0.00  0.00    +0.000 A 
ATOM      6  C   UNL     1       1.086  11.653  18.585  0.00  0.00    +0.000 A 
ATOM      7  C   UNL     1       2.431  12.059  18.026  0.00  0.00    +0.000 C 
ATOM      8  C   UNL     1       2.437  13.566  18.254  0.00  0.00    +0.000 A 
ATOM      9  C   UNL     1       3.448  14.492  18.075  0.00  0.00    +0.000 A 
ATOM     10  C   UNL     1       3.243  15.788  18.567  0.00  0.00    +0.000 A 
ATOM     11  C   UNL     1       2.045  16.119  19.221  0.00  0.00    +0.000 A 
ATOM     12  C   UNL     1       0.988  15.221  19.295  0.00  0.00    +0.000 A 
ATOM     13  C   UNL     1       1.184  13.958  18.765  0.00  0.00    +0.000 A 
ENDROOT
BRANCH   3  14
ATOM     14  C   UNL     1      -3.060  11.691  18.393  0.00  0.00    +0.000 A 
ATOM     15  C   UNL     1      -3.978  12.197  19.342  0.00  0.00    +0.000 A 
ATOM     16  C   UNL     1      -5.337  12.328  19.058  0.00  0.00    +0.000 A 
ATOM     17  C   UNL     1      -5.829  11.954  17.813  0.00  0.00    +0.000 A 
ATOM     18  C   UNL     1      -4.948  11.481  16.846  0.00  0.00    +0.000 A 
ATOM     19  C   UNL     1      -3.579  11.368  17.117  0.00  0.00    +0.000 A 
ATOM     20 CL   UNL     1      -2.595  10.919  15.761  0.00  0.00    +0.000 Cl
ENDBRANCH   3  14
BRANCH   1  25
ATOM     21  C   UNL     1       2.662   7.319  18.494  0.00  0.00    +0.000 A 
ATOM     22  C   UNL     1       2.548   6.729  19.746  0.00  0.00    +0.000 A 
ATOM     23  C   UNL     1       1.763   7.347  20.712  0.00  0.00    +0.000 A 
ATOM     24  C   UNL     1       1.117   8.556  20.425  0.00  0.00    +0.000 A 
ATOM     25  C   UNL     1       1.254   9.191  19.174  0.00  0.00    +0.000 A 
ATOM     26  C   UNL     1       2.029   8.528  18.205  0.00  0.00    +0.000 A 
BRANCH  21  27
ATOM     27  O   UNL     1       3.391   6.736  17.501  0.00  0.00    +0.000 OA
ATOM     28  H   UNL     1       2.879   5.997  17.132  0.00  0.00    +0.000 HD
ENDBRANCH  21  27
ENDBRANCH   1  25
BRANCH  11  29
ATOM     29  O   UNL     1       1.889  17.329  19.830  0.00  0.00    +0.000 OA
ATOM     30  H   UNL     1       1.743  18.004  19.147  0.00  0.00    +0.000 HD
ENDBRANCH  11  29
TORSDOF 4
ENDMDL
MODEL 5
REMARK VINA RESULT:      -7.9      1.022      1.230
REMARK  Name = 
REMARK  4 active torsions:
REMARK  status: ('A' for Active; 'I' for Inactive)
REMARK    1  A    between atoms: O_1  and  C_2
REMARK    2  A    between atoms: C_6  and  C_7
REMARK    3  A    between atoms: C_9  and  C_10
REMARK    4  A    between atoms: C_24  and  O_25
REMARK                            x       y       z     vdW  Elec       q    Type
REMARK                         _______ _______ _______ _____ _____    ______ ____
ROOT
ATOM      1  C   UNL     1      -1.203  11.582  19.026  0.00  0.00    +0.000 A 
ATOM      2  C   UNL     1      -0.652  10.295  18.857  0.00  0.00    +0.000 A 
ATOM      3  C   UNL     1       0.732  10.101  18.802  0.00  0.00    +0.000 A 
ATOM      4  N   UNL     1       1.582  11.137  18.595  0.00  0.00    +0.000 NA
ATOM      5  C   UNL     1       1.046  12.345  18.754  0.00  0.00    +0.000 A 
ATOM      6  C   UNL     1      -0.270  12.598  19.162  0.00  0.00    +0.000 A 
ATOM      7  C   UNL     1      -0.323  13.990  19.751  0.00  0.00    +0.000 C 
ATOM      8  C   UNL     1       1.003  14.587  19.296  0.00  0.00    +0.000 A 
ATOM      9  C   UNL     1       1.485  15.878  19.405  0.00  0.00    +0.000 A 
ATOM     10  C   UNL     1       2.656  16.202  18.707  0.00  0.00    +0.000 A 
ATOM     11  C   UNL     1       3.305  15.234  17.922  0.00  0.00    +0.000 A 
ATOM     12  C   UNL     1       2.885  13.911  17.909  0.00  0.00    +0.000 A 
ATOM     13  C   UNL     1       1.754  13.592  18.639  0.00  0.00    +0.000 A 
ENDROOT
BRANCH   3  14
ATOM     14  C   UNL     1       1.394   8.796  19.039  0.00  0.00    +0.000 A 
ATOM     15  C   UNL     1       2.125   8.203  17.984  0.00  0.00    +0.000 A 
ATOM     16  C   UNL     1       2.818   7.005  18.148  0.00  0.00    +0.000 A 
ATOM     17  C   UNL     1       2.803   6.353  19.376  0.00  0.00    +0.000 A 
ATOM     18  C   UNL     1       2.118   6.925  20.443  0.00  0.00    +0.000 A 
ATOM     19  C   UNL     1       1.439   8.139  20.290  0.00  0.00    +0.000 A 
ATOM     20 CL   UNL     1       0.774   8.799  21.751  0.00  0.00    +0.000 Cl
ENDBRANCH   3  14
BRANCH   1  25
ATOM     21  C   UNL     1      -4.797  11.736  17.784  0.00  0.00    +0.000 A 
ATOM     22  C   UNL     1      -5.444  12.370  18.837  0.00  0.00    +0.000 A 
ATOM     23  C   UNL     1      -4.705  12.747  19.952  0.00  0.00    +0.000 A 
ATOM     24  C   UNL     1      -3.334  12.472  20.012  0.00  0.00    +0.000 A 
ATOM     25  C   UNL     1      -2.667  11.793  18.972  0.00  0.00    +0.000 A 
ATOM     26  C   UNL     1      -3.434  11.450  17.842  0.00  0.00    +0.000 A 
BRANCH  21  27
ATOM     27  O   UNL     1      -5.469  11.377  16.654  0.00  0.00    +0.000 OA
ATOM     28  H   UNL     1      -6.126  10.700  16.884  0.00  0.00    +0.000 HD
ENDBRANCH  21  27
ENDBRANCH   1  25
BRANCH  11  29
ATOM     29  O   UNL     1       4.360  15.570  17.125  0.00  0.00    +0.000 OA
ATOM     30  H   UNL     1       5.125  15.029  17.379  0.00  0.00    +0.000 HD
ENDBRANCH  11  29
TORSDOF 4
ENDMDL
MODEL 6
REMARK VINA RESULT:      -7.7      2.578      5.959
REMARK  Name = 
REMARK  4 active torsions:
REMARK  status: ('A' for Active; 'I' for Inactive)
REMARK    1  A    between atoms: O_1  and  C_2
REMARK    2  A    between atoms: C_6  and  C_7
REMARK    3  A    between atoms: C_9  and  C_10
REMARK    4  A    between atoms: C_24  and  O_25
REMARK                            x       y       z     vdW  Elec       q    Type
REMARK                         _______ _______ _______ _____ _____    ______ ____
ROOT
ATOM      1  C   UNL     1       0.622  10.460  18.650  0.00  0.00    +0.000 A 
ATOM      2  C   UNL     1      -0.782  10.482  18.772  0.00  0.00    +0.000 A 
ATOM      3  C   UNL     1      -1.487  11.690  18.810  0.00  0.00    +0.000 A 
ATOM      4  N   UNL     1      -0.858  12.868  19.046  0.00  0.00    +0.000 NA
ATOM      5  C   UNL     1       0.468  12.829  18.931  0.00  0.00    +0.000 A 
ATOM      6  C   UNL     1       1.214  11.710  18.540  0.00  0.00    +0.000 A 
ATOM      7  C   UNL     1       2.541  12.190  17.999  0.00  0.00    +0.000 C 
ATOM      8  C   UNL     1       2.576  13.641  18.465  0.00  0.00    +0.000 A 
ATOM      9  C   UNL     1       3.592  14.576  18.395  0.00  0.00    +0.000 A 
ATOM     10  C   UNL     1       3.425  15.779  19.095  0.00  0.00    +0.000 A 
ATOM     11  C   UNL     1       2.258  16.009  19.842  0.00  0.00    +0.000 A 
ATOM     12  C   UNL     1       1.192  15.119  19.814  0.00  0.00    +0.000 A 
ATOM     13  C   UNL     1       1.350  13.956  19.082  0.00  0.00    +0.000 A 
ENDROOT
BRANCH   3  14
ATOM     14  C   UNL     1      -2.937  11.810  18.525  0.00  0.00    +0.000 A 
ATOM     15  C   UNL     1      -3.425  11.350  17.281  0.00  0.00    +0.000 A 
ATOM     16  C   UNL     1      -4.783  11.380  16.963  0.00  0.00    +0.000 A 
ATOM     17  C   UNL     1      -5.702  11.875  17.881  0.00  0.00    +0.000 A 
ATOM     18  C   UNL     1      -5.259  12.307  19.126  0.00  0.00    +0.000 A 
ATOM     19  C   UNL     1      -3.899  12.258  19.459  0.00  0.00    +0.000 A 
ATOM     20 CL   UNL     1      -3.529  12.679  21.101  0.00  0.00    +0.000 Cl
ENDBRANCH   3  14
BRANCH   1  25
ATOM     21  C   UNL     1       2.138   7.218  19.943  0.00  0.00    +0.000 A 
ATOM     22  C   UNL     1       2.952   6.832  18.886  0.00  0.00    +0.000 A 
ATOM     23  C   UNL     1       3.004   7.632  17.750  0.00  0.00    +0.000 A 
ATOM     24  C   UNL     1       2.232   8.797  17.676  0.00  0.00    +0.000 A 
ATOM     25  C   UNL     1       1.370   9.185  18.722  0.00  0.00    +0.000 A 
ATOM     26  C   UNL     1       1.360   8.373  19.871  0.00  0.00    +0.000 A 
BRANCH  21  27
ATOM     27  O   UNL     1       2.078   6.488  21.092  0.00  0.00    +0.000 OA
ATOM     28  H   UNL     1       2.977   6.388  21.446  0.00  0.00    +0.000 HD
ENDBRANCH  21  27
ENDBRANCH   1  25
BRANCH  11  29
ATOM     29  O   UNL     1       2.143  17.108  20.642  0.00  0.00    +0.000 OA
ATOM     30  H   UNL     1       1.201  17.267  20.817  0.00  0.00    +0.000 HD
ENDBRANCH  11  29
TORSDOF 4
ENDMDL
MODEL 7
REMARK VINA RESULT:      -7.7      2.466      5.838
REMARK  Name = 
REMARK  4 active torsions:
REMARK  status: ('A' for Active; 'I' for Inactive)
REMARK    1  A    between atoms: O_1  and  C_2
REMARK    2  A    between atoms: C_6  and  C_7
REMARK    3  A    between atoms: C_9  and  C_10
REMARK    4  A    between atoms: C_24  and  O_25
REMARK                            x       y       z     vdW  Elec       q    Type
REMARK                         _______ _______ _______ _____ _____    ______ ____
ROOT
ATOM      1  C   UNL     1       0.594  10.459  18.846  0.00  0.00    +0.000 A 
ATOM      2  C   UNL     1      -0.814  10.503  18.902  0.00  0.00    +0.000 A 
ATOM      3  C   UNL     1      -1.509  11.705  18.730  0.00  0.00    +0.000 A 
ATOM      4  N   UNL     1      -0.879  12.903  18.816  0.00  0.00    +0.000 NA
ATOM      5  C   UNL     1       0.450  12.844  18.767  0.00  0.00    +0.000 A 
ATOM      6  C   UNL     1       1.201  11.677  18.579  0.00  0.00    +0.000 A 
ATOM      7  C   UNL     1       2.555  12.068  18.031  0.00  0.00    +0.000 C 
ATOM      8  C   UNL     1       2.583  13.572  18.278  0.00  0.00    +0.000 A 
ATOM      9  C   UNL     1       3.610  14.484  18.114  0.00  0.00    +0.000 A 
ATOM     10  C   UNL     1       3.424  15.777  18.621  0.00  0.00    +0.000 A 
ATOM     11  C   UNL     1       2.228  16.119  19.274  0.00  0.00    +0.000 A 
ATOM     12  C   UNL     1       1.156  15.237  19.332  0.00  0.00    +0.000 A 
ATOM     13  C   UNL     1       1.335  13.978  18.788  0.00  0.00    +0.000 A 
ENDROOT
BRANCH   3  14
ATOM     14  C   UNL     1      -2.944  11.785  18.368  0.00  0.00    +0.000 A 
ATOM     15  C   UNL     1      -3.351  11.316  17.098  0.00  0.00    +0.000 A 
ATOM     16  C   UNL     1      -4.690  11.309  16.708  0.00  0.00    +0.000 A 
ATOM     17  C   UNL     1      -5.671  11.775  17.575  0.00  0.00    +0.000 A 
ATOM     18  C   UNL     1      -5.308  12.215  18.844  0.00  0.00    +0.000 A 
ATOM     19  C   UNL     1      -3.968  12.203  19.249  0.00  0.00    +0.000 A 
ATOM     20 CL   UNL     1      -3.698  12.628  20.909  0.00  0.00    +0.000 Cl
ENDBRANCH   3  14
BRANCH   1  25
ATOM     21  C   UNL     1       2.716   7.326  18.445  0.00  0.00    +0.000 A 
ATOM     22  C   UNL     1       2.577   6.716  19.685  0.00  0.00    +0.000 A 
ATOM     23  C   UNL     1       1.789   7.330  20.652  0.00  0.00    +0.000 A 
ATOM     24  C   UNL     1       1.164   8.552  20.377  0.00  0.00    +0.000 A 
ATOM     25  C   UNL     1       1.326   9.206  19.139  0.00  0.00    +0.000 A 
ATOM     26  C   UNL     1       2.104   8.548  18.168  0.00  0.00    +0.000 A 
BRANCH  21  27
ATOM     27  O   UNL     1       3.449   6.749  17.451  0.00  0.00    +0.000 OA
ATOM     28  H   UNL     1       3.390   5.783  17.541  0.00  0.00    +0.000 HD
ENDBRANCH  21  27
ENDBRANCH   1  25
BRANCH  11  29
ATOM     29  O   UNL     1       2.089  17.325  19.897  0.00  0.00    +0.000 OA
ATOM     30  H   UNL     1       1.294  17.296  20.454  0.00  0.00    +0.000 HD
ENDBRANCH  11  29
TORSDOF 4
ENDMDL
MODEL 8
REMARK VINA RESULT:      -7.5      1.275      1.361
REMARK  Name = 
REMARK  4 active torsions:
REMARK  status: ('A' for Active; 'I' for Inactive)
REMARK    1  A    between atoms: O_1  and  C_2
REMARK    2  A    between atoms: C_6  and  C_7
REMARK    3  A    between atoms: C_9  and  C_10
REMARK    4  A    between atoms: C_24  and  O_25
REMARK                            x       y       z     vdW  Elec       q    Type
REMARK                         _______ _______ _______ _____ _____    ______ ____
ROOT
ATOM      1  C   UNL     1      -0.807  10.572  18.266  0.00  0.00    +0.000 A 
ATOM      2  C   UNL     1       0.088   9.541  17.917  0.00  0.00    +0.000 A 
ATOM      3  C   UNL     1       1.367   9.470  18.481  0.00  0.00    +0.000 A 
ATOM      4  N   UNL     1       1.913  10.530  19.126  0.00  0.00    +0.000 NA
ATOM      5  C   UNL     1       1.056  11.498  19.444  0.00  0.00    +0.000 A 
ATOM      6  C   UNL     1      -0.325  11.461  19.215  0.00  0.00    +0.000 A 
ATOM      7  C   UNL     1      -0.990  12.420  20.177  0.00  0.00    +0.000 C 
ATOM      8  C   UNL     1       0.191  13.232  20.695  0.00  0.00    +0.000 A 
ATOM      9  C   UNL     1       0.217  14.352  21.505  0.00  0.00    +0.000 A 
ATOM     10  C   UNL     1       1.437  15.025  21.654  0.00  0.00    +0.000 A 
ATOM     11  C   UNL     1       2.587  14.565  20.991  0.00  0.00    +0.000 A 
ATOM     12  C   UNL     1       2.583  13.375  20.275  0.00  0.00    +0.000 A 
ATOM     13  C   UNL     1       1.384  12.694  20.172  0.00  0.00    +0.000 A 
ENDROOT
BRANCH   3  14
ATOM     14  C   UNL     1       2.196   8.241  18.498  0.00  0.00    +0.000 A 
ATOM     15  C   UNL     1       3.119   8.029  17.450  0.00  0.00    +0.000 A 
ATOM     16  C   UNL     1       3.970   6.924  17.427  0.00  0.00    +0.000 A 
ATOM     17  C   UNL     1       3.926   5.989  18.454  0.00  0.00    +0.000 A 
ATOM     18  C   UNL     1       3.049   6.183  19.517  0.00  0.00    +0.000 A 
ATOM     19  C   UNL     1       2.208   7.302  19.556  0.00  0.00    +0.000 A 
ATOM     20 CL   UNL     1       1.296   7.485  21.020  0.00  0.00    +0.000 Cl
ENDBRANCH   3  14
BRANCH   1  25
ATOM     21  C   UNL     1      -3.512  10.579  15.589  0.00  0.00    +0.000 A 
ATOM     22  C   UNL     1      -4.593  11.131  16.266  0.00  0.00    +0.000 A 
ATOM     23  C   UNL     1      -4.436  11.501  17.597  0.00  0.00    +0.000 A 
ATOM     24  C   UNL     1      -3.210  11.300  18.241  0.00  0.00    +0.000 A 
ATOM     25  C   UNL     1      -2.114  10.704  17.584  0.00  0.00    +0.000 A 
ATOM     26  C   UNL     1      -2.292  10.368  16.229  0.00  0.00    +0.000 A 
BRANCH  21  27
ATOM     27  O   UNL     1      -3.604  10.232  14.275  0.00  0.00    +0.000 OA
ATOM     28  H   UNL     1      -2.853   9.656  14.052  0.00  0.00    +0.000 HD
ENDBRANCH  21  27
ENDBRANCH   1  25
BRANCH  11  29
ATOM     29  O   UNL     1       3.744  15.287  21.010  0.00  0.00    +0.000 OA
ATOM     30  H   UNL     1       3.834  15.752  20.163  0.00  0.00    +0.000 HD
ENDBRANCH  11  29
TORSDOF 4
ENDMDL
MODEL 9
REMARK VINA RESULT:      -7.4      3.031      6.296
REMARK  Name = 
REMARK  4 active torsions:
REMARK  status: ('A' for Active; 'I' for Inactive)
REMARK    1  A    between atoms: O_1  and  C_2
REMARK    2  A    between atoms: C_6  and  C_7
REMARK    3  A    between atoms: C_9  and  C_10
REMARK    4  A    between atoms: C_24  and  O_25
REMARK                            x       y       z     vdW  Elec       q    Type
REMARK                         _______ _______ _______ _____ _____    ______ ____
ROOT
ATOM      1  C   UNL     1       0.311  10.497  19.110  0.00  0.00    +0.000 A 
ATOM      2  C   UNL     1      -1.084  10.438  18.920  0.00  0.00    +0.000 A 
ATOM      3  C   UNL     1      -1.899  11.544  19.186  0.00  0.00    +0.000 A 
ATOM      4  N   UNL     1      -1.449  12.593  19.918  0.00  0.00    +0.000 NA
ATOM      5  C   UNL     1      -0.130  12.632  20.092  0.00  0.00    +0.000 A 
ATOM      6  C   UNL     1       0.786  11.728  19.538  0.00  0.00    +0.000 A 
ATOM      7  C   UNL     1       2.140  12.399  19.485  0.00  0.00    +0.000 C 
ATOM      8  C   UNL     1       1.938  13.612  20.385  0.00  0.00    +0.000 A 
ATOM      9  C   UNL     1       2.850  14.545  20.844  0.00  0.00    +0.000 A 
ATOM     10  C   UNL     1       2.429  15.440  21.836  0.00  0.00    +0.000 A 
ATOM     11  C   UNL     1       1.120  15.375  22.341  0.00  0.00    +0.000 A 
ATOM     12  C   UNL     1       0.174  14.515  21.797  0.00  0.00    +0.000 A 
ATOM     13  C   UNL     1       0.588  13.668  20.785  0.00  0.00    +0.000 A 
ENDROOT
BRANCH   3  14
ATOM     14  C   UNL     1      -3.268  11.711  18.642  0.00  0.00    +0.000 A 
ATOM     15  C   UNL     1      -4.263  12.278  19.470  0.00  0.00    +0.000 A 
ATOM     16  C   UNL     1      -5.559  12.516  19.012  0.00  0.00    +0.000 A 
ATOM     17  C   UNL     1      -5.905  12.193  17.705  0.00  0.00    +0.000 A 
ATOM     18  C   UNL     1      -4.941  11.662  16.854  0.00  0.00    +0.000 A 
ATOM     19  C   UNL     1      -3.634  11.442  17.303  0.00  0.00    +0.000 A 
ATOM     20 CL   UNL     1      -2.513  10.930  16.081  0.00  0.00    +0.000 Cl
ENDBRANCH   3  14
BRANCH   1  25
ATOM     21  C   UNL     1       2.197   7.264  19.796  0.00  0.00    +0.000 A 
ATOM     22  C   UNL     1       2.909   7.084  18.617  0.00  0.00    +0.000 A 
ATOM     23  C   UNL     1       2.773   8.020  17.598  0.00  0.00    +0.000 A 
ATOM     24  C   UNL     1       1.914   9.113  17.760  0.00  0.00    +0.000 A 
ATOM     25  C   UNL     1       1.153   9.292  18.933  0.00  0.00    +0.000 A 
ATOM     26  C   UNL     1       1.334   8.347  19.959  0.00  0.00    +0.000 A 
BRANCH  21  27
ATOM     27  O   UNL     1       2.322   6.394  20.837  0.00  0.00    +0.000 OA
ATOM     28  H   UNL     1       2.582   5.525  20.489  0.00  0.00    +0.000 HD
ENDBRANCH  21  27
ENDBRANCH   1  25
BRANCH  11  29
ATOM     29  O   UNL     1       0.739  16.141  23.404  0.00  0.00    +0.000 OA
ATOM     30  H   UNL     1       0.882  15.633  24.219  0.00  0.00    +0.000 HD
ENDBRANCH  11  29
TORSDOF 4
ENDMDL
