MODEL 1
REMARK VINA RESULT:      -7.4      0.000      0.000
REMARK  Name = 
REMARK  6 active torsions:
REMARK  status: ('A' for Active; 'I' for Inactive)
REMARK    1  A    between atoms: C_1  and  C_2
REMARK    2  A    between atoms: C_7  and  C_8
REMARK    3  A    between atoms: N_12  and  C_13
REMARK    4  A    between atoms: C_16  and  N_17
REMARK    5  A    between atoms: N_17  and  C_18
REMARK    6  A    between atoms: N_17  and  C_19
REMARK                            x       y       z     vdW  Elec       q    Type
REMARK                         _______ _______ _______ _____ _____    ______ ____
ROOT
ATOM      1  C   UNL     1       5.238   5.086  18.869  0.00  0.00    +0.000 A 
ATOM      2  C   UNL     1       6.352   5.439  19.602  0.00  0.00    +0.000 A 
ATOM      3  S   UNL     1       7.628   5.885  18.544  0.00  0.00    +0.000 S 
ATOM      4  C   UNL     1       6.623   5.539  17.186  0.00  0.00    +0.000 A 
ATOM      5  N   UNL     1       7.072   5.745  15.925  0.00  0.00    +0.000 N 
ATOM      6  N   UNL     1       5.423   5.112  17.502  0.00  0.00    +0.000 NA
ATOM      7  H   UNL     1       7.971   6.192  15.805  0.00  0.00    +0.000 HD
ENDROOT
BRANCH   1  14
ATOM      8  C   UNL     1       2.735   7.007  19.161  0.00  0.00    +0.000 C 
ATOM      9  C   UNL     1       2.828   5.584  19.590  0.00  0.00    +0.000 A 
ATOM     10  N   UNL     1       1.712   5.022  20.201  0.00  0.00    +0.000 NA
ATOM     11  C   UNL     1       1.942   3.767  20.494  0.00  0.00    +0.000 A 
ATOM     12  N   UNL     1       1.034   2.986  21.102  0.00  0.00    +0.000 N 
ATOM     13  S   UNL     1       3.492   3.181  20.072  0.00  0.00    +0.000 S 
ATOM     14  C   UNL     1       3.906   4.722  19.452  0.00  0.00    +0.000 A 
ATOM     15  H   UNL     1       0.276   3.483  21.557  0.00  0.00    +0.000 HD
ATOM     16  H   UNL     1       1.369   2.181  21.614  0.00  0.00    +0.000 HD
ENDBRANCH   1  14
BRANCH   5  17
ATOM     17  C   UNL     1       6.663   5.013  14.794  0.00  0.00    +0.000 A 
ATOM     18  C   UNL     1       5.419   4.386  14.790  0.00  0.00    +0.000 A 
ATOM     19  C   UNL     1       4.991   3.638  13.678  0.00  0.00    +0.000 A 
ATOM     20  C   UNL     1       5.767   3.506  12.506  0.00  0.00    +0.000 A 
ATOM     21  C   UNL     1       7.017   4.133  12.548  0.00  0.00    +0.000 A 
ATOM     22  C   UNL     1       7.466   4.853  13.665  0.00  0.00    +0.000 A 
BRANCH  20  23
ATOM     23  N   UNL     1       5.335   2.744  11.426  0.00  0.00    +0.000 N 
ATOM     24  C   UNL     1       5.918   1.430  11.152  0.00  0.00    +0.000 C 
ATOM     25  C   UNL     1       4.007   2.926  10.840  0.00  0.00    +0.000 C 
ENDBRANCH  20  23
ENDBRANCH   5  17
TORSDOF 3
ENDMDL
MODEL 2
REMARK VINA RESULT:      -7.3      2.910      4.604
REMARK  Name = 
REMARK  6 active torsions:
REMARK  status: ('A' for Active; 'I' for Inactive)
REMARK    1  A    between atoms: C_1  and  C_2
REMARK    2  A    between atoms: C_7  and  C_8
REMARK    3  A    between atoms: N_12  and  C_13
REMARK    4  A    between atoms: C_16  and  N_17
REMARK    5  A    between atoms: N_17  and  C_18
REMARK    6  A    between atoms: N_17  and  C_19
REMARK                            x       y       z     vdW  Elec       q    Type
REMARK                         _______ _______ _______ _____ _____    ______ ____
ROOT
ATOM      1  C   UNL     1       2.204   6.718  19.885  0.00  0.00    +0.000 A 
ATOM      2  C   UNL     1       1.595   5.864  20.781  0.00  0.00    +0.000 A 
ATOM      3  S   UNL     1       2.449   4.376  20.842  0.00  0.00    +0.000 S 
ATOM      4  C   UNL     1       3.544   4.957  19.643  0.00  0.00    +0.000 A 
ATOM      5  N   UNL     1       4.588   4.196  19.236  0.00  0.00    +0.000 N 
ATOM      6  N   UNL     1       3.284   6.173  19.222  0.00  0.00    +0.000 NA
ATOM      7  H   UNL     1       4.761   3.324  19.718  0.00  0.00    +0.000 HD
ENDROOT
BRANCH   1  14
ATOM      8  C   UNL     1       1.082   8.753  22.039  0.00  0.00    +0.000 C 
ATOM      9  C   UNL     1       1.280   9.005  20.584  0.00  0.00    +0.000 A 
ATOM     10  N   UNL     1       0.926  10.258  20.094  0.00  0.00    +0.000 NA
ATOM     11  C   UNL     1       1.182  10.331  18.812  0.00  0.00    +0.000 A 
ATOM     12  N   UNL     1       0.927  11.428  18.083  0.00  0.00    +0.000 N 
ATOM     13  S   UNL     1       1.848   8.921  18.111  0.00  0.00    +0.000 S 
ATOM     14  C   UNL     1       1.789   8.135  19.631  0.00  0.00    +0.000 A 
ATOM     15  H   UNL     1       0.288  12.089  18.510  0.00  0.00    +0.000 HD
ATOM     16  H   UNL     1       0.800  11.315  17.085  0.00  0.00    +0.000 HD
ENDBRANCH   1  14
BRANCH   5  17
ATOM     17  C   UNL     1       5.170   4.245  17.955  0.00  0.00    +0.000 A 
ATOM     18  C   UNL     1       4.412   3.899  16.838  0.00  0.00    +0.000 A 
ATOM     19  C   UNL     1       4.973   3.928  15.548  0.00  0.00    +0.000 A 
ATOM     20  C   UNL     1       6.303   4.332  15.305  0.00  0.00    +0.000 A 
ATOM     21  C   UNL     1       7.043   4.657  16.449  0.00  0.00    +0.000 A 
ATOM     22  C   UNL     1       6.502   4.600  17.742  0.00  0.00    +0.000 A 
BRANCH  20  23
ATOM     23  N   UNL     1       6.845   4.332  14.025  0.00  0.00    +0.000 N 
ATOM     24  C   UNL     1       6.175   3.635  12.926  0.00  0.00    +0.000 C 
ATOM     25  C   UNL     1       7.759   5.383  13.578  0.00  0.00    +0.000 C 
ENDBRANCH  20  23
ENDBRANCH   5  17
TORSDOF 3
ENDMDL
MODEL 3
REMARK VINA RESULT:      -7.2      3.041      7.923
REMARK  Name = 
REMARK  6 active torsions:
REMARK  status: ('A' for Active; 'I' for Inactive)
REMARK    1  A    between atoms: C_1  and  C_2
REMARK    2  A    between atoms: C_7  and  C_8
REMARK    3  A    between atoms: N_12  and  C_13
REMARK    4  A    between atoms: C_16  and  N_17
REMARK    5  A    between atoms: N_17  and  C_18
REMARK    6  A    between atoms: N_17  and  C_19
REMARK                            x       y       z     vdW  Elec       q    Type
REMARK                         _______ _______ _______ _____ _____    ______ ____
ROOT
ATOM      1  C   UNL     1       4.917   4.962  17.932  0.00  0.00    +0.000 A 
ATOM      2  C   UNL     1       4.997   3.998  18.914  0.00  0.00    +0.000 A 
ATOM      3  S   UNL     1       3.725   4.212  20.047  0.00  0.00    +0.000 S 
ATOM      4  C   UNL     1       3.182   5.596  19.174  0.00  0.00    +0.000 A 
ATOM      5  N   UNL     1       2.075   6.270  19.568  0.00  0.00    +0.000 N 
ATOM      6  N   UNL     1       3.905   5.882  18.117  0.00  0.00    +0.000 NA
ATOM      7  H   UNL     1       1.527   5.887  20.327  0.00  0.00    +0.000 HD
ENDROOT
BRANCH   1  14
ATOM      8  C   UNL     1       7.516   6.751  17.643  0.00  0.00    +0.000 C 
ATOM      9  C   UNL     1       6.931   5.846  16.615  0.00  0.00    +0.000 A 
ATOM     10  N   UNL     1       7.571   5.775  15.382  0.00  0.00    +0.000 NA
ATOM     11  C   UNL     1       6.955   4.924  14.601  0.00  0.00    +0.000 A 
ATOM     12  N   UNL     1       7.356   4.668  13.346  0.00  0.00    +0.000 N 
ATOM     13  S   UNL     1       5.580   4.164  15.276  0.00  0.00    +0.000 S 
ATOM     14  C   UNL     1       5.809   5.040  16.729  0.00  0.00    +0.000 A 
ATOM     15  H   UNL     1       7.987   5.356  12.948  0.00  0.00    +0.000 HD
ATOM     16  H   UNL     1       6.672   4.308  12.694  0.00  0.00    +0.000 HD
ENDBRANCH   1  14
BRANCH   5  17
ATOM     17  C   UNL     1       1.855   7.646  19.366  0.00  0.00    +0.000 A 
ATOM     18  C   UNL     1       1.351   8.425  20.404  0.00  0.00    +0.000 A 
ATOM     19  C   UNL     1       1.110   9.800  20.224  0.00  0.00    +0.000 A 
ATOM     20  C   UNL     1       1.390  10.469  19.013  0.00  0.00    +0.000 A 
ATOM     21  C   UNL     1       1.879   9.655  17.985  0.00  0.00    +0.000 A 
ATOM     22  C   UNL     1       2.091   8.278  18.145  0.00  0.00    +0.000 A 
BRANCH  20  23
ATOM     23  N   UNL     1       1.124  11.824  18.849  0.00  0.00    +0.000 N 
ATOM     24  C   UNL     1       2.130  12.724  18.284  0.00  0.00    +0.000 C 
ATOM     25  C   UNL     1      -0.243  12.329  18.728  0.00  0.00    +0.000 C 
ENDBRANCH  20  23
ENDBRANCH   5  17
TORSDOF 3
ENDMDL
MODEL 4
REMARK VINA RESULT:      -7.2      2.967      7.996
REMARK  Name = 
REMARK  6 active torsions:
REMARK  status: ('A' for Active; 'I' for Inactive)
REMARK    1  A    between atoms: C_1  and  C_2
REMARK    2  A    between atoms: C_7  and  C_8
REMARK    3  A    between atoms: N_12  and  C_13
REMARK    4  A    between atoms: C_16  and  N_17
REMARK    5  A    between atoms: N_17  and  C_18
REMARK    6  A    between atoms: N_17  and  C_19
REMARK                            x       y       z     vdW  Elec       q    Type
REMARK                         _______ _______ _______ _____ _____    ______ ____
ROOT
ATOM      1  C   UNL     1       4.921   4.889  17.945  0.00  0.00    +0.000 A 
ATOM      2  C   UNL     1       4.999   3.893  18.895  0.00  0.00    +0.000 A 
ATOM      3  S   UNL     1       3.719   4.064  20.026  0.00  0.00    +0.000 S 
ATOM      4  C   UNL     1       3.176   5.475  19.197  0.00  0.00    +0.000 A 
ATOM      5  N   UNL     1       2.064   6.132  19.607  0.00  0.00    +0.000 N 
ATOM      6  N   UNL     1       3.905   5.799  18.155  0.00  0.00    +0.000 NA
ATOM      7  H   UNL     1       1.512   5.721  20.348  0.00  0.00    +0.000 HD
ENDROOT
BRANCH   1  14
ATOM      8  C   UNL     1       7.500   6.717  17.724  0.00  0.00    +0.000 C 
ATOM      9  C   UNL     1       6.933   5.833  16.667  0.00  0.00    +0.000 A 
ATOM     10  N   UNL     1       7.582   5.804  15.437  0.00  0.00    +0.000 NA
ATOM     11  C   UNL     1       6.982   4.967  14.629  0.00  0.00    +0.000 A 
ATOM     12  N   UNL     1       7.395   4.751  13.371  0.00  0.00    +0.000 N 
ATOM     13  S   UNL     1       5.612   4.172  15.274  0.00  0.00    +0.000 S 
ATOM     14  C   UNL     1       5.820   5.011  16.752  0.00  0.00    +0.000 A 
ATOM     15  H   UNL     1       8.020   5.457  12.996  0.00  0.00    +0.000 HD
ATOM     16  H   UNL     1       6.720   4.400  12.704  0.00  0.00    +0.000 HD
ENDBRANCH   1  14
BRANCH   5  17
ATOM     17  C   UNL     1       1.840   7.513  19.449  0.00  0.00    +0.000 A 
ATOM     18  C   UNL     1       2.105   8.121  18.225  0.00  0.00    +0.000 A 
ATOM     19  C   UNL     1       1.901   9.502  18.046  0.00  0.00    +0.000 A 
ATOM     20  C   UNL     1       1.394  10.335  19.066  0.00  0.00    +0.000 A 
ATOM     21  C   UNL     1       1.155   9.697  20.289  0.00  0.00    +0.000 A 
ATOM     22  C   UNL     1       1.386   8.328  20.487  0.00  0.00    +0.000 A 
BRANCH  20  23
ATOM     23  N   UNL     1       1.221  11.702  18.875  0.00  0.00    +0.000 N 
ATOM     24  C   UNL     1       0.302  12.468  19.718  0.00  0.00    +0.000 C 
ATOM     25  C   UNL     1       2.248  12.523  18.235  0.00  0.00    +0.000 C 
ENDBRANCH  20  23
ENDBRANCH   5  17
TORSDOF 3
ENDMDL
MODEL 5
REMARK VINA RESULT:      -7.1      2.906      4.670
REMARK  Name = 
REMARK  6 active torsions:
REMARK  status: ('A' for Active; 'I' for Inactive)
REMARK    1  A    between atoms: C_1  and  C_2
REMARK    2  A    between atoms: C_7  and  C_8
REMARK    3  A    between atoms: N_12  and  C_13
REMARK    4  A    between atoms: C_16  and  N_17
REMARK    5  A    between atoms: N_17  and  C_18
REMARK    6  A    between atoms: N_17  and  C_19
REMARK                            x       y       z     vdW  Elec       q    Type
REMARK                         _______ _______ _______ _____ _____    ______ ____
ROOT
ATOM      1  C   UNL     1       2.201   6.698  19.903  0.00  0.00    +0.000 A 
ATOM      2  C   UNL     1       1.610   5.860  20.825  0.00  0.00    +0.000 A 
ATOM      3  S   UNL     1       2.456   4.367  20.883  0.00  0.00    +0.000 S 
ATOM      4  C   UNL     1       3.524   4.925  19.649  0.00  0.00    +0.000 A 
ATOM      5  N   UNL     1       4.552   4.152  19.224  0.00  0.00    +0.000 N 
ATOM      6  N   UNL     1       3.260   6.137  19.219  0.00  0.00    +0.000 NA
ATOM      7  H   UNL     1       4.732   3.285  19.713  0.00  0.00    +0.000 HD
ENDROOT
BRANCH   1  14
ATOM      8  C   UNL     1       1.054   8.737  22.040  0.00  0.00    +0.000 C 
ATOM      9  C   UNL     1       1.269   8.986  20.587  0.00  0.00    +0.000 A 
ATOM     10  N   UNL     1       0.920  10.238  20.090  0.00  0.00    +0.000 NA
ATOM     11  C   UNL     1       1.191  10.308  18.811  0.00  0.00    +0.000 A 
ATOM     12  N   UNL     1       0.944  11.405  18.077  0.00  0.00    +0.000 N 
ATOM     13  S   UNL     1       1.865   8.897  18.120  0.00  0.00    +0.000 S 
ATOM     14  C   UNL     1       1.789   8.115  19.641  0.00  0.00    +0.000 A 
ATOM     15  H   UNL     1       0.300  12.066  18.496  0.00  0.00    +0.000 HD
ATOM     16  H   UNL     1       0.829  11.289  17.078  0.00  0.00    +0.000 HD
ENDBRANCH   1  14
BRANCH   5  17
ATOM     17  C   UNL     1       5.100   4.181  17.928  0.00  0.00    +0.000 A 
ATOM     18  C   UNL     1       6.434   4.538  17.749  0.00  0.00    +0.000 A 
ATOM     19  C   UNL     1       7.002   4.586  16.463  0.00  0.00    +0.000 A 
ATOM     20  C   UNL     1       6.278   4.250  15.298  0.00  0.00    +0.000 A 
ATOM     21  C   UNL     1       4.937   3.912  15.510  0.00  0.00    +0.000 A 
ATOM     22  C   UNL     1       4.353   3.893  16.785  0.00  0.00    +0.000 A 
BRANCH  20  23
ATOM     23  N   UNL     1       6.853   4.325  14.034  0.00  0.00    +0.000 N 
ATOM     24  C   UNL     1       6.235   3.659  12.887  0.00  0.00    +0.000 C 
ATOM     25  C   UNL     1       7.743   5.424  13.660  0.00  0.00    +0.000 C 
ENDBRANCH  20  23
ENDBRANCH   5  17
TORSDOF 3
ENDMDL
MODEL 6
REMARK VINA RESULT:      -7.1      2.721      4.303
REMARK  Name = 
REMARK  6 active torsions:
REMARK  status: ('A' for Active; 'I' for Inactive)
REMARK    1  A    between atoms: C_1  and  C_2
REMARK    2  A    between atoms: C_7  and  C_8
REMARK    3  A    between atoms: N_12  and  C_13
REMARK    4  A    between atoms: C_16  and  N_17
REMARK    5  A    between atoms: N_17  and  C_18
REMARK    6  A    between atoms: N_17  and  C_19
REMARK                            x       y       z     vdW  Elec       q    Type
REMARK                         _______ _______ _______ _____ _____    ______ ____
ROOT
ATOM      1  C   UNL     1       2.545   6.464  19.523  0.00  0.00    +0.000 A 
ATOM      2  C   UNL     1       2.064   5.535  20.421  0.00  0.00    +0.000 A 
ATOM      3  S   UNL     1       3.018   4.109  20.352  0.00  0.00    +0.000 S 
ATOM      4  C   UNL     1       3.978   4.812  19.104  0.00  0.00    +0.000 A 
ATOM      5  N   UNL     1       5.036   4.143  18.587  0.00  0.00    +0.000 N 
ATOM      6  N   UNL     1       3.606   6.023  18.758  0.00  0.00    +0.000 NA
ATOM      7  H   UNL     1       5.303   3.267  19.015  0.00  0.00    +0.000 HD
ENDROOT
BRANCH   1  14
ATOM      8  C   UNL     1       1.152   8.205  21.774  0.00  0.00    +0.000 C 
ATOM      9  C   UNL     1       1.392   8.597  20.357  0.00  0.00    +0.000 A 
ATOM     10  N   UNL     1       0.952   9.853  19.953  0.00  0.00    +0.000 NA
ATOM     11  C   UNL     1       1.258  10.057  18.697  0.00  0.00    +0.000 A 
ATOM     12  N   UNL     1       0.940  11.188  18.047  0.00  0.00    +0.000 N 
ATOM     13  S   UNL     1       2.077   8.774  17.918  0.00  0.00    +0.000 S 
ATOM     14  C   UNL     1       2.019   7.859  19.364  0.00  0.00    +0.000 A 
ATOM     15  H   UNL     1       0.226  11.754  18.493  0.00  0.00    +0.000 HD
ATOM     16  H   UNL     1       0.869  11.150  17.039  0.00  0.00    +0.000 HD
ENDBRANCH   1  14
BRANCH   5  17
ATOM     17  C   UNL     1       5.513   4.284  17.270  0.00  0.00    +0.000 A 
ATOM     18  C   UNL     1       6.829   4.683  17.050  0.00  0.00    +0.000 A 
ATOM     19  C   UNL     1       7.326   4.842  15.744  0.00  0.00    +0.000 A 
ATOM     20  C   UNL     1       6.548   4.581  14.596  0.00  0.00    +0.000 A 
ATOM     21  C   UNL     1       5.226   4.199  14.850  0.00  0.00    +0.000 A 
ATOM     22  C   UNL     1       4.711   4.069  16.149  0.00  0.00    +0.000 A 
BRANCH  20  23
ATOM     23  N   UNL     1       7.052   4.767  13.314  0.00  0.00    +0.000 N 
ATOM     24  C   UNL     1       8.258   5.565  13.089  0.00  0.00    +0.000 C 
ATOM     25  C   UNL     1       6.767   3.824  12.233  0.00  0.00    +0.000 C 
ENDBRANCH  20  23
ENDBRANCH   5  17
TORSDOF 3
ENDMDL
MODEL 7
REMARK VINA RESULT:      -7.1      0.090      1.017
REMARK  Name = 
REMARK  6 active torsions:
REMARK  status: ('A' for Active; 'I' for Inactive)
REMARK    1  A    between atoms: C_1  and  C_2
REMARK    2  A    between atoms: C_7  and  C_8
REMARK    3  A    between atoms: N_12  and  C_13
REMARK    4  A    between atoms: C_16  and  N_17
REMARK    5  A    between atoms: N_17  and  C_18
REMARK    6  A    between atoms: N_17  and  C_19
REMARK                            x       y       z     vdW  Elec       q    Type
REMARK                         _______ _______ _______ _____ _____    ______ ____
ROOT
ATOM      1  C   UNL     1       5.223   5.091  18.912  0.00  0.00    +0.000 A 
ATOM      2  C   UNL     1       6.341   5.465  19.627  0.00  0.00    +0.000 A 
ATOM      3  S   UNL     1       7.603   5.905  18.549  0.00  0.00    +0.000 S 
ATOM      4  C   UNL     1       6.587   5.528  17.207  0.00  0.00    +0.000 A 
ATOM      5  N   UNL     1       7.020   5.717  15.938  0.00  0.00    +0.000 N 
ATOM      6  N   UNL     1       5.393   5.096  17.543  0.00  0.00    +0.000 NA
ATOM      7  H   UNL     1       7.914   6.170  15.801  0.00  0.00    +0.000 HD
ENDROOT
BRANCH   1  14
ATOM      8  C   UNL     1       2.736   7.019  19.278  0.00  0.00    +0.000 C 
ATOM      9  C   UNL     1       2.830   5.590  19.685  0.00  0.00    +0.000 A 
ATOM     10  N   UNL     1       1.723   5.025  20.310  0.00  0.00    +0.000 NA
ATOM     11  C   UNL     1       1.952   3.764  20.581  0.00  0.00    +0.000 A 
ATOM     12  N   UNL     1       1.052   2.980  21.195  0.00  0.00    +0.000 N 
ATOM     13  S   UNL     1       3.490   3.177  20.122  0.00  0.00    +0.000 S 
ATOM     14  C   UNL     1       3.900   4.725  19.515  0.00  0.00    +0.000 A 
ATOM     15  H   UNL     1       0.305   3.473  21.672  0.00  0.00    +0.000 HD
ATOM     16  H   UNL     1       1.393   2.166  21.690  0.00  0.00    +0.000 HD
ENDBRANCH   1  14
BRANCH   5  17
ATOM     17  C   UNL     1       6.605   4.963  14.824  0.00  0.00    +0.000 A 
ATOM     18  C   UNL     1       7.450   4.830  13.725  0.00  0.00    +0.000 A 
ATOM     19  C   UNL     1       7.054   4.093  12.595  0.00  0.00    +0.000 A 
ATOM     20  C   UNL     1       5.812   3.426  12.518  0.00  0.00    +0.000 A 
ATOM     21  C   UNL     1       4.980   3.592  13.631  0.00  0.00    +0.000 A 
ATOM     22  C   UNL     1       5.353   4.353  14.749  0.00  0.00    +0.000 A 
BRANCH  20  23
ATOM     23  N   UNL     1       5.431   2.720  11.382  0.00  0.00    +0.000 N 
ATOM     24  C   UNL     1       6.083   1.459  11.027  0.00  0.00    +0.000 C 
ATOM     25  C   UNL     1       4.102   2.876  10.791  0.00  0.00    +0.000 C 
ENDBRANCH  20  23
ENDBRANCH   5  17
TORSDOF 3
ENDMDL
MODEL 8
REMARK VINA RESULT:      -6.9      1.001      1.476
REMARK  Name = 
REMARK  6 active torsions:
REMARK  status: ('A' for Active; 'I' for Inactive)
REMARK    1  A    between atoms: C_1  and  C_2
REMARK    2  A    between atoms: C_7  and  C_8
REMARK    3  A    between atoms: N_12  and  C_13
REMARK    4  A    between atoms: C_16  and  N_17
REMARK    5  A    between atoms: N_17  and  C_18
REMARK    6  A    between atoms: N_17  and  C_19
REMARK                            x       y       z     vdW  Elec       q    Type
REMARK                         _______ _______ _______ _____ _____    ______ ____
ROOT
ATOM      1  C   UNL     1       5.355   5.017  18.817  0.00  0.00    +0.000 A 
ATOM      2  C   UNL     1       6.465   5.410  19.534  0.00  0.00    +0.000 A 
ATOM      3  S   UNL     1       7.709   5.906  18.460  0.00  0.00    +0.000 S 
ATOM      4  C   UNL     1       6.699   5.524  17.115  0.00  0.00    +0.000 A 
ATOM      5  N   UNL     1       7.121   5.749  15.848  0.00  0.00    +0.000 N 
ATOM      6  N   UNL     1       5.520   5.052  17.447  0.00  0.00    +0.000 NA
ATOM      7  H   UNL     1       8.001   6.230  15.716  0.00  0.00    +0.000 HD
ENDROOT
BRANCH   1  14
ATOM      8  C   UNL     1       4.658   2.154  19.983  0.00  0.00    +0.000 C 
ATOM      9  C   UNL     1       3.754   3.336  19.904  0.00  0.00    +0.000 A 
ATOM     10  N   UNL     1       2.454   3.183  20.374  0.00  0.00    +0.000 NA
ATOM     11  C   UNL     1       1.797   4.309  20.260  0.00  0.00    +0.000 A 
ATOM     12  N   UNL     1       0.513   4.441  20.630  0.00  0.00    +0.000 N 
ATOM     13  S   UNL     1       2.675   5.612  19.584  0.00  0.00    +0.000 S 
ATOM     14  C   UNL     1       4.047   4.601  19.418  0.00  0.00    +0.000 A 
ATOM     15  H   UNL     1       0.008   3.569  20.747  0.00  0.00    +0.000 HD
ATOM     16  H   UNL     1      -0.030   5.180  20.202  0.00  0.00    +0.000 HD
ENDBRANCH   1  14
BRANCH   5  17
ATOM     17  C   UNL     1       6.724   5.004  14.722  0.00  0.00    +0.000 A 
ATOM     18  C   UNL     1       5.498   4.343  14.728  0.00  0.00    +0.000 A 
ATOM     19  C   UNL     1       5.082   3.582  13.620  0.00  0.00    +0.000 A 
ATOM     20  C   UNL     1       5.852   3.469  12.443  0.00  0.00    +0.000 A 
ATOM     21  C   UNL     1       7.086   4.130  12.475  0.00  0.00    +0.000 A 
ATOM     22  C   UNL     1       7.523   4.864  13.587  0.00  0.00    +0.000 A 
BRANCH  20  23
ATOM     23  N   UNL     1       5.434   2.693  11.367  0.00  0.00    +0.000 N 
ATOM     24  C   UNL     1       6.057   1.399  11.087  0.00  0.00    +0.000 C 
ATOM     25  C   UNL     1       4.094   2.831  10.797  0.00  0.00    +0.000 C 
ENDBRANCH  20  23
ENDBRANCH   5  17
TORSDOF 3
ENDMDL
MODEL 9
REMARK VINA RESULT:      -6.9      2.608      4.247
REMARK  Name = 
REMARK  6 active torsions:
REMARK  status: ('A' for Active; 'I' for Inactive)
REMARK    1  A    between atoms: C_1  and  C_2
REMARK    2  A    between atoms: C_7  and  C_8
REMARK    3  A    between atoms: N_12  and  C_13
REMARK    4  A    between atoms: C_16  and  N_17
REMARK    5  A    between atoms: N_17  and  C_18
REMARK    6  A    between atoms: N_17  and  C_19
REMARK                            x       y       z     vdW  Elec       q    Type
REMARK                         _______ _______ _______ _____ _____    ______ ____
ROOT
ATOM      1  C   UNL     1       2.339   6.235  20.017  0.00  0.00    +0.000 A 
ATOM      2  C   UNL     1       1.832   5.271  20.863  0.00  0.00    +0.000 A 
ATOM      3  S   UNL     1       2.772   3.838  20.746  0.00  0.00    +0.000 S 
ATOM      4  C   UNL     1       3.762   4.587  19.548  0.00  0.00    +0.000 A 
ATOM      5  N   UNL     1       4.823   3.930  19.021  0.00  0.00    +0.000 N 
ATOM      6  N   UNL     1       3.409   5.816  19.252  0.00  0.00    +0.000 NA
ATOM      7  H   UNL     1       5.072   3.032  19.413  0.00  0.00    +0.000 HD
ENDROOT
BRANCH   1  14
ATOM      8  C   UNL     1       2.533   8.109  17.470  0.00  0.00    +0.000 C 
ATOM      9  C   UNL     1       1.943   8.453  18.794  0.00  0.00    +0.000 A 
ATOM     10  N   UNL     1       1.431   9.735  18.956  0.00  0.00    +0.000 NA
ATOM     11  C   UNL     1       0.929   9.873  20.157  0.00  0.00    +0.000 A 
ATOM     12  N   UNL     1       0.376  11.019  20.585  0.00  0.00    +0.000 N 
ATOM     13  S   UNL     1       1.042   8.498  21.167  0.00  0.00    +0.000 S 
ATOM     14  C   UNL     1       1.830   7.640  19.912  0.00  0.00    +0.000 A 
ATOM     15  H   UNL     1       0.606  11.839  20.035  0.00  0.00    +0.000 HD
ATOM     16  H   UNL     1       0.343  11.185  21.583  0.00  0.00    +0.000 HD
ENDBRANCH   1  14
BRANCH   5  17
ATOM     17  C   UNL     1       5.326   4.125  17.721  0.00  0.00    +0.000 A 
ATOM     18  C   UNL     1       4.500   3.908  16.620  0.00  0.00    +0.000 A 
ATOM     19  C   UNL     1       4.982   4.083  15.310  0.00  0.00    +0.000 A 
ATOM     20  C   UNL     1       6.298   4.515  15.035  0.00  0.00    +0.000 A 
ATOM     21  C   UNL     1       7.107   4.708  16.161  0.00  0.00    +0.000 A 
ATOM     22  C   UNL     1       6.645   4.504  17.469  0.00  0.00    +0.000 A 
BRANCH  20  23
ATOM     23  N   UNL     1       6.761   4.661  13.732  0.00  0.00    +0.000 N 
ATOM     24  C   UNL     1       7.972   5.431  13.447  0.00  0.00    +0.000 C 
ATOM     25  C   UNL     1       6.423   3.698  12.684  0.00  0.00    +0.000 C 
ENDBRANCH  20  23
ENDBRANCH   5  17
TORSDOF 3
ENDMDL
