MODEL 1
REMARK VINA RESULT:      -7.7      0.000      0.000
REMARK  Name = 
REMARK  6 active torsions:
REMARK  status: ('A' for Active; 'I' for Inactive)
REMARK    1  A    between atoms: C_1  and  C_2
REMARK    2  A    between atoms: C_2  and  C_3
REMARK    3  A    between atoms: C_2  and  C_4
REMARK    4  A    between atoms: C_2  and  C_5
REMARK    5  A    between atoms: C_9  and  C_10
REMARK    6  A    between atoms: C_16  and  C_17
REMARK                            x       y       z     vdW  Elec       q    Type
REMARK                         _______ _______ _______ _____ _____    ______ ____
ROOT
ATOM      1  C   UNL     1       3.906   3.740  19.450  0.00  0.00    +0.000 C 
ATOM      2  O   UNL     1       4.983   3.136  19.482  0.00  0.00    +0.000 OA
ATOM      3  N   UNL     1       3.834   5.016  18.909  0.00  0.00    +0.000 N 
ATOM      4  N   UNL     1       2.749   5.825  19.064  0.00  0.00    +0.000 NA
ATOM      5  C   UNL     1       3.079   7.013  18.660  0.00  0.00    +0.000 C 
ATOM      6  C   UNL     1       4.481   7.146  18.140  0.00  0.00    +0.000 C 
ATOM      7  C   UNL     1       4.973   5.709  18.300  0.00  0.00    +0.000 C 
ENDROOT
BRANCH   7   8
ATOM      8  C   UNL     1       5.388   5.150  16.946  0.00  0.00    +0.000 A 
ATOM      9  C   UNL     1       6.655   5.465  16.424  0.00  0.00    +0.000 A 
ATOM     10  C   UNL     1       7.038   5.009  15.158  0.00  0.00    +0.000 A 
ATOM     11  C   UNL     1       6.159   4.235  14.406  0.00  0.00    +0.000 A 
ATOM     12 CL   UNL     1       6.624   3.678  12.846  0.00  0.00    +0.000 Cl
ATOM     13  C   UNL     1       4.902   3.912  14.903  0.00  0.00    +0.000 A 
ATOM     14  C   UNL     1       4.514   4.375  16.165  0.00  0.00    +0.000 A 
ENDBRANCH   7   8
BRANCH   5  15
ATOM     15  C   UNL     1       2.140   8.105  18.743  0.00  0.00    +0.000 A 
ATOM     16  C   UNL     1       1.721   8.927  17.711  0.00  0.00    +0.000 A 
ATOM     17  C   UNL     1       0.796   9.919  18.142  0.00  0.00    +0.000 A 
ATOM     18  C   UNL     1       0.533   9.820  19.489  0.00  0.00    +0.000 A 
ATOM     19  S   UNL     1       1.391   8.533  20.218  0.00  0.00    +0.000 S 
ENDBRANCH   5  15
BRANCH   1  21
ATOM     20  C   UNL     1       2.753   2.561  21.353  0.00  0.00    +0.000 C 
ATOM     21  C   UNL     1       2.587   3.040  19.895  0.00  0.00    +0.000 C 
ATOM     22  C   UNL     1       2.367   1.809  19.000  0.00  0.00    +0.000 C 
ATOM     23  C   UNL     1       1.337   3.935  19.862  0.00  0.00    +0.000 C 
ENDBRANCH   1  21
TORSDOF 3
ENDMDL
MODEL 2
REMARK VINA RESULT:      -7.6      0.132      1.014
REMARK  Name = 
REMARK  6 active torsions:
REMARK  status: ('A' for Active; 'I' for Inactive)
REMARK    1  A    between atoms: C_1  and  C_2
REMARK    2  A    between atoms: C_2  and  C_3
REMARK    3  A    between atoms: C_2  and  C_4
REMARK    4  A    between atoms: C_2  and  C_5
REMARK    5  A    between atoms: C_9  and  C_10
REMARK    6  A    between atoms: C_16  and  C_17
REMARK                            x       y       z     vdW  Elec       q    Type
REMARK                         _______ _______ _______ _____ _____    ______ ____
ROOT
ATOM      1  C   UNL     1       3.984   3.776  19.317  0.00  0.00    +0.000 C 
ATOM      2  O   UNL     1       5.073   3.190  19.323  0.00  0.00    +0.000 OA
ATOM      3  N   UNL     1       3.887   5.067  18.816  0.00  0.00    +0.000 N 
ATOM      4  N   UNL     1       2.789   5.851  19.003  0.00  0.00    +0.000 NA
ATOM      5  C   UNL     1       3.097   7.057  18.634  0.00  0.00    +0.000 C 
ATOM      6  C   UNL     1       4.492   7.230  18.109  0.00  0.00    +0.000 C 
ATOM      7  C   UNL     1       5.010   5.798  18.221  0.00  0.00    +0.000 C 
ENDROOT
BRANCH   7   8
ATOM      8  C   UNL     1       5.425   5.288  16.848  0.00  0.00    +0.000 A 
ATOM      9  C   UNL     1       4.505   4.561  16.071  0.00  0.00    +0.000 A 
ATOM     10  C   UNL     1       4.879   4.035  14.830  0.00  0.00    +0.000 A 
ATOM     11  C   UNL     1       6.174   4.231  14.357  0.00  0.00    +0.000 A 
ATOM     12 CL   UNL     1       6.640   3.579  12.834  0.00  0.00    +0.000 Cl
ATOM     13  C   UNL     1       7.098   4.947  15.109  0.00  0.00    +0.000 A 
ATOM     14  C   UNL     1       6.728   5.465  16.354  0.00  0.00    +0.000 A 
ENDBRANCH   7   8
BRANCH   5  15
ATOM     15  C   UNL     1       2.140   8.130  18.757  0.00  0.00    +0.000 A 
ATOM     16  C   UNL     1       1.684   8.963  17.750  0.00  0.00    +0.000 A 
ATOM     17  C   UNL     1       0.751   9.929  18.218  0.00  0.00    +0.000 A 
ATOM     18  C   UNL     1       0.517   9.800  19.568  0.00  0.00    +0.000 A 
ATOM     19  S   UNL     1       1.412   8.515  20.255  0.00  0.00    +0.000 S 
ENDBRANCH   5  15
BRANCH   1  21
ATOM     20  C   UNL     1       2.827   2.607  21.223  0.00  0.00    +0.000 C 
ATOM     21  C   UNL     1       2.681   3.039  19.749  0.00  0.00    +0.000 C 
ATOM     22  C   UNL     1       2.529   1.777  18.883  0.00  0.00    +0.000 C 
ATOM     23  C   UNL     1       1.400   3.887  19.660  0.00  0.00    +0.000 C 
ENDBRANCH   1  21
TORSDOF 3
ENDMDL
MODEL 3
REMARK VINA RESULT:      -7.3      0.442      1.460
REMARK  Name = 
REMARK  6 active torsions:
REMARK  status: ('A' for Active; 'I' for Inactive)
REMARK    1  A    between atoms: C_1  and  C_2
REMARK    2  A    between atoms: C_2  and  C_3
REMARK    3  A    between atoms: C_2  and  C_4
REMARK    4  A    between atoms: C_2  and  C_5
REMARK    5  A    between atoms: C_9  and  C_10
REMARK    6  A    between atoms: C_16  and  C_17
REMARK                            x       y       z     vdW  Elec       q    Type
REMARK                         _______ _______ _______ _____ _____    ______ ____
ROOT
ATOM      1  C   UNL     1       3.878   3.717  19.094  0.00  0.00    +0.000 C 
ATOM      2  O   UNL     1       4.950   3.103  19.115  0.00  0.00    +0.000 OA
ATOM      3  N   UNL     1       3.831   5.031  18.648  0.00  0.00    +0.000 N 
ATOM      4  N   UNL     1       2.747   5.835  18.829  0.00  0.00    +0.000 NA
ATOM      5  C   UNL     1       3.098   7.047  18.525  0.00  0.00    +0.000 C 
ATOM      6  C   UNL     1       4.516   7.206  18.061  0.00  0.00    +0.000 C 
ATOM      7  C   UNL     1       4.994   5.757  18.129  0.00  0.00    +0.000 C 
ENDROOT
BRANCH   7   8
ATOM      8  C   UNL     1       5.448   5.297  16.751  0.00  0.00    +0.000 A 
ATOM      9  C   UNL     1       4.550   4.603  15.920  0.00  0.00    +0.000 A 
ATOM     10  C   UNL     1       4.961   4.122  14.671  0.00  0.00    +0.000 A 
ATOM     11  C   UNL     1       6.269   4.330  14.246  0.00  0.00    +0.000 A 
ATOM     12 CL   UNL     1       6.779   3.733  12.714  0.00  0.00    +0.000 Cl
ATOM     13  C   UNL     1       7.172   5.013  15.051  0.00  0.00    +0.000 A 
ATOM     14  C   UNL     1       6.766   5.487  16.303  0.00  0.00    +0.000 A 
ENDBRANCH   7   8
BRANCH   5  15
ATOM     15  C   UNL     1       2.163   8.138  18.660  0.00  0.00    +0.000 A 
ATOM     16  C   UNL     1       1.724   8.990  17.661  0.00  0.00    +0.000 A 
ATOM     17  C   UNL     1       0.811   9.971  18.141  0.00  0.00    +0.000 A 
ATOM     18  C   UNL     1       0.577   9.833  19.490  0.00  0.00    +0.000 A 
ATOM     19  S   UNL     1       1.447   8.524  20.163  0.00  0.00    +0.000 S 
ENDBRANCH   5  15
BRANCH   1  21
ATOM     20  C   UNL     1       1.435   3.535  18.511  0.00  0.00    +0.000 C 
ATOM     21  C   UNL     1       2.541   2.997  19.444  0.00  0.00    +0.000 C 
ATOM     22  C   UNL     1       2.168   3.345  20.894  0.00  0.00    +0.000 C 
ATOM     23  C   UNL     1       2.566   1.469  19.267  0.00  0.00    +0.000 C 
ENDBRANCH   1  21
TORSDOF 3
ENDMDL
MODEL 4
REMARK VINA RESULT:      -7.1      0.856      1.198
REMARK  Name = 
REMARK  6 active torsions:
REMARK  status: ('A' for Active; 'I' for Inactive)
REMARK    1  A    between atoms: C_1  and  C_2
REMARK    2  A    between atoms: C_2  and  C_3
REMARK    3  A    between atoms: C_2  and  C_4
REMARK    4  A    between atoms: C_2  and  C_5
REMARK    5  A    between atoms: C_9  and  C_10
REMARK    6  A    between atoms: C_16  and  C_17
REMARK                            x       y       z     vdW  Elec       q    Type
REMARK                         _______ _______ _______ _____ _____    ______ ____
ROOT
ATOM      1  C   UNL     1       3.522   3.491  19.366  0.00  0.00    +0.000 C 
ATOM      2  O   UNL     1       4.547   2.802  19.415  0.00  0.00    +0.000 OA
ATOM      3  N   UNL     1       3.594   4.829  19.005  0.00  0.00    +0.000 N 
ATOM      4  N   UNL     1       2.555   5.695  19.168  0.00  0.00    +0.000 NA
ATOM      5  C   UNL     1       3.006   6.896  18.967  0.00  0.00    +0.000 C 
ATOM      6  C   UNL     1       4.460   6.982  18.607  0.00  0.00    +0.000 C 
ATOM      7  C   UNL     1       4.835   5.501  18.610  0.00  0.00    +0.000 C 
ENDROOT
BRANCH   7   8
ATOM      8  C   UNL     1       5.352   5.095  17.237  0.00  0.00    +0.000 A 
ATOM      9  C   UNL     1       6.692   5.352  16.897  0.00  0.00    +0.000 A 
ATOM     10  C   UNL     1       7.176   5.038  15.622  0.00  0.00    +0.000 A 
ATOM     11  C   UNL     1       6.326   4.465  14.680  0.00  0.00    +0.000 A 
ATOM     12 CL   UNL     1       6.916   4.084  13.109  0.00  0.00    +0.000 Cl
ATOM     13  C   UNL     1       4.998   4.203  14.997  0.00  0.00    +0.000 A 
ATOM     14  C   UNL     1       4.510   4.525  16.267  0.00  0.00    +0.000 A 
ENDBRANCH   7   8
BRANCH   5  15
ATOM     15  C   UNL     1       2.140   8.040  19.113  0.00  0.00    +0.000 A 
ATOM     16  C   UNL     1       1.412   8.400  20.234  0.00  0.00    +0.000 A 
ATOM     17  C   UNL     1       0.645   9.581  20.033  0.00  0.00    +0.000 A 
ATOM     18  C   UNL     1       0.815  10.091  18.766  0.00  0.00    +0.000 A 
ATOM     19  S   UNL     1       1.900   9.151  17.837  0.00  0.00    +0.000 S 
ENDBRANCH   5  15
BRANCH   1  21
ATOM     20  C   UNL     1       2.225   1.333  19.296  0.00  0.00    +0.000 C 
ATOM     21  C   UNL     1       2.119   2.847  19.580  0.00  0.00    +0.000 C 
ATOM     22  C   UNL     1       1.142   3.465  18.567  0.00  0.00    +0.000 C 
ATOM     23  C   UNL     1       1.552   2.992  21.002  0.00  0.00    +0.000 C 
ENDBRANCH   1  21
TORSDOF 3
ENDMDL
MODEL 5
REMARK VINA RESULT:      -7.1      0.870      1.538
REMARK  Name = 
REMARK  6 active torsions:
REMARK  status: ('A' for Active; 'I' for Inactive)
REMARK    1  A    between atoms: C_1  and  C_2
REMARK    2  A    between atoms: C_2  and  C_3
REMARK    3  A    between atoms: C_2  and  C_4
REMARK    4  A    between atoms: C_2  and  C_5
REMARK    5  A    between atoms: C_9  and  C_10
REMARK    6  A    between atoms: C_16  and  C_17
REMARK                            x       y       z     vdW  Elec       q    Type
REMARK                         _______ _______ _______ _____ _____    ______ ____
ROOT
ATOM      1  C   UNL     1       3.492   3.497  19.236  0.00  0.00    +0.000 C 
ATOM      2  O   UNL     1       4.516   2.805  19.268  0.00  0.00    +0.000 OA
ATOM      3  N   UNL     1       3.568   4.843  18.905  0.00  0.00    +0.000 N 
ATOM      4  N   UNL     1       2.531   5.708  19.089  0.00  0.00    +0.000 NA
ATOM      5  C   UNL     1       2.986   6.912  18.915  0.00  0.00    +0.000 C 
ATOM      6  C   UNL     1       4.440   7.002  18.556  0.00  0.00    +0.000 C 
ATOM      7  C   UNL     1       4.810   5.521  18.525  0.00  0.00    +0.000 C 
ENDROOT
BRANCH   7   8
ATOM      8  C   UNL     1       5.325   5.145  17.142  0.00  0.00    +0.000 A 
ATOM      9  C   UNL     1       4.421   4.686  16.167  0.00  0.00    +0.000 A 
ATOM     10  C   UNL     1       4.876   4.282  14.907  0.00  0.00    +0.000 A 
ATOM     11  C   UNL     1       6.236   4.334  14.613  0.00  0.00    +0.000 A 
ATOM     12 CL   UNL     1       6.800   3.831  13.067  0.00  0.00    +0.000 Cl
ATOM     13  C   UNL     1       7.145   4.784  15.563  0.00  0.00    +0.000 A 
ATOM     14  C   UNL     1       6.693   5.179  16.825  0.00  0.00    +0.000 A 
ENDBRANCH   7   8
BRANCH   5  15
ATOM     15  C   UNL     1       2.122   8.054  19.088  0.00  0.00    +0.000 A 
ATOM     16  C   UNL     1       1.425   8.411  20.230  0.00  0.00    +0.000 A 
ATOM     17  C   UNL     1       0.651   9.592  20.053  0.00  0.00    +0.000 A 
ATOM     18  C   UNL     1       0.786  10.105  18.783  0.00  0.00    +0.000 A 
ATOM     19  S   UNL     1       1.847   9.169  17.822  0.00  0.00    +0.000 S 
ENDBRANCH   5  15
BRANCH   1  21
ATOM     20  C   UNL     1       2.228   1.321  19.300  0.00  0.00    +0.000 C 
ATOM     21  C   UNL     1       2.088   2.852  19.437  0.00  0.00    +0.000 C 
ATOM     22  C   UNL     1       1.158   3.358  18.322  0.00  0.00    +0.000 C 
ATOM     23  C   UNL     1       1.446   3.118  20.809  0.00  0.00    +0.000 C 
ENDBRANCH   1  21
TORSDOF 3
ENDMDL
MODEL 6
REMARK VINA RESULT:      -7.1      0.728      1.321
REMARK  Name = 
REMARK  6 active torsions:
REMARK  status: ('A' for Active; 'I' for Inactive)
REMARK    1  A    between atoms: C_1  and  C_2
REMARK    2  A    between atoms: C_2  and  C_3
REMARK    3  A    between atoms: C_2  and  C_4
REMARK    4  A    between atoms: C_2  and  C_5
REMARK    5  A    between atoms: C_9  and  C_10
REMARK    6  A    between atoms: C_16  and  C_17
REMARK                            x       y       z     vdW  Elec       q    Type
REMARK                         _______ _______ _______ _____ _____    ______ ____
ROOT
ATOM      1  C   UNL     1       3.763   3.559  19.592  0.00  0.00    +0.000 C 
ATOM      2  O   UNL     1       4.819   2.916  19.607  0.00  0.00    +0.000 OA
ATOM      3  N   UNL     1       3.745   4.865  19.124  0.00  0.00    +0.000 N 
ATOM      4  N   UNL     1       2.685   5.701  19.308  0.00  0.00    +0.000 NA
ATOM      5  C   UNL     1       3.063   6.898  18.978  0.00  0.00    +0.000 C 
ATOM      6  C   UNL     1       4.478   7.011  18.490  0.00  0.00    +0.000 C 
ATOM      7  C   UNL     1       4.918   5.551  18.575  0.00  0.00    +0.000 C 
ENDROOT
BRANCH   7   8
ATOM      8  C   UNL     1       5.339   5.056  17.198  0.00  0.00    +0.000 A 
ATOM      9  C   UNL     1       6.678   5.190  16.792  0.00  0.00    +0.000 A 
ATOM     10  C   UNL     1       7.078   4.793  15.511  0.00  0.00    +0.000 A 
ATOM     11  C   UNL     1       6.143   4.259  14.629  0.00  0.00    +0.000 A 
ATOM     12 CL   UNL     1       6.630   3.776  13.051  0.00  0.00    +0.000 Cl
ATOM     13  C   UNL     1       4.815   4.118  15.011  0.00  0.00    +0.000 A 
ATOM     14  C   UNL     1       4.412   4.523  16.287  0.00  0.00    +0.000 A 
ENDBRANCH   7   8
BRANCH   5  15
ATOM     15  C   UNL     1       2.160   8.016  19.108  0.00  0.00    +0.000 A 
ATOM     16  C   UNL     1       1.436   8.379  20.231  0.00  0.00    +0.000 A 
ATOM     17  C   UNL     1       0.627   9.528  20.012  0.00  0.00    +0.000 A 
ATOM     18  C   UNL     1       0.763  10.012  18.731  0.00  0.00    +0.000 A 
ATOM     19  S   UNL     1       1.866   9.087  17.809  0.00  0.00    +0.000 S 
ENDBRANCH   5  15
BRANCH   1  21
ATOM     20  C   UNL     1       1.258   3.793  19.513  0.00  0.00    +0.000 C 
ATOM     21  C   UNL     1       2.413   2.880  19.974  0.00  0.00    +0.000 C 
ATOM     22  C   UNL     1       2.352   2.751  21.505  0.00  0.00    +0.000 C 
ATOM     23  C   UNL     1       2.176   1.505  19.328  0.00  0.00    +0.000 C 
ENDBRANCH   1  21
TORSDOF 3
ENDMDL
MODEL 7
REMARK VINA RESULT:      -7.0      1.078      1.465
REMARK  Name = 
REMARK  6 active torsions:
REMARK  status: ('A' for Active; 'I' for Inactive)
REMARK    1  A    between atoms: C_1  and  C_2
REMARK    2  A    between atoms: C_2  and  C_3
REMARK    3  A    between atoms: C_2  and  C_4
REMARK    4  A    between atoms: C_2  and  C_5
REMARK    5  A    between atoms: C_9  and  C_10
REMARK    6  A    between atoms: C_16  and  C_17
REMARK                            x       y       z     vdW  Elec       q    Type
REMARK                         _______ _______ _______ _____ _____    ______ ____
ROOT
ATOM      1  C   UNL     1       3.394   3.480  19.245  0.00  0.00    +0.000 C 
ATOM      2  O   UNL     1       4.419   2.793  19.318  0.00  0.00    +0.000 OA
ATOM      3  N   UNL     1       3.482   4.849  19.032  0.00  0.00    +0.000 N 
ATOM      4  N   UNL     1       2.422   5.690  19.187  0.00  0.00    +0.000 NA
ATOM      5  C   UNL     1       2.875   6.907  19.154  0.00  0.00    +0.000 C 
ATOM      6  C   UNL     1       4.354   7.034  18.941  0.00  0.00    +0.000 C 
ATOM      7  C   UNL     1       4.746   5.562  18.825  0.00  0.00    +0.000 C 
ENDROOT
BRANCH   7   8
ATOM      8  C   UNL     1       5.391   5.302  17.471  0.00  0.00    +0.000 A 
ATOM      9  C   UNL     1       4.739   5.726  16.300  0.00  0.00    +0.000 A 
ATOM     10  C   UNL     1       5.285   5.450  15.041  0.00  0.00    +0.000 A 
ATOM     11  C   UNL     1       6.485   4.750  14.945  0.00  0.00    +0.000 A 
ATOM     12 CL   UNL     1       7.155   4.403  13.399  0.00  0.00    +0.000 Cl
ATOM     13  C   UNL     1       7.145   4.323  16.091  0.00  0.00    +0.000 A 
ATOM     14  C   UNL     1       6.596   4.590  17.349  0.00  0.00    +0.000 A 
ENDBRANCH   7   8
BRANCH   5  15
ATOM     15  C   UNL     1       1.984   8.027  19.336  0.00  0.00    +0.000 A 
ATOM     16  C   UNL     1       1.334   8.397  20.501  0.00  0.00    +0.000 A 
ATOM     17  C   UNL     1       0.514   9.547  20.329  0.00  0.00    +0.000 A 
ATOM     18  C   UNL     1       0.568  10.024  19.039  0.00  0.00    +0.000 A 
ATOM     19  S   UNL     1       1.608   9.092  18.053  0.00  0.00    +0.000 S 
ENDBRANCH   5  15
BRANCH   1  21
ATOM     20  C   UNL     1       1.387   2.967  20.675  0.00  0.00    +0.000 C 
ATOM     21  C   UNL     1       1.986   2.813  19.262  0.00  0.00    +0.000 C 
ATOM     22  C   UNL     1       2.157   1.314  18.966  0.00  0.00    +0.000 C 
ATOM     23  C   UNL     1       0.971   3.423  18.280  0.00  0.00    +0.000 C 
ENDBRANCH   1  21
TORSDOF 3
ENDMDL
MODEL 8
REMARK VINA RESULT:      -6.8      0.777      1.645
REMARK  Name = 
REMARK  6 active torsions:
REMARK  status: ('A' for Active; 'I' for Inactive)
REMARK    1  A    between atoms: C_1  and  C_2
REMARK    2  A    between atoms: C_2  and  C_3
REMARK    3  A    between atoms: C_2  and  C_4
REMARK    4  A    between atoms: C_2  and  C_5
REMARK    5  A    between atoms: C_9  and  C_10
REMARK    6  A    between atoms: C_16  and  C_17
REMARK                            x       y       z     vdW  Elec       q    Type
REMARK                         _______ _______ _______ _____ _____    ______ ____
ROOT
ATOM      1  C   UNL     1       3.601   3.726  19.711  0.00  0.00    +0.000 C 
ATOM      2  O   UNL     1       4.666   3.097  19.718  0.00  0.00    +0.000 OA
ATOM      3  N   UNL     1       3.561   5.030  19.239  0.00  0.00    +0.000 N 
ATOM      4  N   UNL     1       2.492   5.852  19.431  0.00  0.00    +0.000 NA
ATOM      5  C   UNL     1       2.851   7.053  19.093  0.00  0.00    +0.000 C 
ATOM      6  C   UNL     1       4.259   7.183  18.590  0.00  0.00    +0.000 C 
ATOM      7  C   UNL     1       4.719   5.730  18.676  0.00  0.00    +0.000 C 
ENDROOT
BRANCH   7   8
ATOM      8  C   UNL     1       5.133   5.235  17.297  0.00  0.00    +0.000 A 
ATOM      9  C   UNL     1       4.300   4.338  16.603  0.00  0.00    +0.000 A 
ATOM     10  C   UNL     1       4.684   3.826  15.358  0.00  0.00    +0.000 A 
ATOM     11  C   UNL     1       5.901   4.208  14.799  0.00  0.00    +0.000 A 
ATOM     12 CL   UNL     1       6.379   3.575  13.272  0.00  0.00    +0.000 Cl
ATOM     13  C   UNL     1       6.738   5.093  15.468  0.00  0.00    +0.000 A 
ATOM     14  C   UNL     1       6.359   5.598  16.716  0.00  0.00    +0.000 A 
ENDBRANCH   7   8
BRANCH   5  15
ATOM     15  C   UNL     1       1.935   8.159  19.229  0.00  0.00    +0.000 A 
ATOM     16  C   UNL     1       1.225   8.523  20.360  0.00  0.00    +0.000 A 
ATOM     17  C   UNL     1       0.396   9.659  20.145  0.00  0.00    +0.000 A 
ATOM     18  C   UNL     1       0.503  10.132  18.857  0.00  0.00    +0.000 A 
ATOM     19  S   UNL     1       1.603   9.214  17.925  0.00  0.00    +0.000 S 
ENDBRANCH   5  15
BRANCH   1  21
ATOM     20  C   UNL     1       1.154   4.101  20.168  0.00  0.00    +0.000 C 
ATOM     21  C   UNL     1       2.265   3.031  20.109  0.00  0.00    +0.000 C 
ATOM     22  C   UNL     1       2.433   2.425  21.512  0.00  0.00    +0.000 C 
ATOM     23  C   UNL     1       1.784   1.947  19.130  0.00  0.00    +0.000 C 
ENDBRANCH   1  21
TORSDOF 3
ENDMDL
MODEL 9
REMARK VINA RESULT:      -6.6      5.105      8.191
REMARK  Name = 
REMARK  6 active torsions:
REMARK  status: ('A' for Active; 'I' for Inactive)
REMARK    1  A    between atoms: C_1  and  C_2
REMARK    2  A    between atoms: C_2  and  C_3
REMARK    3  A    between atoms: C_2  and  C_4
REMARK    4  A    between atoms: C_2  and  C_5
REMARK    5  A    between atoms: C_9  and  C_10
REMARK    6  A    between atoms: C_16  and  C_17
REMARK                            x       y       z     vdW  Elec       q    Type
REMARK                         _______ _______ _______ _____ _____    ______ ____
ROOT
ATOM      1  C   UNL     1       1.850  12.812  18.747  0.00  0.00    +0.000 C 
ATOM      2  O   UNL     1       2.511  12.377  17.797  0.00  0.00    +0.000 OA
ATOM      3  N   UNL     1       0.679  12.178  19.134  0.00  0.00    +0.000 N 
ATOM      4  N   UNL     1      -0.214  12.737  19.997  0.00  0.00    +0.000 NA
ATOM      5  C   UNL     1      -1.296  12.020  19.969  0.00  0.00    +0.000 C 
ATOM      6  C   UNL     1      -1.249  10.827  19.060  0.00  0.00    +0.000 C 
ATOM      7  C   UNL     1       0.172  10.951  18.512  0.00  0.00    +0.000 C 
ENDROOT
BRANCH   7   8
ATOM      8  C   UNL     1       0.971   9.703  18.859  0.00  0.00    +0.000 A 
ATOM      9  C   UNL     1       1.679   9.029  17.848  0.00  0.00    +0.000 A 
ATOM     10  C   UNL     1       2.377   7.849  18.131  0.00  0.00    +0.000 A 
ATOM     11  C   UNL     1       2.372   7.336  19.424  0.00  0.00    +0.000 A 
ATOM     12 CL   UNL     1       3.223   5.882  19.774  0.00  0.00    +0.000 Cl
ATOM     13  C   UNL     1       1.679   7.986  20.438  0.00  0.00    +0.000 A 
ATOM     14  C   UNL     1       0.974   9.160  20.155  0.00  0.00    +0.000 A 
ENDBRANCH   7   8
BRANCH   5  15
ATOM     15  C   UNL     1      -2.446  12.393  20.755  0.00  0.00    +0.000 A 
ATOM     16  C   UNL     1      -3.699  12.750  20.287  0.00  0.00    +0.000 A 
ATOM     17  C   UNL     1      -4.603  13.076  21.336  0.00  0.00    +0.000 A 
ATOM     18  C   UNL     1      -4.015  12.952  22.574  0.00  0.00    +0.000 A 
ATOM     19  S   UNL     1      -2.388  12.437  22.463  0.00  0.00    +0.000 S 
ENDBRANCH   5  15
BRANCH   1  21
ATOM     20  C   UNL     1       3.717  14.481  19.006  0.00  0.00    +0.000 C 
ATOM     21  C   UNL     1       2.380  13.998  19.607  0.00  0.00    +0.000 C 
ATOM     22  C   UNL     1       2.644  13.483  21.032  0.00  0.00    +0.000 C 
ATOM     23  C   UNL     1       1.451  15.222  19.662  0.00  0.00    +0.000 C 
ENDBRANCH   1  21
TORSDOF 3
ENDMDL
