MODEL 1
REMARK VINA RESULT:      -7.7      0.000      0.000
REMARK  Name = 
REMARK  9 active torsions:
REMARK  status: ('A' for Active; 'I' for Inactive)
REMARK    1  A    between atoms: C_1  and  C_2
REMARK    2  A    between atoms: N_14  and  C_15
REMARK    3  A    between atoms: N_21  and  C_22
REMARK    4  A    between atoms: C_22  and  C_23
REMARK    5  A    between atoms: N_25  and  C_26
REMARK    6  A    between atoms: N_25  and  C_33
REMARK    7  A    between atoms: C_26  and  C_27
REMARK    8  A    between atoms: C_33  and  C_34
REMARK    9  A    between atoms: C_33  and  C_35
REMARK                            x       y       z     vdW  Elec       q    Type
REMARK                         _______ _______ _______ _____ _____    ______ ____
ROOT
ATOM      1  C   UNL     1      -3.293  13.296  21.359  0.00  0.00    +0.000 C 
ATOM      2  C   UNL     1      -2.519  12.387  20.446  0.00  0.00    +0.000 A 
ATOM      3  C   UNL     1      -3.028  11.977  19.194  0.00  0.00    +0.000 A 
ATOM      4  C   UNL     1      -4.393  11.943  18.821  0.00  0.00    +0.000 A 
ATOM      5  C   UNL     1      -4.793  11.326  17.637  0.00  0.00    +0.000 A 
ATOM      6  C   UNL     1      -3.849  10.666  16.864  0.00  0.00    +0.000 A 
ATOM      7  C   UNL     1      -2.495  10.812  17.173  0.00  0.00    +0.000 A 
ATOM      8  C   UNL     1      -2.073  11.588  18.246  0.00  0.00    +0.000 A 
ATOM      9  N   UNL     1      -0.777  11.961  18.361  0.00  0.00    +0.000 NA
ATOM     10  C   UNL     1      -0.340  12.497  19.529  0.00  0.00    +0.000 A 
ATOM     11  C   UNL     1      -1.140  12.324  20.639  0.00  0.00    +0.000 A 
ATOM     12  C   UNL     1      -0.424  11.097  21.183  0.00  0.00    +0.000 A 
ATOM     13  O   UNL     1      -0.940  10.309  21.939  0.00  0.00    +0.000 OA
ATOM     14  N   UNL     1       0.867  11.052  20.561  0.00  0.00    +0.000 N 
ATOM     15  N   UNL     1       1.040  12.341  19.879  0.00  0.00    +0.000 N 
ENDROOT
BRANCH  14  16
ATOM     16  C   UNL     1       1.303   9.932  19.755  0.00  0.00    +0.000 A 
ATOM     17  C   UNL     1       1.634  10.085  18.396  0.00  0.00    +0.000 A 
ATOM     18  C   UNL     1       2.118   9.003  17.640  0.00  0.00    +0.000 A 
ATOM     19  C   UNL     1       2.271   7.747  18.216  0.00  0.00    +0.000 A 
ATOM     20  C   UNL     1       1.978   7.576  19.564  0.00  0.00    +0.000 A 
ATOM     21  C   UNL     1       1.519   8.665  20.332  0.00  0.00    +0.000 A 
ENDBRANCH  14  16
BRANCH  15  22
ATOM     22  C   UNL     1       1.573  13.354  20.888  0.00  0.00    +0.000 C 
BRANCH  22  23
ATOM     23  C   UNL     1       1.344  14.885  20.667  0.00  0.00    +0.000 C 
ATOM     24  O   UNL     1       0.365  15.474  21.127  0.00  0.00    +0.000 OA
ATOM     25  N   UNL     1       2.325  15.589  19.913  0.00  0.00    +0.000 N 
BRANCH  25  26
ATOM     26  C   UNL     1       3.586  14.971  19.422  0.00  0.00    +0.000 C 
ATOM     27  C   UNL     1       3.889  15.189  17.934  0.00  0.00    +0.000 C 
ATOM     28  C   UNL     1       4.782  15.428  20.262  0.00  0.00    +0.000 C 
ENDBRANCH  25  26
BRANCH  25  29
ATOM     29  C   UNL     1       2.163  17.062  19.766  0.00  0.00    +0.000 C 
BRANCH  29  30
ATOM     30  C   UNL     1       1.276  17.486  18.605  0.00  0.00    +0.000 A 
ATOM     31  C   UNL     1       1.815  17.718  17.335  0.00  0.00    +0.000 A 
ATOM     32  C   UNL     1       1.033  18.263  16.314  0.00  0.00    +0.000 A 
ATOM     33  C   UNL     1      -0.318  18.523  16.528  0.00  0.00    +0.000 A 
ATOM     34  C   UNL     1      -0.899  18.187  17.748  0.00  0.00    +0.000 A 
ATOM     35  C   UNL     1      -0.110  17.665  18.781  0.00  0.00    +0.000 A 
ENDBRANCH  29  30
ENDBRANCH  25  29
ENDBRANCH  22  23
ENDBRANCH  15  22
TORSDOF 6
ENDMDL
MODEL 2
REMARK VINA RESULT:      -7.4      2.395      7.859
REMARK  Name = 
REMARK  9 active torsions:
REMARK  status: ('A' for Active; 'I' for Inactive)
REMARK    1  A    between atoms: C_1  and  C_2
REMARK    2  A    between atoms: N_14  and  C_15
REMARK    3  A    between atoms: N_21  and  C_22
REMARK    4  A    between atoms: C_22  and  C_23
REMARK    5  A    between atoms: N_25  and  C_26
REMARK    6  A    between atoms: N_25  and  C_33
REMARK    7  A    between atoms: C_26  and  C_27
REMARK    8  A    between atoms: C_33  and  C_34
REMARK    9  A    between atoms: C_33  and  C_35
REMARK                            x       y       z     vdW  Elec       q    Type
REMARK                         _______ _______ _______ _____ _____    ______ ____
ROOT
ATOM      1  C   UNL     1       3.229  13.940  21.586  0.00  0.00    +0.000 C 
ATOM      2  C   UNL     1       1.994  13.829  20.737  0.00  0.00    +0.000 A 
ATOM      3  C   UNL     1       1.550  14.893  19.919  0.00  0.00    +0.000 A 
ATOM      4  C   UNL     1       1.860  16.262  20.096  0.00  0.00    +0.000 A 
ATOM      5  C   UNL     1       1.201  17.242  19.356  0.00  0.00    +0.000 A 
ATOM      6  C   UNL     1       0.174  16.870  18.501  0.00  0.00    +0.000 A 
ATOM      7  C   UNL     1      -0.038  15.515  18.242  0.00  0.00    +0.000 A 
ATOM      8  C   UNL     1       0.745  14.530  18.832  0.00  0.00    +0.000 A 
ATOM      9  N   UNL     1       0.733  13.262  18.359  0.00  0.00    +0.000 NA
ATOM     10  C   UNL     1       1.302  12.272  19.094  0.00  0.00    +0.000 A 
ATOM     11  C   UNL     1       1.559  12.542  20.422  0.00  0.00    +0.000 A 
ATOM     12  C   UNL     1       0.283  11.928  20.977  0.00  0.00    +0.000 A 
ATOM     13  O   UNL     1      -0.181  12.222  22.053  0.00  0.00    +0.000 OA
ATOM     14  N   UNL     1      -0.243  11.062  19.963  0.00  0.00    +0.000 N 
ATOM     15  N   UNL     1       0.805  10.937  18.944  0.00  0.00    +0.000 N 
ENDROOT
BRANCH  14  16
ATOM     16  C   UNL     1      -1.560  11.246  19.391  0.00  0.00    +0.000 A 
ATOM     17  C   UNL     1      -2.030  10.429  18.346  0.00  0.00    +0.000 A 
ATOM     18  C   UNL     1      -3.334  10.574  17.842  0.00  0.00    +0.000 A 
ATOM     19  C   UNL     1      -4.191  11.541  18.357  0.00  0.00    +0.000 A 
ATOM     20  C   UNL     1      -3.760  12.340  19.408  0.00  0.00    +0.000 A 
ATOM     21  C   UNL     1      -2.463  12.179  19.936  0.00  0.00    +0.000 A 
ENDBRANCH  14  16
BRANCH  15  22
ATOM     22  C   UNL     1       1.768   9.834  19.371  0.00  0.00    +0.000 C 
BRANCH  22  23
ATOM     23  C   UNL     1       2.164   8.699  18.370  0.00  0.00    +0.000 C 
ATOM     24  O   UNL     1       2.398   8.925  17.182  0.00  0.00    +0.000 OA
ATOM     25  N   UNL     1       2.258   7.376  18.888  0.00  0.00    +0.000 N 
BRANCH  25  26
ATOM     26  C   UNL     1       2.100   7.043  20.330  0.00  0.00    +0.000 C 
ATOM     27  C   UNL     1       1.080   7.898  21.093  0.00  0.00    +0.000 C 
ATOM     28  C   UNL     1       1.770   5.560  20.515  0.00  0.00    +0.000 C 
ENDBRANCH  25  26
BRANCH  25  29
ATOM     29  C   UNL     1       2.716   6.300  17.966  0.00  0.00    +0.000 C 
BRANCH  29  30
ATOM     30  C   UNL     1       4.224   6.109  17.921  0.00  0.00    +0.000 A 
ATOM     31  C   UNL     1       4.891   5.406  18.930  0.00  0.00    +0.000 A 
ATOM     32  C   UNL     1       6.286   5.370  18.975  0.00  0.00    +0.000 A 
ATOM     33  C   UNL     1       7.037   5.982  17.975  0.00  0.00    +0.000 A 
ATOM     34  C   UNL     1       6.389   6.585  16.900  0.00  0.00    +0.000 A 
ATOM     35  C   UNL     1       4.990   6.644  16.867  0.00  0.00    +0.000 A 
ENDBRANCH  29  30
ENDBRANCH  25  29
ENDBRANCH  22  23
ENDBRANCH  15  22
TORSDOF 6
ENDMDL
MODEL 3
REMARK VINA RESULT:      -7.4      2.539      6.935
REMARK  Name = 
REMARK  9 active torsions:
REMARK  status: ('A' for Active; 'I' for Inactive)
REMARK    1  A    between atoms: C_1  and  C_2
REMARK    2  A    between atoms: N_14  and  C_15
REMARK    3  A    between atoms: N_21  and  C_22
REMARK    4  A    between atoms: C_22  and  C_23
REMARK    5  A    between atoms: N_25  and  C_26
REMARK    6  A    between atoms: N_25  and  C_33
REMARK    7  A    between atoms: C_26  and  C_27
REMARK    8  A    between atoms: C_33  and  C_34
REMARK    9  A    between atoms: C_33  and  C_35
REMARK                            x       y       z     vdW  Elec       q    Type
REMARK                         _______ _______ _______ _____ _____    ______ ____
ROOT
ATOM      1  C   UNL     1      -0.454  16.825  19.380  0.00  0.00    +0.000 C 
ATOM      2  C   UNL     1       0.118  15.574  19.985  0.00  0.00    +0.000 A 
ATOM      3  C   UNL     1       1.510  15.394  20.152  0.00  0.00    +0.000 A 
ATOM      4  C   UNL     1       2.527  16.055  19.423  0.00  0.00    +0.000 A 
ATOM      5  C   UNL     1       3.856  15.647  19.526  0.00  0.00    +0.000 A 
ATOM      6  C   UNL     1       4.165  14.529  20.287  0.00  0.00    +0.000 A 
ATOM      7  C   UNL     1       3.178  13.964  21.097  0.00  0.00    +0.000 A 
ATOM      8  C   UNL     1       1.891  14.485  21.147  0.00  0.00    +0.000 A 
ATOM      9  N   UNL     1       1.039  14.127  22.135  0.00  0.00    +0.000 NA
ATOM     10  C   UNL     1      -0.277  14.445  22.027  0.00  0.00    +0.000 A 
ATOM     11  C   UNL     1      -0.735  14.809  20.779  0.00  0.00    +0.000 A 
ATOM     12  C   UNL     1      -1.254  13.439  20.374  0.00  0.00    +0.000 A 
ATOM     13  O   UNL     1      -1.420  13.105  19.224  0.00  0.00    +0.000 OA
ATOM     14  N   UNL     1      -1.396  12.670  21.575  0.00  0.00    +0.000 N 
ATOM     15  N   UNL     1      -1.237  13.614  22.689  0.00  0.00    +0.000 N 
ENDROOT
BRANCH  14  16
ATOM     16  C   UNL     1      -0.687  11.427  21.792  0.00  0.00    +0.000 A 
ATOM     17  C   UNL     1       0.277  10.960  20.880  0.00  0.00    +0.000 A 
ATOM     18  C   UNL     1       1.006   9.785  21.133  0.00  0.00    +0.000 A 
ATOM     19  C   UNL     1       0.783   9.045  22.290  0.00  0.00    +0.000 A 
ATOM     20  C   UNL     1      -0.144   9.501  23.219  0.00  0.00    +0.000 A 
ATOM     21  C   UNL     1      -0.857  10.694  22.983  0.00  0.00    +0.000 A 
ENDBRANCH  14  16
BRANCH  15  22
ATOM     22  C   UNL     1      -2.586  14.271  22.963  0.00  0.00    +0.000 C 
BRANCH  22  23
ATOM     23  C   UNL     1      -3.914  13.481  22.721  0.00  0.00    +0.000 C 
ATOM     24  O   UNL     1      -4.070  12.324  23.115  0.00  0.00    +0.000 OA
ATOM     25  N   UNL     1      -4.958  14.157  22.027  0.00  0.00    +0.000 N 
BRANCH  25  26
ATOM     26  C   UNL     1      -4.885  15.586  21.619  0.00  0.00    +0.000 C 
ATOM     27  C   UNL     1      -5.365  15.887  20.194  0.00  0.00    +0.000 C 
ATOM     28  C   UNL     1      -5.635  16.476  22.614  0.00  0.00    +0.000 C 
ENDBRANCH  25  26
BRANCH  25  29
ATOM     29  C   UNL     1      -6.257  13.447  21.864  0.00  0.00    +0.000 C 
BRANCH  29  30
ATOM     30  C   UNL     1      -6.269  12.402  20.759  0.00  0.00    +0.000 A 
ATOM     31  C   UNL     1      -5.424  12.518  19.650  0.00  0.00    +0.000 A 
ATOM     32  C   UNL     1      -5.549  11.653  18.561  0.00  0.00    +0.000 A 
ATOM     33  C   UNL     1      -6.478  10.617  18.591  0.00  0.00    +0.000 A 
ATOM     34  C   UNL     1      -7.246  10.414  19.735  0.00  0.00    +0.000 A 
ATOM     35  C   UNL     1      -7.139  11.297  20.817  0.00  0.00    +0.000 A 
ENDBRANCH  29  30
ENDBRANCH  25  29
ENDBRANCH  22  23
ENDBRANCH  15  22
TORSDOF 6
ENDMDL
MODEL 4
REMARK VINA RESULT:      -7.3      2.952      6.896
REMARK  Name = 
REMARK  9 active torsions:
REMARK  status: ('A' for Active; 'I' for Inactive)
REMARK    1  A    between atoms: C_1  and  C_2
REMARK    2  A    between atoms: N_14  and  C_15
REMARK    3  A    between atoms: N_21  and  C_22
REMARK    4  A    between atoms: C_22  and  C_23
REMARK    5  A    between atoms: N_25  and  C_26
REMARK    6  A    between atoms: N_25  and  C_33
REMARK    7  A    between atoms: C_26  and  C_27
REMARK    8  A    between atoms: C_33  and  C_34
REMARK    9  A    between atoms: C_33  and  C_35
REMARK                            x       y       z     vdW  Elec       q    Type
REMARK                         _______ _______ _______ _____ _____    ______ ____
ROOT
ATOM      1  C   UNL     1      -0.581  17.306  20.315  0.00  0.00    +0.000 C 
ATOM      2  C   UNL     1      -0.120  15.894  20.540  0.00  0.00    +0.000 A 
ATOM      3  C   UNL     1       1.196  15.480  20.232  0.00  0.00    +0.000 A 
ATOM      4  C   UNL     1       2.071  16.105  19.312  0.00  0.00    +0.000 A 
ATOM      5  C   UNL     1       3.265  15.492  18.936  0.00  0.00    +0.000 A 
ATOM      6  C   UNL     1       3.551  14.219  19.406  0.00  0.00    +0.000 A 
ATOM      7  C   UNL     1       2.747  13.667  20.406  0.00  0.00    +0.000 A 
ATOM      8  C   UNL     1       1.659  14.356  20.928  0.00  0.00    +0.000 A 
ATOM      9  N   UNL     1       1.074  13.952  22.079  0.00  0.00    +0.000 NA
ATOM     10  C   UNL     1      -0.127  14.477  22.435  0.00  0.00    +0.000 A 
ATOM     11  C   UNL     1      -0.843  15.131  21.455  0.00  0.00    +0.000 A 
ATOM     12  C   UNL     1      -1.718  13.952  21.059  0.00  0.00    +0.000 A 
ATOM     13  O   UNL     1      -2.270  13.865  19.988  0.00  0.00    +0.000 OA
ATOM     14  N   UNL     1      -1.658  13.004  22.133  0.00  0.00    +0.000 N 
ATOM     15  N   UNL     1      -1.002  13.690  23.252  0.00  0.00    +0.000 N 
ENDROOT
BRANCH  14  16
ATOM     16  C   UNL     1      -1.179  11.651  21.949  0.00  0.00    +0.000 A 
ATOM     17  C   UNL     1      -0.726  11.192  20.699  0.00  0.00    +0.000 A 
ATOM     18  C   UNL     1      -0.202   9.896  20.547  0.00  0.00    +0.000 A 
ATOM     19  C   UNL     1      -0.128   9.028  21.631  0.00  0.00    +0.000 A 
ATOM     20  C   UNL     1      -0.543   9.467  22.883  0.00  0.00    +0.000 A 
ATOM     21  C   UNL     1      -1.043  10.776  23.045  0.00  0.00    +0.000 A 
ENDBRANCH  14  16
BRANCH  15  22
ATOM     22  C   UNL     1      -2.056  14.479  24.022  0.00  0.00    +0.000 C 
BRANCH  22  23
ATOM     23  C   UNL     1      -3.561  14.058  23.958  0.00  0.00    +0.000 C 
ATOM     24  O   UNL     1      -3.969  13.007  24.454  0.00  0.00    +0.000 OA
ATOM     25  N   UNL     1      -4.461  14.950  23.307  0.00  0.00    +0.000 N 
BRANCH  25  26
ATOM     26  C   UNL     1      -4.063  16.285  22.785  0.00  0.00    +0.000 C 
ATOM     27  C   UNL     1      -4.479  16.575  21.338  0.00  0.00    +0.000 C 
ATOM     28  C   UNL     1      -4.571  17.403  23.700  0.00  0.00    +0.000 C 
ENDBRANCH  25  26
BRANCH  25  29
ATOM     29  C   UNL     1      -5.909  14.602  23.313  0.00  0.00    +0.000 C 
BRANCH  29  30
ATOM     30  C   UNL     1      -6.303  13.530  22.309  0.00  0.00    +0.000 A 
ATOM     31  C   UNL     1      -7.400  12.694  22.543  0.00  0.00    +0.000 A 
ATOM     32  C   UNL     1      -7.664  11.608  21.706  0.00  0.00    +0.000 A 
ATOM     33  C   UNL     1      -6.873  11.379  20.583  0.00  0.00    +0.000 A 
ATOM     34  C   UNL     1      -5.849  12.270  20.269  0.00  0.00    +0.000 A 
ATOM     35  C   UNL     1      -5.568  13.344  21.122  0.00  0.00    +0.000 A 
ENDBRANCH  29  30
ENDBRANCH  25  29
ENDBRANCH  22  23
ENDBRANCH  15  22
TORSDOF 6
ENDMDL
MODEL 5
REMARK VINA RESULT:      -7.3      1.500      8.113
REMARK  Name = 
REMARK  9 active torsions:
REMARK  status: ('A' for Active; 'I' for Inactive)
REMARK    1  A    between atoms: C_1  and  C_2
REMARK    2  A    between atoms: N_14  and  C_15
REMARK    3  A    between atoms: N_21  and  C_22
REMARK    4  A    between atoms: C_22  and  C_23
REMARK    5  A    between atoms: N_25  and  C_26
REMARK    6  A    between atoms: N_25  and  C_33
REMARK    7  A    between atoms: C_26  and  C_27
REMARK    8  A    between atoms: C_33  and  C_34
REMARK    9  A    between atoms: C_33  and  C_35
REMARK                            x       y       z     vdW  Elec       q    Type
REMARK                         _______ _______ _______ _____ _____    ______ ____
ROOT
ATOM      1  C   UNL     1       4.928  14.334  22.588  0.00  0.00    +0.000 C 
ATOM      2  C   UNL     1       4.482  14.854  21.250  0.00  0.00    +0.000 A 
ATOM      3  C   UNL     1       5.351  14.894  20.136  0.00  0.00    +0.000 A 
ATOM      4  C   UNL     1       6.766  14.916  20.186  0.00  0.00    +0.000 A 
ATOM      5  C   UNL     1       7.514  15.165  19.037  0.00  0.00    +0.000 A 
ATOM      6  C   UNL     1       6.858  15.478  17.855  0.00  0.00    +0.000 A 
ATOM      7  C   UNL     1       5.471  15.332  17.787  0.00  0.00    +0.000 A 
ATOM      8  C   UNL     1       4.732  14.896  18.880  0.00  0.00    +0.000 A 
ATOM      9  N   UNL     1       3.454  14.478  18.727  0.00  0.00    +0.000 NA
ATOM     10  C   UNL     1       2.676  14.298  19.825  0.00  0.00    +0.000 A 
ATOM     11  C   UNL     1       3.110  14.867  21.003  0.00  0.00    +0.000 A 
ATOM     12  C   UNL     1       2.289  16.143  20.896  0.00  0.00    +0.000 A 
ATOM     13  O   UNL     1       2.571  17.164  21.477  0.00  0.00    +0.000 OA
ATOM     14  N   UNL     1       1.245  15.893  19.946  0.00  0.00    +0.000 N 
ATOM     15  N   UNL     1       1.258  14.448  19.691  0.00  0.00    +0.000 N 
ENDROOT
BRANCH  14  16
ATOM     16  C   UNL     1       1.093  16.672  18.735  0.00  0.00    +0.000 A 
ATOM     17  C   UNL     1      -0.165  17.137  18.311  0.00  0.00    +0.000 A 
ATOM     18  C   UNL     1      -0.291  17.947  17.168  0.00  0.00    +0.000 A 
ATOM     19  C   UNL     1       0.827  18.301  16.421  0.00  0.00    +0.000 A 
ATOM     20  C   UNL     1       2.083  17.878  16.835  0.00  0.00    +0.000 A 
ATOM     21  C   UNL     1       2.218  17.088  17.996  0.00  0.00    +0.000 A 
ENDBRANCH  14  16
BRANCH  15  22
ATOM     22  C   UNL     1       0.427  13.759  20.768  0.00  0.00    +0.000 C 
BRANCH  22  23
ATOM     23  C   UNL     1       0.406  12.199  20.874  0.00  0.00    +0.000 C 
ATOM     24  O   UNL     1       1.144  11.583  21.645  0.00  0.00    +0.000 OA
ATOM     25  N   UNL     1      -0.516  11.501  20.043  0.00  0.00    +0.000 N 
BRANCH  25  26
ATOM     26  C   UNL     1      -1.513  12.178  19.170  0.00  0.00    +0.000 C 
ATOM     27  C   UNL     1      -1.796  11.481  17.834  0.00  0.00    +0.000 C 
ATOM     28  C   UNL     1      -2.828  12.406  19.920  0.00  0.00    +0.000 C 
ENDBRANCH  25  26
BRANCH  25  29
ATOM     29  C   UNL     1      -0.605  10.022  20.193  0.00  0.00    +0.000 C 
BRANCH  29  30
ATOM     30  C   UNL     1       0.581   9.258  19.625  0.00  0.00    +0.000 A 
ATOM     31  C   UNL     1       1.055   9.521  18.335  0.00  0.00    +0.000 A 
ATOM     32  C   UNL     1       2.034   8.712  17.753  0.00  0.00    +0.000 A 
ATOM     33  C   UNL     1       2.601   7.667  18.477  0.00  0.00    +0.000 A 
ATOM     34  C   UNL     1       2.226   7.464  19.803  0.00  0.00    +0.000 A 
ATOM     35  C   UNL     1       1.227   8.258  20.378  0.00  0.00    +0.000 A 
ENDBRANCH  29  30
ENDBRANCH  25  29
ENDBRANCH  22  23
ENDBRANCH  15  22
TORSDOF 6
ENDMDL
MODEL 6
REMARK VINA RESULT:      -7.2      2.114      3.147
REMARK  Name = 
REMARK  9 active torsions:
REMARK  status: ('A' for Active; 'I' for Inactive)
REMARK    1  A    between atoms: C_1  and  C_2
REMARK    2  A    between atoms: N_14  and  C_15
REMARK    3  A    between atoms: N_21  and  C_22
REMARK    4  A    between atoms: C_22  and  C_23
REMARK    5  A    between atoms: N_25  and  C_26
REMARK    6  A    between atoms: N_25  and  C_33
REMARK    7  A    between atoms: C_26  and  C_27
REMARK    8  A    between atoms: C_33  and  C_34
REMARK    9  A    between atoms: C_33  and  C_35
REMARK                            x       y       z     vdW  Elec       q    Type
REMARK                         _______ _______ _______ _____ _____    ______ ____
ROOT
ATOM      1  C   UNL     1      -3.097  13.461  20.861  0.00  0.00    +0.000 C 
ATOM      2  C   UNL     1      -2.368  12.398  20.089  0.00  0.00    +0.000 A 
ATOM      3  C   UNL     1      -2.915  11.812  18.925  0.00  0.00    +0.000 A 
ATOM      4  C   UNL     1      -4.288  11.761  18.586  0.00  0.00    +0.000 A 
ATOM      5  C   UNL     1      -4.729  10.977  17.521  0.00  0.00    +0.000 A 
ATOM      6  C   UNL     1      -3.820  10.177  16.845  0.00  0.00    +0.000 A 
ATOM      7  C   UNL     1      -2.456  10.329  17.104  0.00  0.00    +0.000 A 
ATOM      8  C   UNL     1      -1.991  11.251  18.034  0.00  0.00    +0.000 A 
ATOM      9  N   UNL     1      -0.683  11.600  18.066  0.00  0.00    +0.000 NA
ATOM     10  C   UNL     1      -0.207  12.299  19.128  0.00  0.00    +0.000 A 
ATOM     11  C   UNL     1      -0.987  12.325  20.265  0.00  0.00    +0.000 A 
ATOM     12  C   UNL     1      -0.292  11.178  20.982  0.00  0.00    +0.000 A 
ATOM     13  O   UNL     1      -0.812  10.533  21.862  0.00  0.00    +0.000 OA
ATOM     14  N   UNL     1       0.983  10.999  20.353  0.00  0.00    +0.000 N 
ATOM     15  N   UNL     1       1.175  12.159  19.474  0.00  0.00    +0.000 N 
ENDROOT
BRANCH  14  16
ATOM     16  C   UNL     1       1.372   9.753  19.726  0.00  0.00    +0.000 A 
ATOM     17  C   UNL     1       1.737   9.694  18.368  0.00  0.00    +0.000 A 
ATOM     18  C   UNL     1       2.175   8.491  17.786  0.00  0.00    +0.000 A 
ATOM     19  C   UNL     1       2.248   7.324  18.538  0.00  0.00    +0.000 A 
ATOM     20  C   UNL     1       1.920   7.363  19.888  0.00  0.00    +0.000 A 
ATOM     21  C   UNL     1       1.507   8.573  20.482  0.00  0.00    +0.000 A 
ENDBRANCH  14  16
BRANCH  15  22
ATOM     22  C   UNL     1       1.757  13.301  20.302  0.00  0.00    +0.000 C 
BRANCH  22  23
ATOM     23  C   UNL     1       2.471  14.502  19.599  0.00  0.00    +0.000 C 
ATOM     24  O   UNL     1       2.190  14.851  18.451  0.00  0.00    +0.000 OA
ATOM     25  N   UNL     1       3.465  15.198  20.345  0.00  0.00    +0.000 N 
BRANCH  25  26
ATOM     26  C   UNL     1       3.778  14.906  21.770  0.00  0.00    +0.000 C 
ATOM     27  C   UNL     1       5.144  14.255  22.022  0.00  0.00    +0.000 C 
ATOM     28  C   UNL     1       3.644  16.168  22.627  0.00  0.00    +0.000 C 
ENDBRANCH  25  26
BRANCH  25  29
ATOM     29  C   UNL     1       4.092  16.395  19.719  0.00  0.00    +0.000 C 
BRANCH  29  30
ATOM     30  C   UNL     1       5.479  16.152  19.146  0.00  0.00    +0.000 A 
ATOM     31  C   UNL     1       6.513  17.073  19.348  0.00  0.00    +0.000 A 
ATOM     32  C   UNL     1       7.735  16.933  18.688  0.00  0.00    +0.000 A 
ATOM     33  C   UNL     1       7.967  15.834  17.866  0.00  0.00    +0.000 A 
ATOM     34  C   UNL     1       6.993  14.846  17.746  0.00  0.00    +0.000 A 
ATOM     35  C   UNL     1       5.757  14.999  18.387  0.00  0.00    +0.000 A 
ENDBRANCH  29  30
ENDBRANCH  25  29
ENDBRANCH  22  23
ENDBRANCH  15  22
TORSDOF 6
ENDMDL
MODEL 7
REMARK VINA RESULT:      -7.1      2.611      6.116
REMARK  Name = 
REMARK  9 active torsions:
REMARK  status: ('A' for Active; 'I' for Inactive)
REMARK    1  A    between atoms: C_1  and  C_2
REMARK    2  A    between atoms: N_14  and  C_15
REMARK    3  A    between atoms: N_21  and  C_22
REMARK    4  A    between atoms: C_22  and  C_23
REMARK    5  A    between atoms: N_25  and  C_26
REMARK    6  A    between atoms: N_25  and  C_33
REMARK    7  A    between atoms: C_26  and  C_27
REMARK    8  A    between atoms: C_33  and  C_34
REMARK    9  A    between atoms: C_33  and  C_35
REMARK                            x       y       z     vdW  Elec       q    Type
REMARK                         _______ _______ _______ _____ _____    ______ ____
ROOT
ATOM      1  C   UNL     1      -0.591   8.575  21.710  0.00  0.00    +0.000 C 
ATOM      2  C   UNL     1       0.128   9.474  20.744  0.00  0.00    +0.000 A 
ATOM      3  C   UNL     1       0.945   8.961  19.711  0.00  0.00    +0.000 A 
ATOM      4  C   UNL     1       1.562   7.687  19.695  0.00  0.00    +0.000 A 
ATOM      5  C   UNL     1       2.511   7.369  18.725  0.00  0.00    +0.000 A 
ATOM      6  C   UNL     1       2.911   8.343  17.823  0.00  0.00    +0.000 A 
ATOM      7  C   UNL     1       2.210   9.549  17.768  0.00  0.00    +0.000 A 
ATOM      8  C   UNL     1       1.132   9.802  18.607  0.00  0.00    +0.000 A 
ATOM      9  N   UNL     1       0.286  10.828  18.355  0.00  0.00    +0.000 NA
ATOM     10  C   UNL     1      -0.601  11.210  19.310  0.00  0.00    +0.000 A 
ATOM     11  C   UNL     1      -0.370  10.768  20.595  0.00  0.00    +0.000 A 
ATOM     12  C   UNL     1       0.361  12.009  21.081  0.00  0.00    +0.000 A 
ATOM     13  O   UNL     1       1.114  12.009  22.026  0.00  0.00    +0.000 OA
ATOM     14  N   UNL     1       0.045  13.069  20.168  0.00  0.00    +0.000 N 
ATOM     15  N   UNL     1      -1.047  12.571  19.322  0.00  0.00    +0.000 N 
ENDROOT
BRANCH  14  16
ATOM     16  C   UNL     1       1.060  13.772  19.412  0.00  0.00    +0.000 A 
ATOM     17  C   UNL     1       2.275  13.158  19.060  0.00  0.00    +0.000 A 
ATOM     18  C   UNL     1       3.226  13.829  18.271  0.00  0.00    +0.000 A 
ATOM     19  C   UNL     1       2.992  15.126  17.826  0.00  0.00    +0.000 A 
ATOM     20  C   UNL     1       1.787  15.744  18.137  0.00  0.00    +0.000 A 
ATOM     21  C   UNL     1       0.819  15.064  18.905  0.00  0.00    +0.000 A 
ENDBRANCH  14  16
BRANCH  15  22
ATOM     22  C   UNL     1      -2.368  12.815  20.045  0.00  0.00    +0.000 C 
BRANCH  22  23
ATOM     23  C   UNL     1      -2.580  14.115  20.888  0.00  0.00    +0.000 C 
ATOM     24  O   UNL     1      -2.340  15.236  20.437  0.00  0.00    +0.000 OA
ATOM     25  N   UNL     1      -3.076  13.959  22.214  0.00  0.00    +0.000 N 
BRANCH  25  26
ATOM     26  C   UNL     1      -3.492  12.651  22.788  0.00  0.00    +0.000 C 
ATOM     27  C   UNL     1      -2.383  11.860  23.493  0.00  0.00    +0.000 C 
ATOM     28  C   UNL     1      -4.682  12.825  23.736  0.00  0.00    +0.000 C 
ENDBRANCH  25  26
BRANCH  25  29
ATOM     29  C   UNL     1      -3.362  15.192  22.998  0.00  0.00    +0.000 C 
BRANCH  29  30
ATOM     30  C   UNL     1      -2.254  15.599  23.957  0.00  0.00    +0.000 A 
ATOM     31  C   UNL     1      -2.276  15.192  25.296  0.00  0.00    +0.000 A 
ATOM     32  C   UNL     1      -1.352  15.698  26.213  0.00  0.00    +0.000 A 
ATOM     33  C   UNL     1      -0.350  16.568  25.792  0.00  0.00    +0.000 A 
ATOM     34  C   UNL     1      -0.241  16.891  24.442  0.00  0.00    +0.000 A 
ATOM     35  C   UNL     1      -1.183  16.405  23.527  0.00  0.00    +0.000 A 
ENDBRANCH  29  30
ENDBRANCH  25  29
ENDBRANCH  22  23
ENDBRANCH  15  22
TORSDOF 6
ENDMDL
MODEL 8
REMARK VINA RESULT:      -7.1      2.497      4.693
REMARK  Name = 
REMARK  9 active torsions:
REMARK  status: ('A' for Active; 'I' for Inactive)
REMARK    1  A    between atoms: C_1  and  C_2
REMARK    2  A    between atoms: N_14  and  C_15
REMARK    3  A    between atoms: N_21  and  C_22
REMARK    4  A    between atoms: C_22  and  C_23
REMARK    5  A    between atoms: N_25  and  C_26
REMARK    6  A    between atoms: N_25  and  C_33
REMARK    7  A    between atoms: C_26  and  C_27
REMARK    8  A    between atoms: C_33  and  C_34
REMARK    9  A    between atoms: C_33  and  C_35
REMARK                            x       y       z     vdW  Elec       q    Type
REMARK                         _______ _______ _______ _____ _____    ______ ____
ROOT
ATOM      1  C   UNL     1      -1.950  17.021  21.599  0.00  0.00    +0.000 C 
ATOM      2  C   UNL     1      -2.090  15.534  21.763  0.00  0.00    +0.000 A 
ATOM      3  C   UNL     1      -3.262  14.947  22.291  0.00  0.00    +0.000 A 
ATOM      4  C   UNL     1      -4.212  15.588  23.121  0.00  0.00    +0.000 A 
ATOM      5  C   UNL     1      -5.217  14.856  23.750  0.00  0.00    +0.000 A 
ATOM      6  C   UNL     1      -5.228  13.474  23.625  0.00  0.00    +0.000 A 
ATOM      7  C   UNL     1      -4.367  12.867  22.709  0.00  0.00    +0.000 A 
ATOM      8  C   UNL     1      -3.489  13.612  21.932  0.00  0.00    +0.000 A 
ATOM      9  N   UNL     1      -2.882  13.061  20.855  0.00  0.00    +0.000 NA
ATOM     10  C   UNL     1      -1.849  13.717  20.266  0.00  0.00    +0.000 A 
ATOM     11  C   UNL     1      -1.255  14.732  20.986  0.00  0.00    +0.000 A 
ATOM     12  C   UNL     1      -0.119  13.900  21.559  0.00  0.00    +0.000 A 
ATOM     13  O   UNL     1       0.488  14.204  22.559  0.00  0.00    +0.000 OA
ATOM     14  N   UNL     1      -0.011  12.721  20.751  0.00  0.00    +0.000 N 
ATOM     15  N   UNL     1      -0.858  12.949  19.574  0.00  0.00    +0.000 N 
ENDROOT
BRANCH  14  16
ATOM     16  C   UNL     1      -0.163  11.388  21.297  0.00  0.00    +0.000 A 
ATOM     17  C   UNL     1       0.240  10.247  20.579  0.00  0.00    +0.000 A 
ATOM     18  C   UNL     1       0.148   8.964  21.146  0.00  0.00    +0.000 A 
ATOM     19  C   UNL     1      -0.357   8.789  22.430  0.00  0.00    +0.000 A 
ATOM     20  C   UNL     1      -0.735   9.902  23.170  0.00  0.00    +0.000 A 
ATOM     21  C   UNL     1      -0.618  11.194  22.616  0.00  0.00    +0.000 A 
ENDBRANCH  14  16
BRANCH  15  22
ATOM     22  C   UNL     1      -0.046  13.720  18.537  0.00  0.00    +0.000 C 
BRANCH  22  23
ATOM     23  C   UNL     1       1.514  13.618  18.520  0.00  0.00    +0.000 C 
ATOM     24  O   UNL     1       2.100  12.541  18.410  0.00  0.00    +0.000 OA
ATOM     25  N   UNL     1       2.248  14.834  18.627  0.00  0.00    +0.000 N 
BRANCH  25  26
ATOM     26  C   UNL     1       1.612  16.180  18.651  0.00  0.00    +0.000 C 
ATOM     27  C   UNL     1       1.562  16.858  20.026  0.00  0.00    +0.000 C 
ATOM     28  C   UNL     1       2.278  17.116  17.639  0.00  0.00    +0.000 C 
ENDBRANCH  25  26
BRANCH  25  29
ATOM     29  C   UNL     1       3.732  14.761  18.529  0.00  0.00    +0.000 C 
BRANCH  29  30
ATOM     30  C   UNL     1       4.459  14.890  19.858  0.00  0.00    +0.000 A 
ATOM     31  C   UNL     1       3.937  14.314  21.022  0.00  0.00    +0.000 A 
ATOM     32  C   UNL     1       4.515  14.568  22.267  0.00  0.00    +0.000 A 
ATOM     33  C   UNL     1       5.663  15.350  22.361  0.00  0.00    +0.000 A 
ATOM     34  C   UNL     1       6.264  15.834  21.202  0.00  0.00    +0.000 A 
ATOM     35  C   UNL     1       5.670  15.601  19.955  0.00  0.00    +0.000 A 
ENDBRANCH  29  30
ENDBRANCH  25  29
ENDBRANCH  22  23
ENDBRANCH  15  22
TORSDOF 6
ENDMDL
MODEL 9
REMARK VINA RESULT:      -7.1      3.300      6.295
REMARK  Name = 
REMARK  9 active torsions:
REMARK  status: ('A' for Active; 'I' for Inactive)
REMARK    1  A    between atoms: C_1  and  C_2
REMARK    2  A    between atoms: N_14  and  C_15
REMARK    3  A    between atoms: N_21  and  C_22
REMARK    4  A    between atoms: C_22  and  C_23
REMARK    5  A    between atoms: N_25  and  C_26
REMARK    6  A    between atoms: N_25  and  C_33
REMARK    7  A    between atoms: C_26  and  C_27
REMARK    8  A    between atoms: C_33  and  C_34
REMARK    9  A    between atoms: C_33  and  C_35
REMARK                            x       y       z     vdW  Elec       q    Type
REMARK                         _______ _______ _______ _____ _____    ______ ____
ROOT
ATOM      1  C   UNL     1      -2.384  15.020  25.898  0.00  0.00    +0.000 C 
ATOM      2  C   UNL     1      -3.306  14.990  24.711  0.00  0.00    +0.000 A 
ATOM      3  C   UNL     1      -4.033  16.131  24.301  0.00  0.00    +0.000 A 
ATOM      4  C   UNL     1      -4.373  17.237  25.115  0.00  0.00    +0.000 A 
ATOM      5  C   UNL     1      -5.267  18.206  24.662  0.00  0.00    +0.000 A 
ATOM      6  C   UNL     1      -5.891  18.031  23.435  0.00  0.00    +0.000 A 
ATOM      7  C   UNL     1      -5.458  17.007  22.591  0.00  0.00    +0.000 A 
ATOM      8  C   UNL     1      -4.427  16.150  22.957  0.00  0.00    +0.000 A 
ATOM      9  N   UNL     1      -3.821  15.365  22.036  0.00  0.00    +0.000 NA
ATOM     10  C   UNL     1      -3.002  14.365  22.449  0.00  0.00    +0.000 A 
ATOM     11  C   UNL     1      -3.092  13.983  23.771  0.00  0.00    +0.000 A 
ATOM     12  C   UNL     1      -4.048  12.821  23.555  0.00  0.00    +0.000 A 
ATOM     13  O   UNL     1      -4.752  12.369  24.427  0.00  0.00    +0.000 OA
ATOM     14  N   UNL     1      -3.989  12.481  22.163  0.00  0.00    +0.000 N 
ATOM     15  N   UNL     1      -2.847  13.216  21.608  0.00  0.00    +0.000 N 
ENDROOT
BRANCH  14  16
ATOM     16  C   UNL     1      -5.152  12.523  21.303  0.00  0.00    +0.000 A 
ATOM     17  C   UNL     1      -5.053  12.300  19.917  0.00  0.00    +0.000 A 
ATOM     18  C   UNL     1      -6.198  12.280  19.102  0.00  0.00    +0.000 A 
ATOM     19  C   UNL     1      -7.461  12.492  19.644  0.00  0.00    +0.000 A 
ATOM     20  C   UNL     1      -7.588  12.687  21.014  0.00  0.00    +0.000 A 
ATOM     21  C   UNL     1      -6.445  12.680  21.840  0.00  0.00    +0.000 A 
ENDBRANCH  14  16
BRANCH  15  22
ATOM     22  C   UNL     1      -1.581  12.400  21.849  0.00  0.00    +0.000 C 
BRANCH  22  23
ATOM     23  C   UNL     1      -0.214  12.866  21.251  0.00  0.00    +0.000 C 
ATOM     24  O   UNL     1       0.573  13.571  21.884  0.00  0.00    +0.000 OA
ATOM     25  N   UNL     1       0.102  12.433  19.931  0.00  0.00    +0.000 N 
BRANCH  25  26
ATOM     26  C   UNL     1      -0.744  11.493  19.149  0.00  0.00    +0.000 C 
ATOM     27  C   UNL     1      -1.599  12.137  18.050  0.00  0.00    +0.000 C 
ATOM     28  C   UNL     1       0.102  10.367  18.548  0.00  0.00    +0.000 C 
ENDBRANCH  25  26
BRANCH  25  29
ATOM     29  C   UNL     1       1.437  12.800  19.381  0.00  0.00    +0.000 C 
BRANCH  29  30
ATOM     30  C   UNL     1       1.533  14.224  18.857  0.00  0.00    +0.000 A 
ATOM     31  C   UNL     1       2.747  14.738  18.389  0.00  0.00    +0.000 A 
ATOM     32  C   UNL     1       2.873  16.090  18.062  0.00  0.00    +0.000 A 
ATOM     33  C   UNL     1       1.770  16.936  18.137  0.00  0.00    +0.000 A 
ATOM     34  C   UNL     1       0.526  16.417  18.487  0.00  0.00    +0.000 A 
ATOM     35  C   UNL     1       0.404  15.067  18.840  0.00  0.00    +0.000 A 
ENDBRANCH  29  30
ENDBRANCH  25  29
ENDBRANCH  22  23
ENDBRANCH  15  22
TORSDOF 6
ENDMDL
