MODEL 1
REMARK VINA RESULT:      -8.3      0.000      0.000
REMARK  Name = 
REMARK  6 active torsions:
REMARK  status: ('A' for Active; 'I' for Inactive)
REMARK    1  A    between atoms: C_1  and  O_2
REMARK    2  A    between atoms: O_2  and  C_3
REMARK    3  A    between atoms: C_5  and  C_6
REMARK    4  A    between atoms: C_7  and  C_8
REMARK    5  A    between atoms: C_10  and  S_11
REMARK    6  A    between atoms: S_11  and  N_14
REMARK                            x       y       z     vdW  Elec       q    Type
REMARK                         _______ _______ _______ _____ _____    ______ ____
ROOT
ATOM      1  S   UNL     1       3.612   3.402  17.874  0.00  0.00    +0.000 S 
ATOM      2  O   UNL     1       3.938   2.359  18.830  0.00  0.00    +0.000 OA
ATOM      3  O   UNL     1       2.567   3.154  16.897  0.00  0.00    +0.000 OA
ENDROOT
BRANCH   1   4
ATOM      4  N   UNL     1       5.023   3.882  17.064  0.00  0.00    +0.000 N 
ATOM      5  C   UNL     1       5.135   3.576  15.625  0.00  0.00    +0.000 C 
ATOM      6  C   UNL     1       5.251   4.882  14.858  0.00  0.00    +0.000 C 
ATOM      7  C   UNL     1       6.521   5.608  15.273  0.00  0.00    +0.000 C 
ATOM      8  C   UNL     1       6.713   5.642  16.770  0.00  0.00    +0.000 A 
ATOM      9  C   UNL     1       7.672   6.531  17.287  0.00  0.00    +0.000 A 
ATOM     10  C   UNL     1       7.924   6.573  18.654  0.00  0.00    +0.000 A 
ATOM     11  C   UNL     1       7.240   5.717  19.508  0.00  0.00    +0.000 A 
ATOM     12  C   UNL     1       6.291   4.820  19.002  0.00  0.00    +0.000 A 
ATOM     13  C   UNL     1       5.998   4.783  17.635  0.00  0.00    +0.000 A 
ENDBRANCH   1   4
BRANCH   1  21
ATOM     14  C   UNL     1       2.562   4.679  20.134  0.00  0.00    +0.000 A 
ATOM     15  C   UNL     1       1.976   5.802  20.743  0.00  0.00    +0.000 A 
ATOM     16  C   UNL     1       1.881   7.045  20.090  0.00  0.00    +0.000 A 
ATOM     17  C   UNL     1       1.184   8.178  20.793  0.00  0.00    +0.000 C 
ATOM     18  C   UNL     1       2.427   7.183  18.806  0.00  0.00    +0.000 A 
ATOM     19  C   UNL     1       2.398   8.475  18.035  0.00  0.00    +0.000 C 
ATOM     20  C   UNL     1       3.017   6.064  18.192  0.00  0.00    +0.000 A 
ATOM     21  C   UNL     1       3.083   4.818  18.843  0.00  0.00    +0.000 A 
BRANCH  14  23
ATOM     22  C   UNL     1       1.515   2.968  21.425  0.00  0.00    +0.000 C 
ATOM     23  O   UNL     1       2.672   3.471  20.763  0.00  0.00    +0.000 OA
ENDBRANCH  14  23
ENDBRANCH   1  21
TORSDOF 3
ENDMDL
MODEL 2
REMARK VINA RESULT:      -7.3      5.471      8.790
REMARK  Name = 
REMARK  6 active torsions:
REMARK  status: ('A' for Active; 'I' for Inactive)
REMARK    1  A    between atoms: C_1  and  O_2
REMARK    2  A    between atoms: O_2  and  C_3
REMARK    3  A    between atoms: C_5  and  C_6
REMARK    4  A    between atoms: C_7  and  C_8
REMARK    5  A    between atoms: C_10  and  S_11
REMARK    6  A    between atoms: S_11  and  N_14
REMARK                            x       y       z     vdW  Elec       q    Type
REMARK                         _______ _______ _______ _____ _____    ______ ____
ROOT
ATOM      1  S   UNL     1       0.588  11.300  19.803  0.00  0.00    +0.000 S 
ATOM      2  O   UNL     1       1.144  11.834  21.034  0.00  0.00    +0.000 OA
ATOM      3  O   UNL     1       1.013  11.870  18.537  0.00  0.00    +0.000 OA
ENDROOT
BRANCH   1   4
ATOM      4  N   UNL     1      -1.105  11.342  19.889  0.00  0.00    +0.000 N 
ATOM      5  C   UNL     1      -1.724  11.939  21.089  0.00  0.00    +0.000 C 
ATOM      6  C   UNL     1      -2.549  13.141  20.662  0.00  0.00    +0.000 C 
ATOM      7  C   UNL     1      -3.672  12.691  19.742  0.00  0.00    +0.000 C 
ATOM      8  C   UNL     1      -3.206  11.734  18.673  0.00  0.00    +0.000 A 
ATOM      9  C   UNL     1      -4.070  11.486  17.592  0.00  0.00    +0.000 A 
ATOM     10  C   UNL     1      -3.712  10.579  16.600  0.00  0.00    +0.000 A 
ATOM     11  C   UNL     1      -2.503   9.900  16.692  0.00  0.00    +0.000 A 
ATOM     12  C   UNL     1      -1.640  10.131  17.770  0.00  0.00    +0.000 A 
ATOM     13  C   UNL     1      -1.965  11.063  18.761  0.00  0.00    +0.000 A 
ENDBRANCH   1   4
BRANCH   1  21
ATOM     14  C   UNL     1       0.768   8.700  20.828  0.00  0.00    +0.000 A 
ATOM     15  C   UNL     1       1.341   7.417  20.814  0.00  0.00    +0.000 A 
ATOM     16  C   UNL     1       2.193   6.987  19.780  0.00  0.00    +0.000 A 
ATOM     17  C   UNL     1       2.811   5.618  19.876  0.00  0.00    +0.000 C 
ATOM     18  C   UNL     1       2.447   7.849  18.704  0.00  0.00    +0.000 A 
ATOM     19  C   UNL     1       3.322   7.475  17.539  0.00  0.00    +0.000 C 
ATOM     20  C   UNL     1       1.874   9.134  18.710  0.00  0.00    +0.000 A 
ATOM     21  C   UNL     1       1.045   9.564  19.763  0.00  0.00    +0.000 A 
BRANCH  14  23
ATOM     22  C   UNL     1       0.494   9.344  23.108  0.00  0.00    +0.000 C 
ATOM     23  O   UNL     1      -0.071   9.124  21.820  0.00  0.00    +0.000 OA
ENDBRANCH  14  23
ENDBRANCH   1  21
TORSDOF 3
ENDMDL
MODEL 3
REMARK VINA RESULT:      -7.0      1.493      5.010
REMARK  Name = 
REMARK  6 active torsions:
REMARK  status: ('A' for Active; 'I' for Inactive)
REMARK    1  A    between atoms: C_1  and  O_2
REMARK    2  A    between atoms: O_2  and  C_3
REMARK    3  A    between atoms: C_5  and  C_6
REMARK    4  A    between atoms: C_7  and  C_8
REMARK    5  A    between atoms: C_10  and  S_11
REMARK    6  A    between atoms: S_11  and  N_14
REMARK                            x       y       z     vdW  Elec       q    Type
REMARK                         _______ _______ _______ _____ _____    ______ ____
ROOT
ATOM      1  S   UNL     1       2.963   2.817  17.464  0.00  0.00    +0.000 S 
ATOM      2  O   UNL     1       2.564   3.140  16.105  0.00  0.00    +0.000 OA
ATOM      3  O   UNL     1       3.152   1.424  17.825  0.00  0.00    +0.000 OA
ENDROOT
BRANCH   1   4
ATOM      4  N   UNL     1       1.872   3.528  18.551  0.00  0.00    +0.000 N 
ATOM      5  C   UNL     1       0.974   2.638  19.313  0.00  0.00    +0.000 C 
ATOM      6  C   UNL     1       1.266   2.806  20.795  0.00  0.00    +0.000 C 
ATOM      7  C   UNL     1       0.964   4.234  21.217  0.00  0.00    +0.000 C 
ATOM      8  C   UNL     1       1.525   5.259  20.262  0.00  0.00    +0.000 A 
ATOM      9  C   UNL     1       1.576   6.597  20.691  0.00  0.00    +0.000 A 
ATOM     10  C   UNL     1       2.041   7.591  19.837  0.00  0.00    +0.000 A 
ATOM     11  C   UNL     1       2.435   7.261  18.546  0.00  0.00    +0.000 A 
ATOM     12  C   UNL     1       2.376   5.933  18.104  0.00  0.00    +0.000 A 
ATOM     13  C   UNL     1       1.943   4.913  18.957  0.00  0.00    +0.000 A 
ENDBRANCH   1   4
BRANCH   1  21
ATOM     14  C   UNL     1       5.057   3.851  19.008  0.00  0.00    +0.000 A 
ATOM     15  C   UNL     1       6.184   4.680  19.144  0.00  0.00    +0.000 A 
ATOM     16  C   UNL     1       6.788   5.310  18.039  0.00  0.00    +0.000 A 
ATOM     17  C   UNL     1       7.955   6.229  18.281  0.00  0.00    +0.000 C 
ATOM     18  C   UNL     1       6.279   5.069  16.755  0.00  0.00    +0.000 A 
ATOM     19  C   UNL     1       6.868   5.674  15.510  0.00  0.00    +0.000 C 
ATOM     20  C   UNL     1       5.153   4.238  16.613  0.00  0.00    +0.000 A 
ATOM     21  C   UNL     1       4.539   3.635  17.727  0.00  0.00    +0.000 A 
BRANCH  14  23
ATOM     22  C   UNL     1       4.974   1.944  20.438  0.00  0.00    +0.000 C 
ATOM     23  O   UNL     1       4.470   3.225  20.071  0.00  0.00    +0.000 OA
ENDBRANCH  14  23
ENDBRANCH   1  21
TORSDOF 3
ENDMDL
MODEL 4
REMARK VINA RESULT:      -6.9      7.580     10.129
REMARK  Name = 
REMARK  6 active torsions:
REMARK  status: ('A' for Active; 'I' for Inactive)
REMARK    1  A    between atoms: C_1  and  O_2
REMARK    2  A    between atoms: O_2  and  C_3
REMARK    3  A    between atoms: C_5  and  C_6
REMARK    4  A    between atoms: C_7  and  C_8
REMARK    5  A    between atoms: C_10  and  S_11
REMARK    6  A    between atoms: S_11  and  N_14
REMARK                            x       y       z     vdW  Elec       q    Type
REMARK                         _______ _______ _______ _____ _____    ______ ____
ROOT
ATOM      1  S   UNL     1      -0.852  12.047  18.455  0.00  0.00    +0.000 S 
ATOM      2  O   UNL     1      -0.215  10.850  17.935  0.00  0.00    +0.000 OA
ATOM      3  O   UNL     1      -0.604  13.315  17.794  0.00  0.00    +0.000 OA
ENDROOT
BRANCH   1   4
ATOM      4  N   UNL     1      -0.490  12.202  20.105  0.00  0.00    +0.000 N 
ATOM      5  C   UNL     1      -0.424  13.562  20.675  0.00  0.00    +0.000 C 
ATOM      6  C   UNL     1      -1.488  13.688  21.753  0.00  0.00    +0.000 C 
ATOM      7  C   UNL     1      -1.199  12.705  22.875  0.00  0.00    +0.000 C 
ATOM      8  C   UNL     1      -0.859  11.324  22.371  0.00  0.00    +0.000 A 
ATOM      9  C   UNL     1      -0.869  10.267  23.298  0.00  0.00    +0.000 A 
ATOM     10  C   UNL     1      -0.519   8.981  22.900  0.00  0.00    +0.000 A 
ATOM     11  C   UNL     1      -0.137   8.747  21.585  0.00  0.00    +0.000 A 
ATOM     12  C   UNL     1      -0.113   9.795  20.656  0.00  0.00    +0.000 A 
ATOM     13  C   UNL     1      -0.491  11.089  21.027  0.00  0.00    +0.000 A 
ENDBRANCH   1   4
BRANCH   1  21
ATOM     14  C   UNL     1      -3.242  11.374  17.160  0.00  0.00    +0.000 A 
ATOM     15  C   UNL     1      -4.646  11.370  17.109  0.00  0.00    +0.000 A 
ATOM     16  C   UNL     1      -5.438  11.751  18.209  0.00  0.00    +0.000 A 
ATOM     17  C   UNL     1      -6.934  11.775  18.048  0.00  0.00    +0.000 C 
ATOM     18  C   UNL     1      -4.809  12.106  19.410  0.00  0.00    +0.000 A 
ATOM     19  C   UNL     1      -5.565  12.505  20.648  0.00  0.00    +0.000 C 
ATOM     20  C   UNL     1      -3.403  12.109  19.468  0.00  0.00    +0.000 A 
ATOM     21  C   UNL     1      -2.620  11.753  18.354  0.00  0.00    +0.000 A 
BRANCH  14  23
ATOM     22  C   UNL     1      -3.121  10.420  14.977  0.00  0.00    +0.000 C 
ATOM     23  O   UNL     1      -2.464  10.993  16.103  0.00  0.00    +0.000 OA
ENDBRANCH  14  23
ENDBRANCH   1  21
TORSDOF 3
ENDMDL
MODEL 5
REMARK VINA RESULT:      -6.6      6.809      9.422
REMARK  Name = 
REMARK  6 active torsions:
REMARK  status: ('A' for Active; 'I' for Inactive)
REMARK    1  A    between atoms: C_1  and  O_2
REMARK    2  A    between atoms: O_2  and  C_3
REMARK    3  A    between atoms: C_5  and  C_6
REMARK    4  A    between atoms: C_7  and  C_8
REMARK    5  A    between atoms: C_10  and  S_11
REMARK    6  A    between atoms: S_11  and  N_14
REMARK                            x       y       z     vdW  Elec       q    Type
REMARK                         _______ _______ _______ _____ _____    ______ ____
ROOT
ATOM      1  S   UNL     1      -1.196  12.229  18.863  0.00  0.00    +0.000 S 
ATOM      2  O   UNL     1      -0.668  12.688  17.591  0.00  0.00    +0.000 OA
ATOM      3  O   UNL     1      -1.061  13.085  20.028  0.00  0.00    +0.000 OA
ENDROOT
BRANCH   1   4
ATOM      4  N   UNL     1      -0.547  10.703  19.221  0.00  0.00    +0.000 N 
ATOM      5  C   UNL     1      -0.048   9.882  18.101  0.00  0.00    +0.000 C 
ATOM      6  C   UNL     1       1.437   9.635  18.304  0.00  0.00    +0.000 C 
ATOM      7  C   UNL     1       1.654   8.845  19.585  0.00  0.00    +0.000 C 
ATOM      8  C   UNL     1       0.857   9.384  20.747  0.00  0.00    +0.000 A 
ATOM      9  C   UNL     1       1.197   8.938  22.037  0.00  0.00    +0.000 A 
ATOM     10  C   UNL     1       0.468   9.366  23.142  0.00  0.00    +0.000 A 
ATOM     11  C   UNL     1      -0.614  10.220  22.965  0.00  0.00    +0.000 A 
ATOM     12  C   UNL     1      -0.967  10.661  21.683  0.00  0.00    +0.000 A 
ATOM     13  C   UNL     1      -0.228  10.270  20.562  0.00  0.00    +0.000 A 
ENDBRANCH   1   4
BRANCH   1  21
ATOM     14  C   UNL     1      -3.482  11.619  17.366  0.00  0.00    +0.000 A 
ATOM     15  C   UNL     1      -4.876  11.650  17.194  0.00  0.00    +0.000 A 
ATOM     16  C   UNL     1      -5.750  12.049  18.224  0.00  0.00    +0.000 A 
ATOM     17  C   UNL     1      -7.225  12.111  17.935  0.00  0.00    +0.000 C 
ATOM     18  C   UNL     1      -5.217  12.387  19.477  0.00  0.00    +0.000 A 
ATOM     19  C   UNL     1      -6.067  12.802  20.647  0.00  0.00    +0.000 C 
ATOM     20  C   UNL     1      -3.822  12.354  19.655  0.00  0.00    +0.000 A 
ATOM     21  C   UNL     1      -2.956  11.980  18.611  0.00  0.00    +0.000 A 
BRANCH  14  23
ATOM     22  C   UNL     1      -3.164  10.433  15.321  0.00  0.00    +0.000 C 
ATOM     23  O   UNL     1      -2.626  11.220  16.378  0.00  0.00    +0.000 OA
ENDBRANCH  14  23
ENDBRANCH   1  21
TORSDOF 3
ENDMDL
MODEL 6
REMARK VINA RESULT:      -6.6      5.189      7.731
REMARK  Name = 
REMARK  6 active torsions:
REMARK  status: ('A' for Active; 'I' for Inactive)
REMARK    1  A    between atoms: C_1  and  O_2
REMARK    2  A    between atoms: O_2  and  C_3
REMARK    3  A    between atoms: C_5  and  C_6
REMARK    4  A    between atoms: C_7  and  C_8
REMARK    5  A    between atoms: C_10  and  S_11
REMARK    6  A    between atoms: S_11  and  N_14
REMARK                            x       y       z     vdW  Elec       q    Type
REMARK                         _______ _______ _______ _____ _____    ______ ____
ROOT
ATOM      1  S   UNL     1       0.406   9.629  22.038  0.00  0.00    +0.000 S 
ATOM      2  O   UNL     1       1.734   9.770  22.610  0.00  0.00    +0.000 OA
ATOM      3  O   UNL     1      -0.535   8.720  22.667  0.00  0.00    +0.000 OA
ENDROOT
BRANCH   1   4
ATOM      4  N   UNL     1       0.544   9.232  20.395  0.00  0.00    +0.000 N 
ATOM      5  C   UNL     1      -0.066  10.144  19.407  0.00  0.00    +0.000 C 
ATOM      6  C   UNL     1       1.031  10.689  18.508  0.00  0.00    +0.000 C 
ATOM      7  C   UNL     1       1.677   9.547  17.740  0.00  0.00    +0.000 C 
ATOM      8  C   UNL     1       2.000   8.361  18.616  0.00  0.00    +0.000 A 
ATOM      9  C   UNL     1       2.862   7.379  18.097  0.00  0.00    +0.000 A 
ATOM     10  C   UNL     1       3.159   6.242  18.841  0.00  0.00    +0.000 A 
ATOM     11  C   UNL     1       2.582   6.069  20.093  0.00  0.00    +0.000 A 
ATOM     12  C   UNL     1       1.714   7.036  20.615  0.00  0.00    +0.000 A 
ATOM     13  C   UNL     1       1.427   8.201  19.897  0.00  0.00    +0.000 A 
ENDBRANCH   1   4
BRANCH   1  21
ATOM     14  C   UNL     1       0.393  12.421  21.816  0.00  0.00    +0.000 A 
ATOM     15  C   UNL     1      -0.196  13.667  22.090  0.00  0.00    +0.000 A 
ATOM     16  C   UNL     1      -1.481  13.781  22.654  0.00  0.00    +0.000 A 
ATOM     17  C   UNL     1      -2.011  15.154  22.970  0.00  0.00    +0.000 C 
ATOM     18  C   UNL     1      -2.218  12.616  22.912  0.00  0.00    +0.000 A 
ATOM     19  C   UNL     1      -3.607  12.632  23.489  0.00  0.00    +0.000 C 
ATOM     20  C   UNL     1      -1.634  11.366  22.637  0.00  0.00    +0.000 A 
ATOM     21  C   UNL     1      -0.338  11.262  22.099  0.00  0.00    +0.000 A 
BRANCH  14  23
ATOM     22  C   UNL     1       2.202  13.458  20.659  0.00  0.00    +0.000 C 
ATOM     23  O   UNL     1       1.634  12.298  21.257  0.00  0.00    +0.000 OA
ENDBRANCH  14  23
ENDBRANCH   1  21
TORSDOF 3
ENDMDL
MODEL 7
REMARK VINA RESULT:      -6.6      6.916      9.813
REMARK  Name = 
REMARK  6 active torsions:
REMARK  status: ('A' for Active; 'I' for Inactive)
REMARK    1  A    between atoms: C_1  and  O_2
REMARK    2  A    between atoms: O_2  and  C_3
REMARK    3  A    between atoms: C_5  and  C_6
REMARK    4  A    between atoms: C_7  and  C_8
REMARK    5  A    between atoms: C_10  and  S_11
REMARK    6  A    between atoms: S_11  and  N_14
REMARK                            x       y       z     vdW  Elec       q    Type
REMARK                         _______ _______ _______ _____ _____    ______ ____
ROOT
ATOM      1  S   UNL     1      -1.229  13.041  19.800  0.00  0.00    +0.000 S 
ATOM      2  O   UNL     1      -0.454  12.949  18.575  0.00  0.00    +0.000 OA
ATOM      3  O   UNL     1      -1.511  14.354  20.353  0.00  0.00    +0.000 OA
ENDROOT
BRANCH   1   4
ATOM      4  N   UNL     1      -0.504  12.082  20.996  0.00  0.00    +0.000 N 
ATOM      5  C   UNL     1      -0.746  12.434  22.409  0.00  0.00    +0.000 C 
ATOM      6  C   UNL     1      -1.452  11.270  23.085  0.00  0.00    +0.000 C 
ATOM      7  C   UNL     1      -0.553  10.045  23.064  0.00  0.00    +0.000 C 
ATOM      8  C   UNL     1       0.080   9.805  21.716  0.00  0.00    +0.000 A 
ATOM      9  C   UNL     1       0.680   8.554  21.486  0.00  0.00    +0.000 A 
ATOM     10  C   UNL     1       1.318   8.293  20.279  0.00  0.00    +0.000 A 
ATOM     11  C   UNL     1       1.381   9.282  19.305  0.00  0.00    +0.000 A 
ATOM     12  C   UNL     1       0.797  10.535  19.528  0.00  0.00    +0.000 A 
ATOM     13  C   UNL     1       0.122  10.808  20.721  0.00  0.00    +0.000 A 
ENDBRANCH   1   4
BRANCH   1  21
ATOM     14  C   UNL     1      -3.031  11.522  18.289  0.00  0.00    +0.000 A 
ATOM     15  C   UNL     1      -4.347  11.142  17.973  0.00  0.00    +0.000 A 
ATOM     16  C   UNL     1      -5.447  11.519  18.766  0.00  0.00    +0.000 A 
ATOM     17  C   UNL     1      -6.828  11.120  18.322  0.00  0.00    +0.000 C 
ATOM     18  C   UNL     1      -5.222  12.262  19.934  0.00  0.00    +0.000 A 
ATOM     19  C   UNL     1      -6.327  12.693  20.861  0.00  0.00    +0.000 C 
ATOM     20  C   UNL     1      -3.907  12.643  20.257  0.00  0.00    +0.000 A 
ATOM     21  C   UNL     1      -2.817  12.283  19.442  0.00  0.00    +0.000 A 
BRANCH  14  23
ATOM     22  C   UNL     1      -1.988   9.859  16.933  0.00  0.00    +0.000 C 
ATOM     23  O   UNL     1      -1.954  11.150  17.534  0.00  0.00    +0.000 OA
ENDBRANCH  14  23
ENDBRANCH   1  21
TORSDOF 3
ENDMDL
MODEL 8
REMARK VINA RESULT:      -6.5      1.704      5.786
REMARK  Name = 
REMARK  6 active torsions:
REMARK  status: ('A' for Active; 'I' for Inactive)
REMARK    1  A    between atoms: C_1  and  O_2
REMARK    2  A    between atoms: O_2  and  C_3
REMARK    3  A    between atoms: C_5  and  C_6
REMARK    4  A    between atoms: C_7  and  C_8
REMARK    5  A    between atoms: C_10  and  S_11
REMARK    6  A    between atoms: S_11  and  N_14
REMARK                            x       y       z     vdW  Elec       q    Type
REMARK                         _______ _______ _______ _____ _____    ______ ____
ROOT
ATOM      1  S   UNL     1       4.616   4.053  17.850  0.00  0.00    +0.000 S 
ATOM      2  O   UNL     1       3.421   3.359  17.403  0.00  0.00    +0.000 OA
ATOM      3  O   UNL     1       5.413   3.464  18.911  0.00  0.00    +0.000 OA
ENDROOT
BRANCH   1   4
ATOM      4  N   UNL     1       4.213   5.643  18.279  0.00  0.00    +0.000 N 
ATOM      5  C   UNL     1       4.774   6.744  17.471  0.00  0.00    +0.000 C 
ATOM      6  C   UNL     1       3.628   7.513  16.836  0.00  0.00    +0.000 C 
ATOM      7  C   UNL     1       2.766   8.135  17.922  0.00  0.00    +0.000 C 
ATOM      8  C   UNL     1       2.443   7.172  19.037  0.00  0.00    +0.000 A 
ATOM      9  C   UNL     1       1.419   7.526  19.933  0.00  0.00    +0.000 A 
ATOM     10  C   UNL     1       1.109   6.698  21.007  0.00  0.00    +0.000 A 
ATOM     11  C   UNL     1       1.830   5.527  21.205  0.00  0.00    +0.000 A 
ATOM     12  C   UNL     1       2.859   5.170  20.325  0.00  0.00    +0.000 A 
ATOM     13  C   UNL     1       3.166   5.972  19.221  0.00  0.00    +0.000 A 
ENDBRANCH   1   4
BRANCH   1  21
ATOM     14  C   UNL     1       6.985   4.688  16.498  0.00  0.00    +0.000 A 
ATOM     15  C   UNL     1       7.680   4.950  15.306  0.00  0.00    +0.000 A 
ATOM     16  C   UNL     1       7.104   4.734  14.039  0.00  0.00    +0.000 A 
ATOM     17  C   UNL     1       7.898   5.099  12.814  0.00  0.00    +0.000 C 
ATOM     18  C   UNL     1       5.811   4.199  13.961  0.00  0.00    +0.000 A 
ATOM     19  C   UNL     1       5.118   3.909  12.658  0.00  0.00    +0.000 C 
ATOM     20  C   UNL     1       5.111   3.931  15.152  0.00  0.00    +0.000 A 
ATOM     21  C   UNL     1       5.686   4.177  16.413  0.00  0.00    +0.000 A 
BRANCH  14  23
ATOM     22  C   UNL     1       7.772   6.224  18.144  0.00  0.00    +0.000 C 
ATOM     23  O   UNL     1       7.538   4.881  17.733  0.00  0.00    +0.000 OA
ENDBRANCH  14  23
ENDBRANCH   1  21
TORSDOF 3
ENDMDL
MODEL 9
REMARK VINA RESULT:      -6.4      6.320      9.763
REMARK  Name = 
REMARK  6 active torsions:
REMARK  status: ('A' for Active; 'I' for Inactive)
REMARK    1  A    between atoms: C_1  and  O_2
REMARK    2  A    between atoms: O_2  and  C_3
REMARK    3  A    between atoms: C_5  and  C_6
REMARK    4  A    between atoms: C_7  and  C_8
REMARK    5  A    between atoms: C_10  and  S_11
REMARK    6  A    between atoms: S_11  and  N_14
REMARK                            x       y       z     vdW  Elec       q    Type
REMARK                         _______ _______ _______ _____ _____    ______ ____
ROOT
ATOM      1  S   UNL     1      -0.308  12.260  20.128  0.00  0.00    +0.000 S 
ATOM      2  O   UNL     1       0.273  12.829  21.331  0.00  0.00    +0.000 OA
ATOM      3  O   UNL     1       0.001  12.868  18.846  0.00  0.00    +0.000 OA
ENDROOT
BRANCH   1   4
ATOM      4  N   UNL     1      -1.992  12.172  20.307  0.00  0.00    +0.000 N 
ATOM      5  C   UNL     1      -2.596  12.789  21.505  0.00  0.00    +0.000 C 
ATOM      6  C   UNL     1      -3.540  13.893  21.058  0.00  0.00    +0.000 C 
ATOM      7  C   UNL     1      -4.667  13.298  20.231  0.00  0.00    +0.000 C 
ATOM      8  C   UNL     1      -4.178  12.319  19.192  0.00  0.00    +0.000 A 
ATOM      9  C   UNL     1      -5.074  11.936  18.178  0.00  0.00    +0.000 A 
ATOM     10  C   UNL     1      -4.693  11.002  17.221  0.00  0.00    +0.000 A 
ATOM     11  C   UNL     1      -3.429  10.429  17.282  0.00  0.00    +0.000 A 
ATOM     12  C   UNL     1      -2.533  10.794  18.295  0.00  0.00    +0.000 A 
ATOM     13  C   UNL     1      -2.883  11.756  19.248  0.00  0.00    +0.000 A 
ENDBRANCH   1   4
BRANCH   1  21
ATOM     14  C   UNL     1       0.242   9.714  21.157  0.00  0.00    +0.000 A 
ATOM     15  C   UNL     1       0.908   8.480  21.075  0.00  0.00    +0.000 A 
ATOM     16  C   UNL     1       1.621   8.087  19.926  0.00  0.00    +0.000 A 
ATOM     17  C   UNL     1       2.356   6.774  19.947  0.00  0.00    +0.000 C 
ATOM     18  C   UNL     1       1.633   8.934  18.809  0.00  0.00    +0.000 A 
ATOM     19  C   UNL     1       2.343   8.595  17.527  0.00  0.00    +0.000 C 
ATOM     20  C   UNL     1       0.965  10.170  18.884  0.00  0.00    +0.000 A 
ATOM     21  C   UNL     1       0.278  10.565  20.047  0.00  0.00    +0.000 A 
BRANCH  14  23
ATOM     22  C   UNL     1      -0.203   9.413  23.480  0.00  0.00    +0.000 C 
ATOM     23  O   UNL     1      -0.464  10.101  22.261  0.00  0.00    +0.000 OA
ENDBRANCH  14  23
ENDBRANCH   1  21
TORSDOF 3
ENDMDL
