MODEL 1
REMARK VINA RESULT:      -5.3      0.000      0.000
REMARK  Name = 
REMARK  11 active torsions:
REMARK  status: ('A' for Active; 'I' for Inactive)
REMARK    1  A    between atoms: N_1  and  C_2
REMARK    2  A    between atoms: C_2  and  C_3
REMARK    3  A    between atoms: C_3  and  C_4
REMARK    4  A    between atoms: C_4  and  C_5
REMARK    5  A    between atoms: C_5  and  C_6
REMARK    6  A    between atoms: C_6  and  C_7
REMARK    7  A    between atoms: C_7  and  C_8
REMARK    8  A    between atoms: C_8  and  C_9
REMARK    9  A    between atoms: C_9  and  C_10
REMARK   10  A    between atoms: C_10  and  C_11
REMARK   11  A    between atoms: C_11  and  C_12
REMARK                            x       y       z     vdW  Elec       q    Type
REMARK                         _______ _______ _______ _____ _____    ______ ____
ROOT
ATOM      1  C   UNL     1       2.784   5.779  19.798  0.00  0.00    +0.000 C 
ENDROOT
BRANCH   1   2
ATOM      2  C   UNL     1       1.585   5.114  20.458  0.00  0.00    +0.000 C 
BRANCH   2   3
ATOM      3  C   UNL     1       2.045   4.045  21.437  0.00  0.00    +0.000 C 
BRANCH   3   4
ATOM      4  C   UNL     1       2.401   2.766  20.695  0.00  0.00    +0.000 C 
BRANCH   4   5
ATOM      5  C   UNL     1       1.348   2.449  19.642  0.00  0.00    +0.000 C 
BRANCH   5   6
ATOM      6  C   UNL     1       2.002   2.209  18.286  0.00  0.00    +0.000 C 
BRANCH   6   7
ATOM      7  C   UNL     1       3.520   2.217  18.415  0.00  0.00    +0.000 C 
BRANCH   7   8
ATOM      8  N   UNL     1       4.041   0.868  18.237  0.00  0.00    +0.000 NA
ATOM      9  H   UNL     1       5.034   0.916  18.022  0.00  0.00    +0.000 HD
ATOM     10  H   UNL     1       3.593   0.434  17.431  0.00  0.00    +0.000 HD
ENDBRANCH   7   8
ENDBRANCH   6   7
ENDBRANCH   5   6
ENDBRANCH   4   5
ENDBRANCH   3   4
ENDBRANCH   2   3
ENDBRANCH   1   2
BRANCH   1  11
ATOM     11  C   UNL     1       2.576   5.875  18.294  0.00  0.00    +0.000 C 
BRANCH  11  12
ATOM     12  C   UNL     1       3.832   6.411  17.619  0.00  0.00    +0.000 C 
BRANCH  12  13
ATOM     13  C   UNL     1       5.080   5.781  18.226  0.00  0.00    +0.000 C 
BRANCH  13  14
ATOM     14  C   UNL     1       6.028   5.331  17.179  0.00  0.00    +0.000 A 
ATOM     15  C   UNL     1       7.216   4.649  17.326  0.00  0.00    +0.000 A 
ATOM     16  N   UNL     1       7.696   4.495  16.060  0.00  0.00    +0.000 N 
ATOM     17  C   UNL     1       6.804   5.071  15.205  0.00  0.00    +0.000 A 
ATOM     18  N   UNL     1       5.780   5.581  15.849  0.00  0.00    +0.000 NA
ATOM     19  H   UNL     1       8.560   4.043  15.792  0.00  0.00    +0.000 HD
ENDBRANCH  13  14
ENDBRANCH  12  13
ENDBRANCH  11  12
ENDBRANCH   1  11
TORSDOF 11
ENDMDL
MODEL 2
REMARK VINA RESULT:      -5.3      1.458      1.826
REMARK  Name = 
REMARK  11 active torsions:
REMARK  status: ('A' for Active; 'I' for Inactive)
REMARK    1  A    between atoms: N_1  and  C_2
REMARK    2  A    between atoms: C_2  and  C_3
REMARK    3  A    between atoms: C_3  and  C_4
REMARK    4  A    between atoms: C_4  and  C_5
REMARK    5  A    between atoms: C_5  and  C_6
REMARK    6  A    between atoms: C_6  and  C_7
REMARK    7  A    between atoms: C_7  and  C_8
REMARK    8  A    between atoms: C_8  and  C_9
REMARK    9  A    between atoms: C_9  and  C_10
REMARK   10  A    between atoms: C_10  and  C_11
REMARK   11  A    between atoms: C_11  and  C_12
REMARK                            x       y       z     vdW  Elec       q    Type
REMARK                         _______ _______ _______ _____ _____    ______ ____
ROOT
ATOM      1  C   UNL     1       3.440   6.012  19.384  0.00  0.00    +0.000 C 
ENDROOT
BRANCH   1   2
ATOM      2  C   UNL     1       2.137   5.604  20.054  0.00  0.00    +0.000 C 
BRANCH   2   3
ATOM      3  C   UNL     1       1.427   4.542  19.229  0.00  0.00    +0.000 C 
BRANCH   3   4
ATOM      4  C   UNL     1       0.881   3.447  20.132  0.00  0.00    +0.000 C 
BRANCH   4   5
ATOM      5  C   UNL     1       2.021   2.646  20.749  0.00  0.00    +0.000 C 
BRANCH   5   6
ATOM      6  C   UNL     1       2.977   2.156  19.668  0.00  0.00    +0.000 C 
BRANCH   6   7
ATOM      7  C   UNL     1       4.410   2.149  20.184  0.00  0.00    +0.000 C 
BRANCH   7   8
ATOM      8  N   UNL     1       5.258   2.946  19.307  0.00  0.00    +0.000 NA
ATOM      9  H   UNL     1       5.669   2.343  18.598  0.00  0.00    +0.000 HD
ATOM     10  H   UNL     1       6.035   3.331  19.843  0.00  0.00    +0.000 HD
ENDBRANCH   7   8
ENDBRANCH   6   7
ENDBRANCH   5   6
ENDBRANCH   4   5
ENDBRANCH   3   4
ENDBRANCH   2   3
ENDBRANCH   1   2
BRANCH   1  11
ATOM     11  C   UNL     1       3.281   6.011  17.870  0.00  0.00    +0.000 C 
BRANCH  11  12
ATOM     12  C   UNL     1       4.239   7.011  17.236  0.00  0.00    +0.000 C 
BRANCH  12  13
ATOM     13  C   UNL     1       5.197   6.307  16.282  0.00  0.00    +0.000 C 
BRANCH  13  14
ATOM     14  C   UNL     1       6.312   5.655  17.011  0.00  0.00    +0.000 A 
ATOM     15  C   UNL     1       6.989   4.498  16.695  0.00  0.00    +0.000 A 
ATOM     16  N   UNL     1       7.905   4.339  17.692  0.00  0.00    +0.000 N 
ATOM     17  C   UNL     1       7.760   5.383  18.558  0.00  0.00    +0.000 A 
ATOM     18  N   UNL     1       6.809   6.201  18.172  0.00  0.00    +0.000 NA
ATOM     19  H   UNL     1       8.571   3.584  17.786  0.00  0.00    +0.000 HD
ENDBRANCH  13  14
ENDBRANCH  12  13
ENDBRANCH  11  12
ENDBRANCH   1  11
TORSDOF 11
ENDMDL
MODEL 3
REMARK VINA RESULT:      -5.3      2.338      6.129
REMARK  Name = 
REMARK  11 active torsions:
REMARK  status: ('A' for Active; 'I' for Inactive)
REMARK    1  A    between atoms: N_1  and  C_2
REMARK    2  A    between atoms: C_2  and  C_3
REMARK    3  A    between atoms: C_3  and  C_4
REMARK    4  A    between atoms: C_4  and  C_5
REMARK    5  A    between atoms: C_5  and  C_6
REMARK    6  A    between atoms: C_6  and  C_7
REMARK    7  A    between atoms: C_7  and  C_8
REMARK    8  A    between atoms: C_8  and  C_9
REMARK    9  A    between atoms: C_9  and  C_10
REMARK   10  A    between atoms: C_10  and  C_11
REMARK   11  A    between atoms: C_11  and  C_12
REMARK                            x       y       z     vdW  Elec       q    Type
REMARK                         _______ _______ _______ _____ _____    ______ ____
ROOT
ATOM      1  C   UNL     1       5.316   3.910  16.087  0.00  0.00    +0.000 C 
ENDROOT
BRANCH   1   2
ATOM      2  C   UNL     1       5.857   5.233  15.565  0.00  0.00    +0.000 C 
BRANCH   2   3
ATOM      3  C   UNL     1       5.024   6.391  16.094  0.00  0.00    +0.000 C 
BRANCH   3   4
ATOM      4  C   UNL     1       5.812   7.179  17.129  0.00  0.00    +0.000 C 
BRANCH   4   5
ATOM      5  C   UNL     1       7.297   6.862  17.024  0.00  0.00    +0.000 C 
BRANCH   5   6
ATOM      6  C   UNL     1       7.965   6.967  18.390  0.00  0.00    +0.000 C 
BRANCH   6   7
ATOM      7  C   UNL     1       7.673   5.726  19.225  0.00  0.00    +0.000 C 
BRANCH   7   8
ATOM      8  N   UNL     1       7.928   4.527  18.438  0.00  0.00    +0.000 NA
ATOM      9  H   UNL     1       8.330   4.792  17.541  0.00  0.00    +0.000 HD
ATOM     10  H   UNL     1       7.045   4.062  18.231  0.00  0.00    +0.000 HD
ENDBRANCH   7   8
ENDBRANCH   6   7
ENDBRANCH   5   6
ENDBRANCH   4   5
ENDBRANCH   3   4
ENDBRANCH   2   3
ENDBRANCH   1   2
BRANCH   1  11
ATOM     11  C   UNL     1       4.474   4.137  17.333  0.00  0.00    +0.000 C 
BRANCH  11  12
ATOM     12  C   UNL     1       3.111   3.475  17.179  0.00  0.00    +0.000 C 
BRANCH  12  13
ATOM     13  C   UNL     1       2.021   4.333  17.812  0.00  0.00    +0.000 C 
BRANCH  13  14
ATOM     14  C   UNL     1       1.731   3.907  19.202  0.00  0.00    +0.000 A 
ATOM     15  C   UNL     1       0.756   3.044  19.654  0.00  0.00    +0.000 A 
ATOM     16  N   UNL     1       0.914   3.008  21.007  0.00  0.00    +0.000 N 
ATOM     17  C   UNL     1       1.957   3.828  21.326  0.00  0.00    +0.000 A 
ATOM     18  N   UNL     1       2.477   4.382  20.256  0.00  0.00    +0.000 NA
ATOM     19  H   UNL     1       0.359   2.478  21.666  0.00  0.00    +0.000 HD
ENDBRANCH  13  14
ENDBRANCH  12  13
ENDBRANCH  11  12
ENDBRANCH   1  11
TORSDOF 11
ENDMDL
MODEL 4
REMARK VINA RESULT:      -5.2      1.269      1.662
REMARK  Name = 
REMARK  11 active torsions:
REMARK  status: ('A' for Active; 'I' for Inactive)
REMARK    1  A    between atoms: N_1  and  C_2
REMARK    2  A    between atoms: C_2  and  C_3
REMARK    3  A    between atoms: C_3  and  C_4
REMARK    4  A    between atoms: C_4  and  C_5
REMARK    5  A    between atoms: C_5  and  C_6
REMARK    6  A    between atoms: C_6  and  C_7
REMARK    7  A    between atoms: C_7  and  C_8
REMARK    8  A    between atoms: C_8  and  C_9
REMARK    9  A    between atoms: C_9  and  C_10
REMARK   10  A    between atoms: C_10  and  C_11
REMARK   11  A    between atoms: C_11  and  C_12
REMARK                            x       y       z     vdW  Elec       q    Type
REMARK                         _______ _______ _______ _____ _____    ______ ____
ROOT
ATOM      1  C   UNL     1       2.948   6.407  18.834  0.00  0.00    +0.000 C 
ENDROOT
BRANCH   1   2
ATOM      2  C   UNL     1       3.270   5.445  19.968  0.00  0.00    +0.000 C 
BRANCH   2   3
ATOM      3  C   UNL     1       2.005   5.090  20.736  0.00  0.00    +0.000 C 
BRANCH   3   4
ATOM      4  C   UNL     1       2.234   3.850  21.587  0.00  0.00    +0.000 C 
BRANCH   4   5
ATOM      5  C   UNL     1       1.532   2.646  20.976  0.00  0.00    +0.000 C 
BRANCH   5   6
ATOM      6  C   UNL     1       0.637   3.077  19.820  0.00  0.00    +0.000 C 
BRANCH   6   7
ATOM      7  C   UNL     1       0.982   2.298  18.557  0.00  0.00    +0.000 C 
BRANCH   7   8
ATOM      8  N   UNL     1       2.227   1.565  18.749  0.00  0.00    +0.000 NA
ATOM      9  H   UNL     1       2.296   1.270  19.721  0.00  0.00    +0.000 HD
ATOM     10  H   UNL     1       3.017   2.187  18.579  0.00  0.00    +0.000 HD
ENDBRANCH   7   8
ENDBRANCH   6   7
ENDBRANCH   5   6
ENDBRANCH   4   5
ENDBRANCH   3   4
ENDBRANCH   2   3
ENDBRANCH   1   2
BRANCH   1  11
ATOM     11  C   UNL     1       3.763   6.061  17.597  0.00  0.00    +0.000 C 
BRANCH  11  12
ATOM     12  C   UNL     1       3.644   4.576  17.282  0.00  0.00    +0.000 C 
BRANCH  12  13
ATOM     13  C   UNL     1       5.009   3.899  17.350  0.00  0.00    +0.000 C 
BRANCH  13  14
ATOM     14  C   UNL     1       5.910   4.382  16.277  0.00  0.00    +0.000 A 
ATOM     15  C   UNL     1       7.010   5.205  16.380  0.00  0.00    +0.000 A 
ATOM     16  N   UNL     1       7.470   5.345  15.104  0.00  0.00    +0.000 N 
ATOM     17  C   UNL     1       6.655   4.617  14.288  0.00  0.00    +0.000 A 
ATOM     18  N   UNL     1       5.705   4.017  14.966  0.00  0.00    +0.000 NA
ATOM     19  H   UNL     1       8.264   5.894  14.805  0.00  0.00    +0.000 HD
ENDBRANCH  13  14
ENDBRANCH  12  13
ENDBRANCH  11  12
ENDBRANCH   1  11
TORSDOF 11
ENDMDL
MODEL 5
REMARK VINA RESULT:      -5.2      2.008      3.218
REMARK  Name = 
REMARK  11 active torsions:
REMARK  status: ('A' for Active; 'I' for Inactive)
REMARK    1  A    between atoms: N_1  and  C_2
REMARK    2  A    between atoms: C_2  and  C_3
REMARK    3  A    between atoms: C_3  and  C_4
REMARK    4  A    between atoms: C_4  and  C_5
REMARK    5  A    between atoms: C_5  and  C_6
REMARK    6  A    between atoms: C_6  and  C_7
REMARK    7  A    between atoms: C_7  and  C_8
REMARK    8  A    between atoms: C_8  and  C_9
REMARK    9  A    between atoms: C_9  and  C_10
REMARK   10  A    between atoms: C_10  and  C_11
REMARK   11  A    between atoms: C_11  and  C_12
REMARK                            x       y       z     vdW  Elec       q    Type
REMARK                         _______ _______ _______ _____ _____    ______ ____
ROOT
ATOM      1  C   UNL     1       4.071   3.425  17.818  0.00  0.00    +0.000 C 
ENDROOT
BRANCH   1   2
ATOM      2  C   UNL     1       2.760   2.887  17.267  0.00  0.00    +0.000 C 
BRANCH   2   3
ATOM      3  C   UNL     1       1.581   3.567  17.948  0.00  0.00    +0.000 C 
BRANCH   3   4
ATOM      4  C   UNL     1       0.699   2.535  18.634  0.00  0.00    +0.000 C 
BRANCH   4   5
ATOM      5  C   UNL     1       0.897   2.582  20.143  0.00  0.00    +0.000 C 
BRANCH   5   6
ATOM      6  C   UNL     1       1.277   3.989  20.590  0.00  0.00    +0.000 C 
BRANCH   6   7
ATOM      7  C   UNL     1       2.306   3.934  21.712  0.00  0.00    +0.000 C 
BRANCH   7   8
ATOM      8  N   UNL     1       2.729   2.557  21.932  0.00  0.00    +0.000 NA
ATOM      9  H   UNL     1       2.111   1.931  21.421  0.00  0.00    +0.000 HD
ATOM     10  H   UNL     1       2.624   2.323  22.919  0.00  0.00    +0.000 HD
ENDBRANCH   7   8
ENDBRANCH   6   7
ENDBRANCH   5   6
ENDBRANCH   4   5
ENDBRANCH   3   4
ENDBRANCH   2   3
ENDBRANCH   1   2
BRANCH   1  11
ATOM     11  C   UNL     1       4.663   4.455  16.867  0.00  0.00    +0.000 C 
BRANCH  11  12
ATOM     12  C   UNL     1       5.681   3.800  15.943  0.00  0.00    +0.000 C 
BRANCH  12  13
ATOM     13  C   UNL     1       6.887   4.710  15.739  0.00  0.00    +0.000 C 
BRANCH  13  14
ATOM     14  C   UNL     1       7.305   5.353  17.008  0.00  0.00    +0.000 A 
ATOM     15  C   UNL     1       7.397   6.695  17.305  0.00  0.00    +0.000 A 
ATOM     16  N   UNL     1       7.837   6.745  18.594  0.00  0.00    +0.000 N 
ATOM     17  C   UNL     1       7.990   5.461  19.029  0.00  0.00    +0.000 A 
ATOM     18  N   UNL     1       7.671   4.595  18.096  0.00  0.00    +0.000 NA
ATOM     19  H   UNL     1       8.026   7.576  19.136  0.00  0.00    +0.000 HD
ENDBRANCH  13  14
ENDBRANCH  12  13
ENDBRANCH  11  12
ENDBRANCH   1  11
TORSDOF 11
ENDMDL
MODEL 6
REMARK VINA RESULT:      -5.2      2.468      3.242
REMARK  Name = 
REMARK  11 active torsions:
REMARK  status: ('A' for Active; 'I' for Inactive)
REMARK    1  A    between atoms: N_1  and  C_2
REMARK    2  A    between atoms: C_2  and  C_3
REMARK    3  A    between atoms: C_3  and  C_4
REMARK    4  A    between atoms: C_4  and  C_5
REMARK    5  A    between atoms: C_5  and  C_6
REMARK    6  A    between atoms: C_6  and  C_7
REMARK    7  A    between atoms: C_7  and  C_8
REMARK    8  A    between atoms: C_8  and  C_9
REMARK    9  A    between atoms: C_9  and  C_10
REMARK   10  A    between atoms: C_10  and  C_11
REMARK   11  A    between atoms: C_11  and  C_12
REMARK                            x       y       z     vdW  Elec       q    Type
REMARK                         _______ _______ _______ _____ _____    ______ ____
ROOT
ATOM      1  C   UNL     1       2.985   4.748  17.530  0.00  0.00    +0.000 C 
ENDROOT
BRANCH   1   2
ATOM      2  C   UNL     1       3.598   3.401  17.178  0.00  0.00    +0.000 C 
BRANCH   2   3
ATOM      3  C   UNL     1       3.099   2.327  18.134  0.00  0.00    +0.000 C 
BRANCH   3   4
ATOM      4  C   UNL     1       1.622   2.529  18.434  0.00  0.00    +0.000 C 
BRANCH   4   5
ATOM      5  C   UNL     1       1.366   2.453  19.933  0.00  0.00    +0.000 C 
BRANCH   5   6
ATOM      6  C   UNL     1       0.992   3.824  20.483  0.00  0.00    +0.000 C 
BRANCH   6   7
ATOM      7  C   UNL     1       2.186   4.468  21.175  0.00  0.00    +0.000 C 
BRANCH   7   8
ATOM      8  N   UNL     1       2.171   5.908  20.955  0.00  0.00    +0.000 NA
ATOM      9  H   UNL     1       3.068   6.300  21.234  0.00  0.00    +0.000 HD
ATOM     10  H   UNL     1       1.469   6.337  21.557  0.00  0.00    +0.000 HD
ENDBRANCH   7   8
ENDBRANCH   6   7
ENDBRANCH   5   6
ENDBRANCH   4   5
ENDBRANCH   3   4
ENDBRANCH   2   3
ENDBRANCH   1   2
BRANCH   1  11
ATOM     11  C   UNL     1       4.060   5.706  18.022  0.00  0.00    +0.000 C 
BRANCH  11  12
ATOM     12  C   UNL     1       4.638   6.497  16.856  0.00  0.00    +0.000 C 
BRANCH  12  13
ATOM     13  C   UNL     1       6.068   6.055  16.562  0.00  0.00    +0.000 C 
BRANCH  13  14
ATOM     14  C   UNL     1       7.045   6.765  17.423  0.00  0.00    +0.000 A 
ATOM     15  C   UNL     1       7.701   6.304  18.543  0.00  0.00    +0.000 A 
ATOM     16  N   UNL     1       8.470   7.350  18.959  0.00  0.00    +0.000 N 
ATOM     17  C   UNL     1       8.263   8.386  18.096  0.00  0.00    +0.000 A 
ATOM     18  N   UNL     1       7.411   8.063  17.151  0.00  0.00    +0.000 NA
ATOM     19  H   UNL     1       9.081   7.368  19.764  0.00  0.00    +0.000 HD
ENDBRANCH  13  14
ENDBRANCH  12  13
ENDBRANCH  11  12
ENDBRANCH   1  11
TORSDOF 11
ENDMDL
MODEL 7
REMARK VINA RESULT:      -5.2      1.862      5.517
REMARK  Name = 
REMARK  11 active torsions:
REMARK  status: ('A' for Active; 'I' for Inactive)
REMARK    1  A    between atoms: N_1  and  C_2
REMARK    2  A    between atoms: C_2  and  C_3
REMARK    3  A    between atoms: C_3  and  C_4
REMARK    4  A    between atoms: C_4  and  C_5
REMARK    5  A    between atoms: C_5  and  C_6
REMARK    6  A    between atoms: C_6  and  C_7
REMARK    7  A    between atoms: C_7  and  C_8
REMARK    8  A    between atoms: C_8  and  C_9
REMARK    9  A    between atoms: C_9  and  C_10
REMARK   10  A    between atoms: C_10  and  C_11
REMARK   11  A    between atoms: C_11  and  C_12
REMARK                            x       y       z     vdW  Elec       q    Type
REMARK                         _______ _______ _______ _____ _____    ______ ____
ROOT
ATOM      1  C   UNL     1       2.210   5.640  18.818  0.00  0.00    +0.000 C 
ENDROOT
BRANCH   1   2
ATOM      2  C   UNL     1       3.694   5.946  18.685  0.00  0.00    +0.000 C 
BRANCH   2   3
ATOM      3  C   UNL     1       3.926   6.979  17.592  0.00  0.00    +0.000 C 
BRANCH   3   4
ATOM      4  C   UNL     1       5.335   6.851  17.034  0.00  0.00    +0.000 C 
BRANCH   4   5
ATOM      5  C   UNL     1       5.308   6.188  15.663  0.00  0.00    +0.000 C 
BRANCH   5   6
ATOM      6  C   UNL     1       5.636   4.704  15.780  0.00  0.00    +0.000 C 
BRANCH   6   7
ATOM      7  C   UNL     1       7.119   4.462  15.523  0.00  0.00    +0.000 C 
BRANCH   7   8
ATOM      8  N   UNL     1       7.807   4.216  16.783  0.00  0.00    +0.000 NA
ATOM      9  H   UNL     1       7.892   3.212  16.929  0.00  0.00    +0.000 HD
ATOM     10  H   UNL     1       7.244   4.573  17.554  0.00  0.00    +0.000 HD
ENDBRANCH   7   8
ENDBRANCH   6   7
ENDBRANCH   5   6
ENDBRANCH   4   5
ENDBRANCH   3   4
ENDBRANCH   2   3
ENDBRANCH   1   2
BRANCH   1  11
ATOM     11  C   UNL     1       1.759   4.708  17.703  0.00  0.00    +0.000 C 
BRANCH  11  12
ATOM     12  C   UNL     1       2.719   3.532  17.575  0.00  0.00    +0.000 C 
BRANCH  12  13
ATOM     13  C   UNL     1       2.156   2.299  18.274  0.00  0.00    +0.000 C 
BRANCH  13  14
ATOM     14  C   UNL     1       2.156   2.462  19.748  0.00  0.00    +0.000 A 
ATOM     15  C   UNL     1       3.229   2.508  20.610  0.00  0.00    +0.000 A 
ATOM     16  N   UNL     1       2.683   2.658  21.850  0.00  0.00    +0.000 N 
ATOM     17  C   UNL     1       1.327   2.700  21.703  0.00  0.00    +0.000 A 
ATOM     18  N   UNL     1       0.976   2.590  20.443  0.00  0.00    +0.000 NA
ATOM     19  H   UNL     1       3.182   2.719  22.727  0.00  0.00    +0.000 HD
ENDBRANCH  13  14
ENDBRANCH  12  13
ENDBRANCH  11  12
ENDBRANCH   1  11
TORSDOF 11
ENDMDL
MODEL 8
REMARK VINA RESULT:      -5.1      1.925      5.269
REMARK  Name = 
REMARK  11 active torsions:
REMARK  status: ('A' for Active; 'I' for Inactive)
REMARK    1  A    between atoms: N_1  and  C_2
REMARK    2  A    between atoms: C_2  and  C_3
REMARK    3  A    between atoms: C_3  and  C_4
REMARK    4  A    between atoms: C_4  and  C_5
REMARK    5  A    between atoms: C_5  and  C_6
REMARK    6  A    between atoms: C_6  and  C_7
REMARK    7  A    between atoms: C_7  and  C_8
REMARK    8  A    between atoms: C_8  and  C_9
REMARK    9  A    between atoms: C_9  and  C_10
REMARK   10  A    between atoms: C_10  and  C_11
REMARK   11  A    between atoms: C_11  and  C_12
REMARK                            x       y       z     vdW  Elec       q    Type
REMARK                         _______ _______ _______ _____ _____    ______ ____
ROOT
ATOM      1  C   UNL     1       3.234   5.953  19.656  0.00  0.00    +0.000 C 
ENDROOT
BRANCH   1   2
ATOM      2  C   UNL     1       2.834   5.952  18.189  0.00  0.00    +0.000 C 
BRANCH   2   3
ATOM      3  C   UNL     1       4.034   5.622  17.313  0.00  0.00    +0.000 C 
BRANCH   3   4
ATOM      4  C   UNL     1       4.964   6.821  17.215  0.00  0.00    +0.000 C 
BRANCH   4   5
ATOM      5  C   UNL     1       6.377   6.373  16.867  0.00  0.00    +0.000 C 
BRANCH   5   6
ATOM      6  C   UNL     1       7.320   6.614  18.039  0.00  0.00    +0.000 C 
BRANCH   6   7
ATOM      7  C   UNL     1       7.660   5.299  18.731  0.00  0.00    +0.000 C 
BRANCH   7   8
ATOM      8  N   UNL     1       7.920   5.535  20.145  0.00  0.00    +0.000 NA
ATOM      9  H   UNL     1       8.133   4.650  20.600  0.00  0.00    +0.000 HD
ATOM     10  H   UNL     1       7.075   5.892  20.591  0.00  0.00    +0.000 HD
ENDBRANCH   7   8
ENDBRANCH   6   7
ENDBRANCH   5   6
ENDBRANCH   4   5
ENDBRANCH   3   4
ENDBRANCH   2   3
ENDBRANCH   1   2
BRANCH   1  11
ATOM     11  C   UNL     1       2.002   6.072  20.542  0.00  0.00    +0.000 C 
BRANCH  11  12
ATOM     12  C   UNL     1       1.173   4.796  20.471  0.00  0.00    +0.000 C 
BRANCH  12  13
ATOM     13  C   UNL     1       2.003   3.591  20.900  0.00  0.00    +0.000 C 
BRANCH  13  14
ATOM     14  C   UNL     1       2.362   2.737  19.742  0.00  0.00    +0.000 A 
ATOM     15  C   UNL     1       1.570   2.334  18.690  0.00  0.00    +0.000 A 
ATOM     16  N   UNL     1       2.377   1.558  17.914  0.00  0.00    +0.000 N 
ATOM     17  C   UNL     1       3.607   1.518  18.505  0.00  0.00    +0.000 A 
ATOM     18  N   UNL     1       3.632   2.227  19.610  0.00  0.00    +0.000 NA
ATOM     19  H   UNL     1       2.121   1.086  17.058  0.00  0.00    +0.000 HD
ENDBRANCH  13  14
ENDBRANCH  12  13
ENDBRANCH  11  12
ENDBRANCH   1  11
TORSDOF 11
ENDMDL
MODEL 9
REMARK VINA RESULT:      -5.1      1.992      3.203
REMARK  Name = 
REMARK  11 active torsions:
REMARK  status: ('A' for Active; 'I' for Inactive)
REMARK    1  A    between atoms: N_1  and  C_2
REMARK    2  A    between atoms: C_2  and  C_3
REMARK    3  A    between atoms: C_3  and  C_4
REMARK    4  A    between atoms: C_4  and  C_5
REMARK    5  A    between atoms: C_5  and  C_6
REMARK    6  A    between atoms: C_6  and  C_7
REMARK    7  A    between atoms: C_7  and  C_8
REMARK    8  A    between atoms: C_8  and  C_9
REMARK    9  A    between atoms: C_9  and  C_10
REMARK   10  A    between atoms: C_10  and  C_11
REMARK   11  A    between atoms: C_11  and  C_12
REMARK                            x       y       z     vdW  Elec       q    Type
REMARK                         _______ _______ _______ _____ _____    ______ ____
ROOT
ATOM      1  C   UNL     1       4.060   5.110  17.107  0.00  0.00    +0.000 C 
ENDROOT
BRANCH   1   2
ATOM      2  C   UNL     1       3.789   4.257  18.337  0.00  0.00    +0.000 C 
BRANCH   2   3
ATOM      3  C   UNL     1       3.711   2.787  17.955  0.00  0.00    +0.000 C 
BRANCH   3   4
ATOM      4  C   UNL     1       2.288   2.274  18.112  0.00  0.00    +0.000 C 
BRANCH   4   5
ATOM      5  C   UNL     1       1.374   3.382  18.617  0.00  0.00    +0.000 C 
BRANCH   5   6
ATOM      6  C   UNL     1       0.778   3.010  19.970  0.00  0.00    +0.000 C 
BRANCH   6   7
ATOM      7  C   UNL     1       1.538   3.698  21.097  0.00  0.00    +0.000 C 
BRANCH   7   8
ATOM      8  N   UNL     1       2.086   2.702  22.007  0.00  0.00    +0.000 NA
ATOM      9  H   UNL     1       2.934   2.309  21.604  0.00  0.00    +0.000 HD
ATOM     10  H   UNL     1       1.428   1.929  22.102  0.00  0.00    +0.000 HD
ENDBRANCH   7   8
ENDBRANCH   6   7
ENDBRANCH   5   6
ENDBRANCH   4   5
ENDBRANCH   3   4
ENDBRANCH   2   3
ENDBRANCH   1   2
BRANCH   1  11
ATOM     11  C   UNL     1       4.605   4.251  15.976  0.00  0.00    +0.000 C 
BRANCH  11  12
ATOM     12  C   UNL     1       5.738   4.975  15.260  0.00  0.00    +0.000 C 
BRANCH  12  13
ATOM     13  C   UNL     1       7.088   4.565  15.838  0.00  0.00    +0.000 C 
BRANCH  13  14
ATOM     14  C   UNL     1       7.398   5.311  17.081  0.00  0.00    +0.000 A 
ATOM     15  C   UNL     1       7.473   6.673  17.274  0.00  0.00    +0.000 A 
ATOM     16  N   UNL     1       7.799   6.828  18.588  0.00  0.00    +0.000 N 
ATOM     17  C   UNL     1       7.905   5.585  19.139  0.00  0.00    +0.000 A 
ATOM     18  N   UNL     1       7.662   4.645  18.256  0.00  0.00    +0.000 NA
ATOM     19  H   UNL     1       7.945   7.702  19.075  0.00  0.00    +0.000 HD
ENDBRANCH  13  14
ENDBRANCH  12  13
ENDBRANCH  11  12
ENDBRANCH   1  11
TORSDOF 11
ENDMDL
