MODEL 1
REMARK VINA RESULT:      -9.2      0.000      0.000
REMARK  Name = 
REMARK  5 active torsions:
REMARK  status: ('A' for Active; 'I' for Inactive)
REMARK    1  A    between atoms: C_1  and  N_2
REMARK    2  A    between atoms: N_9  and  C_10
REMARK    3  A    between atoms: C_10  and  C_11
REMARK    4  A    between atoms: C_16  and  C_17
REMARK    5  A    between atoms: N_26  and  C_27
REMARK                            x       y       z     vdW  Elec       q    Type
REMARK                         _______ _______ _______ _____ _____    ______ ____
ROOT
ATOM      1  C   UNL     1       2.477   5.333  20.163  0.00  0.00    +0.000 C 
ATOM      2  O   UNL     1       1.760   5.412  21.157  0.00  0.00    +0.000 OA
ATOM      3  N   UNL     1       2.698   6.321  19.226  0.00  0.00    +0.000 N 
ATOM      4  C   UNL     1       2.108   7.550  19.347  0.00  0.00    +0.000 A 
ATOM      5  N   UNL     1       1.444   8.046  20.357  0.00  0.00    +0.000 NA
ATOM      6  C   UNL     1       0.916   9.284  20.021  0.00  0.00    +0.000 A 
ATOM      7  C   UNL     1       1.284   9.732  18.765  0.00  0.00    +0.000 A 
ATOM      8  S   UNL     1       2.266   8.557  17.982  0.00  0.00    +0.000 S 
ATOM      9  H   UNL     1       3.162   6.121  18.348  0.00  0.00    +0.000 HD
ENDROOT
BRANCH   6  10
ATOM     10  C   UNL     1       0.111  10.030  20.988  0.00  0.00    +0.000 A 
ATOM     11  C   UNL     1      -0.008   9.487  22.285  0.00  0.00    +0.000 A 
ATOM     12  C   UNL     1      -0.746  10.137  23.279  0.00  0.00    +0.000 A 
ATOM     13  C   UNL     1      -1.385  11.338  22.998  0.00  0.00    +0.000 A 
ATOM     14  C   UNL     1      -1.302  11.879  21.716  0.00  0.00    +0.000 A 
ATOM     15  C   UNL     1      -0.572  11.227  20.711  0.00  0.00    +0.000 A 
ATOM     16 CL   UNL     1      -0.631  11.952  19.139  0.00  0.00    +0.000 Cl
ENDBRANCH   6  10
BRANCH   1  17
ATOM     17  C   UNL     1       3.211   4.043  19.874  0.00  0.00    +0.000 C 
BRANCH  17  26
ATOM     18  C   UNL     1       7.842   6.559  17.975  0.00  0.00    +0.000 C 
ATOM     19  N   UNL     1       6.744   5.714  17.546  0.00  0.00    +0.000 N 
ATOM     20  C   UNL     1       5.744   5.403  18.468  0.00  0.00    +0.000 A 
ATOM     21  O   UNL     1       5.689   5.822  19.624  0.00  0.00    +0.000 OA
ATOM     22  C   UNL     1       4.747   4.545  17.933  0.00  0.00    +0.000 A 
ATOM     23  C   UNL     1       4.746   4.120  16.637  0.00  0.00    +0.000 A 
ATOM     24  N   UNL     1       3.679   3.324  16.365  0.00  0.00    +0.000 NA
ATOM     25  C   UNL     1       3.011   3.262  17.500  0.00  0.00    +0.000 A 
ATOM     26  N   UNL     1       3.637   3.972  18.492  0.00  0.00    +0.000 N 
ATOM     27  N   UNL     1       5.732   4.487  15.757  0.00  0.00    +0.000 N 
ATOM     28  C   UNL     1       5.726   4.051  14.372  0.00  0.00    +0.000 C 
ATOM     29  C   UNL     1       6.776   5.301  16.197  0.00  0.00    +0.000 A 
ATOM     30  O   UNL     1       7.689   5.647  15.442  0.00  0.00    +0.000 OA
ENDBRANCH  17  26
ENDBRANCH   1  17
TORSDOF 3
ENDMDL
MODEL 2
REMARK VINA RESULT:      -8.8      1.030      1.362
REMARK  Name = 
REMARK  5 active torsions:
REMARK  status: ('A' for Active; 'I' for Inactive)
REMARK    1  A    between atoms: C_1  and  N_2
REMARK    2  A    between atoms: N_9  and  C_10
REMARK    3  A    between atoms: C_10  and  C_11
REMARK    4  A    between atoms: C_16  and  C_17
REMARK    5  A    between atoms: N_26  and  C_27
REMARK                            x       y       z     vdW  Elec       q    Type
REMARK                         _______ _______ _______ _____ _____    ______ ____
ROOT
ATOM      1  C   UNL     1       2.188   5.659  20.086  0.00  0.00    +0.000 C 
ATOM      2  O   UNL     1       1.403   5.757  21.026  0.00  0.00    +0.000 OA
ATOM      3  N   UNL     1       2.503   6.642  19.170  0.00  0.00    +0.000 N 
ATOM      4  C   UNL     1       1.939   7.887  19.253  0.00  0.00    +0.000 A 
ATOM      5  N   UNL     1       1.218   8.399  20.215  0.00  0.00    +0.000 NA
ATOM      6  C   UNL     1       0.750   9.652  19.845  0.00  0.00    +0.000 A 
ATOM      7  C   UNL     1       1.219  10.091  18.621  0.00  0.00    +0.000 A 
ATOM      8  S   UNL     1       2.223   8.891  17.906  0.00  0.00    +0.000 S 
ATOM      9  H   UNL     1       3.023   6.431  18.328  0.00  0.00    +0.000 HD
ENDROOT
BRANCH   6  10
ATOM     10  C   UNL     1      -0.102  10.419  20.755  0.00  0.00    +0.000 A 
ATOM     11  C   UNL     1      -0.944  11.396  20.182  0.00  0.00    +0.000 A 
ATOM     12  C   UNL     1      -1.802  12.169  20.970  0.00  0.00    +0.000 A 
ATOM     13  C   UNL     1      -1.832  11.987  22.347  0.00  0.00    +0.000 A 
ATOM     14  C   UNL     1      -0.990  11.045  22.937  0.00  0.00    +0.000 A 
ATOM     15  C   UNL     1      -0.119  10.275  22.152  0.00  0.00    +0.000 A 
ATOM     16 CL   UNL     1       0.944   9.214  23.017  0.00  0.00    +0.000 Cl
ENDBRANCH   6  10
BRANCH   1  17
ATOM     17  C   UNL     1       2.905   4.350  19.846  0.00  0.00    +0.000 C 
BRANCH  17  26
ATOM     18  C   UNL     1       7.830   6.383  18.116  0.00  0.00    +0.000 C 
ATOM     19  N   UNL     1       6.666   5.656  17.646  0.00  0.00    +0.000 N 
ATOM     20  C   UNL     1       5.610   5.447  18.533  0.00  0.00    +0.000 A 
ATOM     21  O   UNL     1       5.559   5.866  19.689  0.00  0.00    +0.000 OA
ATOM     22  C   UNL     1       4.548   4.698  17.959  0.00  0.00    +0.000 A 
ATOM     23  C   UNL     1       4.547   4.279  16.661  0.00  0.00    +0.000 A 
ATOM     24  N   UNL     1       3.413   3.598  16.350  0.00  0.00    +0.000 NA
ATOM     25  C   UNL     1       2.705   3.602  17.462  0.00  0.00    +0.000 A 
ATOM     26  N   UNL     1       3.368   4.240  18.479  0.00  0.00    +0.000 N 
ATOM     27  N   UNL     1       5.594   4.546  15.817  0.00  0.00    +0.000 N 
ATOM     28  C   UNL     1       5.589   4.117  14.429  0.00  0.00    +0.000 C 
ATOM     29  C   UNL     1       6.700   5.247  16.297  0.00  0.00    +0.000 A 
ATOM     30  O   UNL     1       7.668   5.499  15.574  0.00  0.00    +0.000 OA
ENDBRANCH  17  26
ENDBRANCH   1  17
TORSDOF 3
ENDMDL
MODEL 3
REMARK VINA RESULT:      -8.6      4.320      9.528
REMARK  Name = 
REMARK  5 active torsions:
REMARK  status: ('A' for Active; 'I' for Inactive)
REMARK    1  A    between atoms: C_1  and  N_2
REMARK    2  A    between atoms: N_9  and  C_10
REMARK    3  A    between atoms: C_10  and  C_11
REMARK    4  A    between atoms: C_16  and  C_17
REMARK    5  A    between atoms: N_26  and  C_27
REMARK                            x       y       z     vdW  Elec       q    Type
REMARK                         _______ _______ _______ _____ _____    ______ ____
ROOT
ATOM      1  C   UNL     1       1.456   9.732  18.541  0.00  0.00    +0.000 C 
ATOM      2  O   UNL     1       2.026   9.703  17.454  0.00  0.00    +0.000 OA
ATOM      3  N   UNL     1       1.473   8.748  19.506  0.00  0.00    +0.000 N 
ATOM      4  C   UNL     1       2.185   7.593  19.321  0.00  0.00    +0.000 A 
ATOM      5  N   UNL     1       3.049   7.303  18.385  0.00  0.00    +0.000 NA
ATOM      6  C   UNL     1       3.454   5.982  18.502  0.00  0.00    +0.000 A 
ATOM      7  C   UNL     1       2.938   5.328  19.605  0.00  0.00    +0.000 A 
ATOM      8  S   UNL     1       1.890   6.378  20.478  0.00  0.00    +0.000 S 
ATOM      9  H   UNL     1       0.840   8.772  20.296  0.00  0.00    +0.000 HD
ENDROOT
BRANCH   6  10
ATOM     10  C   UNL     1       4.409   5.415  17.548  0.00  0.00    +0.000 A 
ATOM     11  C   UNL     1       5.557   6.180  17.253  0.00  0.00    +0.000 A 
ATOM     12  C   UNL     1       6.531   5.715  16.363  0.00  0.00    +0.000 A 
ATOM     13  C   UNL     1       6.375   4.480  15.746  0.00  0.00    +0.000 A 
ATOM     14  C   UNL     1       5.235   3.720  16.005  0.00  0.00    +0.000 A 
ATOM     15  C   UNL     1       4.250   4.185  16.887  0.00  0.00    +0.000 A 
ATOM     16 CL   UNL     1       2.840   3.192  17.043  0.00  0.00    +0.000 Cl
ENDBRANCH   6  10
BRANCH   1  17
ATOM     17  C   UNL     1       0.623  10.938  18.914  0.00  0.00    +0.000 C 
BRANCH  17  26
ATOM     18  C   UNL     1      -3.636  13.670  21.318  0.00  0.00    +0.000 C 
ATOM     19  N   UNL     1      -3.337  12.733  20.251  0.00  0.00    +0.000 N 
ATOM     20  C   UNL     1      -2.022  12.291  20.104  0.00  0.00    +0.000 A 
ATOM     21  O   UNL     1      -1.083  12.598  20.837  0.00  0.00    +0.000 OA
ATOM     22  C   UNL     1      -1.858  11.404  19.007  0.00  0.00    +0.000 A 
ATOM     23  C   UNL     1      -2.893  10.992  18.220  0.00  0.00    +0.000 A 
ATOM     24  N   UNL     1      -2.481  10.134  17.250  0.00  0.00    +0.000 NA
ATOM     25  C   UNL     1      -1.183  10.008  17.444  0.00  0.00    +0.000 A 
ATOM     26  N   UNL     1      -0.753  10.784  18.491  0.00  0.00    +0.000 N 
ATOM     27  N   UNL     1      -4.177  11.426  18.431  0.00  0.00    +0.000 N 
ATOM     28  C   UNL     1      -5.284  10.976  17.606  0.00  0.00    +0.000 C 
ATOM     29  C   UNL     1      -4.435  12.326  19.464  0.00  0.00    +0.000 A 
ATOM     30  O   UNL     1      -5.573  12.751  19.683  0.00  0.00    +0.000 OA
ENDBRANCH  17  26
ENDBRANCH   1  17
TORSDOF 3
ENDMDL
MODEL 4
REMARK VINA RESULT:      -8.6      4.127      9.349
REMARK  Name = 
REMARK  5 active torsions:
REMARK  status: ('A' for Active; 'I' for Inactive)
REMARK    1  A    between atoms: C_1  and  N_2
REMARK    2  A    between atoms: N_9  and  C_10
REMARK    3  A    between atoms: C_10  and  C_11
REMARK    4  A    between atoms: C_16  and  C_17
REMARK    5  A    between atoms: N_26  and  C_27
REMARK                            x       y       z     vdW  Elec       q    Type
REMARK                         _______ _______ _______ _____ _____    ______ ____
ROOT
ATOM      1  C   UNL     1       1.758   9.112  19.040  0.00  0.00    +0.000 C 
ATOM      2  O   UNL     1       2.437   9.270  18.029  0.00  0.00    +0.000 OA
ATOM      3  N   UNL     1       1.689   7.975  19.817  0.00  0.00    +0.000 N 
ATOM      4  C   UNL     1       2.433   6.867  19.509  0.00  0.00    +0.000 A 
ATOM      5  N   UNL     1       3.393   6.741  18.632  0.00  0.00    +0.000 NA
ATOM      6  C   UNL     1       3.803   5.417  18.560  0.00  0.00    +0.000 A 
ATOM      7  C   UNL     1       3.184   4.584  19.474  0.00  0.00    +0.000 A 
ATOM      8  S   UNL     1       2.038   5.471  20.401  0.00  0.00    +0.000 S 
ATOM      9  H   UNL     1       0.978   7.865  20.529  0.00  0.00    +0.000 HD
ENDROOT
BRANCH   6  10
ATOM     10  C   UNL     1       4.858   5.022  17.627  0.00  0.00    +0.000 A 
ATOM     11  C   UNL     1       4.456   4.530  16.367  0.00  0.00    +0.000 A 
ATOM     12  C   UNL     1       5.394   4.140  15.406  0.00  0.00    +0.000 A 
ATOM     13  C   UNL     1       6.752   4.226  15.685  0.00  0.00    +0.000 A 
ATOM     14  C   UNL     1       7.171   4.684  16.933  0.00  0.00    +0.000 A 
ATOM     15  C   UNL     1       6.235   5.067  17.906  0.00  0.00    +0.000 A 
ATOM     16 CL   UNL     1       6.884   5.523  19.446  0.00  0.00    +0.000 Cl
ENDBRANCH   6  10
BRANCH   1  17
ATOM     17  C   UNL     1       0.874  10.238  19.527  0.00  0.00    +0.000 C 
BRANCH  17  26
ATOM     18  C   UNL     1      -3.525  13.280  21.197  0.00  0.00    +0.000 C 
ATOM     19  N   UNL     1      -3.084  12.397  20.133  0.00  0.00    +0.000 N 
ATOM     20  C   UNL     1      -1.823  11.810  20.236  0.00  0.00    +0.000 A 
ATOM     21  O   UNL     1      -1.052  11.943  21.186  0.00  0.00    +0.000 OA
ATOM     22  C   UNL     1      -1.501  10.996  19.117  0.00  0.00    +0.000 A 
ATOM     23  C   UNL     1      -2.362  10.775  18.083  0.00  0.00    +0.000 A 
ATOM     24  N   UNL     1      -1.827   9.949  17.146  0.00  0.00    +0.000 NA
ATOM     25  C   UNL     1      -0.629   9.651  17.608  0.00  0.00    +0.000 A 
ATOM     26  N   UNL     1      -0.376  10.286  18.797  0.00  0.00    +0.000 N 
ATOM     27  N   UNL     1      -3.609  11.345  18.048  0.00  0.00    +0.000 N 
ATOM     28  C   UNL     1      -4.536  11.098  16.958  0.00  0.00    +0.000 C 
ATOM     29  C   UNL     1      -4.006  12.189  19.086  0.00  0.00    +0.000 A 
ATOM     30  O   UNL     1      -5.114  12.731  19.090  0.00  0.00    +0.000 OA
ENDBRANCH  17  26
ENDBRANCH   1  17
TORSDOF 3
ENDMDL
MODEL 5
REMARK VINA RESULT:      -8.6      4.049      9.147
REMARK  Name = 
REMARK  5 active torsions:
REMARK  status: ('A' for Active; 'I' for Inactive)
REMARK    1  A    between atoms: C_1  and  N_2
REMARK    2  A    between atoms: N_9  and  C_10
REMARK    3  A    between atoms: C_10  and  C_11
REMARK    4  A    between atoms: C_16  and  C_17
REMARK    5  A    between atoms: N_26  and  C_27
REMARK                            x       y       z     vdW  Elec       q    Type
REMARK                         _______ _______ _______ _____ _____    ______ ____
ROOT
ATOM      1  C   UNL     1       1.268   9.733  18.973  0.00  0.00    +0.000 C 
ATOM      2  O   UNL     1       0.706   9.137  19.889  0.00  0.00    +0.000 OA
ATOM      3  N   UNL     1       2.201   9.212  18.102  0.00  0.00    +0.000 N 
ATOM      4  C   UNL     1       2.588   7.901  18.187  0.00  0.00    +0.000 A 
ATOM      5  N   UNL     1       2.072   6.938  18.904  0.00  0.00    +0.000 NA
ATOM      6  C   UNL     1       2.839   5.789  18.782  0.00  0.00    +0.000 A 
ATOM      7  C   UNL     1       3.885   5.900  17.885  0.00  0.00    +0.000 A 
ATOM      8  S   UNL     1       3.930   7.488  17.223  0.00  0.00    +0.000 S 
ATOM      9  H   UNL     1       2.743   9.809  17.490  0.00  0.00    +0.000 HD
ENDROOT
BRANCH   6  10
ATOM     10  C   UNL     1       2.470   4.575  19.512  0.00  0.00    +0.000 A 
ATOM     11  C   UNL     1       2.413   4.659  20.919  0.00  0.00    +0.000 A 
ATOM     12  C   UNL     1       2.057   3.555  21.699  0.00  0.00    +0.000 A 
ATOM     13  C   UNL     1       1.758   2.342  21.092  0.00  0.00    +0.000 A 
ATOM     14  C   UNL     1       1.834   2.230  19.704  0.00  0.00    +0.000 A 
ATOM     15  C   UNL     1       2.201   3.331  18.916  0.00  0.00    +0.000 A 
ATOM     16 CL   UNL     1       2.354   3.031  17.217  0.00  0.00    +0.000 Cl
ENDBRANCH   6  10
BRANCH   1  17
ATOM     17  C   UNL     1       0.957  11.193  18.732  0.00  0.00    +0.000 C 
BRANCH  17  26
ATOM     18  C   UNL     1      -1.233  13.568  23.309  0.00  0.00    +0.000 C 
ATOM     19  N   UNL     1      -1.598  13.059  22.000  0.00  0.00    +0.000 N 
ATOM     20  C   UNL     1      -0.607  12.468  21.216  0.00  0.00    +0.000 A 
ATOM     21  O   UNL     1       0.563  12.300  21.558  0.00  0.00    +0.000 OA
ATOM     22  C   UNL     1      -1.087  12.042  19.949  0.00  0.00    +0.000 A 
ATOM     23  C   UNL     1      -2.393  12.154  19.570  0.00  0.00    +0.000 A 
ATOM     24  N   UNL     1      -2.601  11.659  18.322  0.00  0.00    +0.000 NA
ATOM     25  C   UNL     1      -1.418  11.232  17.930  0.00  0.00    +0.000 A 
ATOM     26  N   UNL     1      -0.457  11.466  18.880  0.00  0.00    +0.000 N 
ATOM     27  N   UNL     1      -3.338  12.707  20.395  0.00  0.00    +0.000 N 
ATOM     28  C   UNL     1      -4.732  12.812  20.002  0.00  0.00    +0.000 C 
ATOM     29  C   UNL     1      -2.958  13.187  21.648  0.00  0.00    +0.000 A 
ATOM     30  O   UNL     1      -3.774  13.702  22.418  0.00  0.00    +0.000 OA
ENDBRANCH  17  26
ENDBRANCH   1  17
TORSDOF 3
ENDMDL
MODEL 6
REMARK VINA RESULT:      -8.5      4.045      9.229
REMARK  Name = 
REMARK  5 active torsions:
REMARK  status: ('A' for Active; 'I' for Inactive)
REMARK    1  A    between atoms: C_1  and  N_2
REMARK    2  A    between atoms: N_9  and  C_10
REMARK    3  A    between atoms: C_10  and  C_11
REMARK    4  A    between atoms: C_16  and  C_17
REMARK    5  A    between atoms: N_26  and  C_27
REMARK                            x       y       z     vdW  Elec       q    Type
REMARK                         _______ _______ _______ _____ _____    ______ ____
ROOT
ATOM      1  C   UNL     1       1.536   9.110  18.222  0.00  0.00    +0.000 C 
ATOM      2  O   UNL     1       2.170   9.105  17.169  0.00  0.00    +0.000 OA
ATOM      3  N   UNL     1       1.619   8.181  19.237  0.00  0.00    +0.000 N 
ATOM      4  C   UNL     1       2.481   7.120  19.151  0.00  0.00    +0.000 A 
ATOM      5  N   UNL     1       3.428   6.900  18.279  0.00  0.00    +0.000 NA
ATOM      6  C   UNL     1       3.988   5.648  18.487  0.00  0.00    +0.000 A 
ATOM      7  C   UNL     1       3.493   4.985  19.594  0.00  0.00    +0.000 A 
ATOM      8  S   UNL     1       2.272   5.930  20.353  0.00  0.00    +0.000 S 
ATOM      9  H   UNL     1       0.942   8.160  19.990  0.00  0.00    +0.000 HD
ENDROOT
BRANCH   6  10
ATOM     10  C   UNL     1       5.061   5.166  17.617  0.00  0.00    +0.000 A 
ATOM     11  C   UNL     1       4.691   4.670  16.349  0.00  0.00    +0.000 A 
ATOM     12  C   UNL     1       5.648   4.200  15.444  0.00  0.00    +0.000 A 
ATOM     13  C   UNL     1       6.994   4.209  15.789  0.00  0.00    +0.000 A 
ATOM     14  C   UNL     1       7.379   4.672  17.047  0.00  0.00    +0.000 A 
ATOM     15  C   UNL     1       6.423   5.134  17.963  0.00  0.00    +0.000 A 
ATOM     16 CL   UNL     1       7.023   5.586  19.524  0.00  0.00    +0.000 Cl
ENDBRANCH   6  10
BRANCH   1  17
ATOM     17  C   UNL     1       0.538  10.215  18.486  0.00  0.00    +0.000 C 
BRANCH  17  26
ATOM     18  C   UNL     1      -1.011  13.295  22.901  0.00  0.00    +0.000 C 
ATOM     19  N   UNL     1      -0.034  13.245  21.830  0.00  0.00    +0.000 N 
ATOM     20  C   UNL     1      -0.134  12.222  20.886  0.00  0.00    +0.000 A 
ATOM     21  O   UNL     1      -1.017  11.366  20.857  0.00  0.00    +0.000 OA
ATOM     22  C   UNL     1       0.900  12.267  19.913  0.00  0.00    +0.000 A 
ATOM     23  C   UNL     1       1.852  13.244  19.881  0.00  0.00    +0.000 A 
ATOM     24  N   UNL     1       2.715  13.075  18.845  0.00  0.00    +0.000 NA
ATOM     25  C   UNL     1       2.289  11.990  18.229  0.00  0.00    +0.000 A 
ATOM     26  N   UNL     1       1.198  11.449  18.858  0.00  0.00    +0.000 N 
ATOM     27  N   UNL     1       1.883  14.251  20.810  0.00  0.00    +0.000 N 
ATOM     28  C   UNL     1       2.884  15.303  20.769  0.00  0.00    +0.000 C 
ATOM     29  C   UNL     1       0.929  14.275  21.828  0.00  0.00    +0.000 A 
ATOM     30  O   UNL     1       0.926  15.158  22.690  0.00  0.00    +0.000 OA
ENDBRANCH  17  26
ENDBRANCH   1  17
TORSDOF 3
ENDMDL
MODEL 7
REMARK VINA RESULT:      -8.4      4.158      9.607
REMARK  Name = 
REMARK  5 active torsions:
REMARK  status: ('A' for Active; 'I' for Inactive)
REMARK    1  A    between atoms: C_1  and  N_2
REMARK    2  A    between atoms: N_9  and  C_10
REMARK    3  A    between atoms: C_10  and  C_11
REMARK    4  A    between atoms: C_16  and  C_17
REMARK    5  A    between atoms: N_26  and  C_27
REMARK                            x       y       z     vdW  Elec       q    Type
REMARK                         _______ _______ _______ _____ _____    ______ ____
ROOT
ATOM      1  C   UNL     1       1.021  10.111  20.890  0.00  0.00    +0.000 C 
ATOM      2  O   UNL     1       0.982   9.334  21.841  0.00  0.00    +0.000 OA
ATOM      3  N   UNL     1       1.431   9.819  19.606  0.00  0.00    +0.000 N 
ATOM      4  C   UNL     1       1.838   8.556  19.267  0.00  0.00    +0.000 A 
ATOM      5  N   UNL     1       1.751   7.453  19.960  0.00  0.00    +0.000 NA
ATOM      6  C   UNL     1       2.389   6.418  19.291  0.00  0.00    +0.000 A 
ATOM      7  C   UNL     1       2.871   6.764  18.042  0.00  0.00    +0.000 A 
ATOM      8  S   UNL     1       2.559   8.427  17.728  0.00  0.00    +0.000 S 
ATOM      9  H   UNL     1       1.598  10.551  18.926  0.00  0.00    +0.000 HD
ENDROOT
BRANCH   6  10
ATOM     10  C   UNL     1       2.442   5.080  19.882  0.00  0.00    +0.000 A 
ATOM     11  C   UNL     1       1.286   4.620  20.546  0.00  0.00    +0.000 A 
ATOM     12  C   UNL     1       1.239   3.350  21.130  0.00  0.00    +0.000 A 
ATOM     13  C   UNL     1       2.348   2.516  21.069  0.00  0.00    +0.000 A 
ATOM     14  C   UNL     1       3.511   2.961  20.440  0.00  0.00    +0.000 A 
ATOM     15  C   UNL     1       3.567   4.238  19.862  0.00  0.00    +0.000 A 
ATOM     16 CL   UNL     1       5.099   4.705  19.202  0.00  0.00    +0.000 Cl
ENDBRANCH   6  10
BRANCH   1  17
ATOM     17  C   UNL     1       0.602  11.551  21.085  0.00  0.00    +0.000 C 
BRANCH  17  26
ATOM     18  C   UNL     1      -3.867  12.607  24.293  0.00  0.00    +0.000 C 
ATOM     19  N   UNL     1      -3.460  12.486  22.906  0.00  0.00    +0.000 N 
ATOM     20  C   UNL     1      -2.143  12.117  22.629  0.00  0.00    +0.000 A 
ATOM     21  O   UNL     1      -1.291  11.840  23.472  0.00  0.00    +0.000 OA
ATOM     22  C   UNL     1      -1.866  12.066  21.237  0.00  0.00    +0.000 A 
ATOM     23  C   UNL     1      -2.809  12.301  20.280  0.00  0.00    +0.000 A 
ATOM     24  N   UNL     1      -2.300  12.175  19.026  0.00  0.00    +0.000 NA
ATOM     25  C   UNL     1      -1.035  11.852  19.210  0.00  0.00    +0.000 A 
ATOM     26  N   UNL     1      -0.718  11.797  20.543  0.00  0.00    +0.000 N 
ATOM     27  N   UNL     1      -4.101  12.623  20.605  0.00  0.00    +0.000 N 
ATOM     28  C   UNL     1      -5.113  12.856  19.589  0.00  0.00    +0.000 C 
ATOM     29  C   UNL     1      -4.465  12.730  21.947  0.00  0.00    +0.000 A 
ATOM     30  O   UNL     1      -5.614  13.027  22.284  0.00  0.00    +0.000 OA
ENDBRANCH  17  26
ENDBRANCH   1  17
TORSDOF 3
ENDMDL
MODEL 8
REMARK VINA RESULT:      -8.4      4.162      9.305
REMARK  Name = 
REMARK  5 active torsions:
REMARK  status: ('A' for Active; 'I' for Inactive)
REMARK    1  A    between atoms: C_1  and  N_2
REMARK    2  A    between atoms: N_9  and  C_10
REMARK    3  A    between atoms: C_10  and  C_11
REMARK    4  A    between atoms: C_16  and  C_17
REMARK    5  A    between atoms: N_26  and  C_27
REMARK                            x       y       z     vdW  Elec       q    Type
REMARK                         _______ _______ _______ _____ _____    ______ ____
ROOT
ATOM      1  C   UNL     1       1.212   9.843  18.947  0.00  0.00    +0.000 C 
ATOM      2  O   UNL     1       0.624   9.245  19.844  0.00  0.00    +0.000 OA
ATOM      3  N   UNL     1       2.172   9.324  18.104  0.00  0.00    +0.000 N 
ATOM      4  C   UNL     1       2.557   8.014  18.198  0.00  0.00    +0.000 A 
ATOM      5  N   UNL     1       2.020   7.049  18.896  0.00  0.00    +0.000 NA
ATOM      6  C   UNL     1       2.791   5.900  18.795  0.00  0.00    +0.000 A 
ATOM      7  C   UNL     1       3.863   6.014  17.930  0.00  0.00    +0.000 A 
ATOM      8  S   UNL     1       3.928   7.603  17.273  0.00  0.00    +0.000 S 
ATOM      9  H   UNL     1       2.732   9.924  17.509  0.00  0.00    +0.000 HD
ENDROOT
BRANCH   6  10
ATOM     10  C   UNL     1       2.401   4.685  19.511  0.00  0.00    +0.000 A 
ATOM     11  C   UNL     1       2.365   4.748  20.920  0.00  0.00    +0.000 A 
ATOM     12  C   UNL     1       1.992   3.641  21.688  0.00  0.00    +0.000 A 
ATOM     13  C   UNL     1       1.654   2.446  21.066  0.00  0.00    +0.000 A 
ATOM     14  C   UNL     1       1.708   2.354  19.676  0.00  0.00    +0.000 A 
ATOM     15  C   UNL     1       2.092   3.458  18.900  0.00  0.00    +0.000 A 
ATOM     16 CL   UNL     1       2.214   3.181  17.194  0.00  0.00    +0.000 Cl
ENDBRANCH   6  10
BRANCH   1  17
ATOM     17  C   UNL     1       0.908  11.304  18.700  0.00  0.00    +0.000 C 
BRANCH  17  26
ATOM     18  C   UNL     1      -4.587  11.606  17.655  0.00  0.00    +0.000 C 
ATOM     19  N   UNL     1      -3.606  11.869  18.690  0.00  0.00    +0.000 N 
ATOM     20  C   UNL     1      -2.257  11.665  18.395  0.00  0.00    +0.000 A 
ATOM     21  O   UNL     1      -1.814  11.315  17.302  0.00  0.00    +0.000 OA
ATOM     22  C   UNL     1      -1.405  11.927  19.501  0.00  0.00    +0.000 A 
ATOM     23  C   UNL     1      -1.862  12.382  20.703  0.00  0.00    +0.000 A 
ATOM     24  N   UNL     1      -0.851  12.571  21.590  0.00  0.00    +0.000 NA
ATOM     25  C   UNL     1       0.240  12.238  20.929  0.00  0.00    +0.000 A 
ATOM     26  N   UNL     1      -0.051  11.815  19.657  0.00  0.00    +0.000 N 
ATOM     27  N   UNL     1      -3.196  12.604  20.930  0.00  0.00    +0.000 N 
ATOM     28  C   UNL     1      -3.685  13.105  22.203  0.00  0.00    +0.000 C 
ATOM     29  C   UNL     1      -4.117  12.344  19.915  0.00  0.00    +0.000 A 
ATOM     30  O   UNL     1      -5.327  12.520  20.080  0.00  0.00    +0.000 OA
ENDBRANCH  17  26
ENDBRANCH   1  17
TORSDOF 3
ENDMDL
MODEL 9
REMARK VINA RESULT:      -8.4      4.959     10.017
REMARK  Name = 
REMARK  5 active torsions:
REMARK  status: ('A' for Active; 'I' for Inactive)
REMARK    1  A    between atoms: C_1  and  N_2
REMARK    2  A    between atoms: N_9  and  C_10
REMARK    3  A    between atoms: C_10  and  C_11
REMARK    4  A    between atoms: C_16  and  C_17
REMARK    5  A    between atoms: N_26  and  C_27
REMARK                            x       y       z     vdW  Elec       q    Type
REMARK                         _______ _______ _______ _____ _____    ______ ____
ROOT
ATOM      1  C   UNL     1      -0.995  10.728  18.233  0.00  0.00    +0.000 C 
ATOM      2  O   UNL     1      -0.875   9.771  17.471  0.00  0.00    +0.000 OA
ATOM      3  N   UNL     1      -0.447  10.851  19.492  0.00  0.00    +0.000 N 
ATOM      4  C   UNL     1       0.336   9.858  20.019  0.00  0.00    +0.000 A 
ATOM      5  N   UNL     1       0.825   8.800  19.430  0.00  0.00    +0.000 NA
ATOM      6  C   UNL     1       1.471   7.994  20.356  0.00  0.00    +0.000 A 
ATOM      7  C   UNL     1       1.526   8.529  21.630  0.00  0.00    +0.000 A 
ATOM      8  S   UNL     1       0.711  10.044  21.670  0.00  0.00    +0.000 S 
ATOM      9  H   UNL     1      -0.734  11.589  20.123  0.00  0.00    +0.000 HD
ENDROOT
BRANCH   6  10
ATOM     10  C   UNL     1       2.085   6.733  19.937  0.00  0.00    +0.000 A 
ATOM     11  C   UNL     1       1.900   5.614  20.775  0.00  0.00    +0.000 A 
ATOM     12  C   UNL     1       2.438   4.365  20.450  0.00  0.00    +0.000 A 
ATOM     13  C   UNL     1       3.178   4.210  19.284  0.00  0.00    +0.000 A 
ATOM     14  C   UNL     1       3.395   5.309  18.455  0.00  0.00    +0.000 A 
ATOM     15  C   UNL     1       2.867   6.567  18.781  0.00  0.00    +0.000 A 
ATOM     16 CL   UNL     1       3.293   7.868  17.719  0.00  0.00    +0.000 Cl
ENDBRANCH   6  10
BRANCH   1  17
ATOM     17  C   UNL     1      -1.828  11.917  17.811  0.00  0.00    +0.000 C 
BRANCH  17  26
ATOM     18  C   UNL     1      -4.108  13.559  22.657  0.00  0.00    +0.000 C 
ATOM     19  N   UNL     1      -4.443  12.934  21.391  0.00  0.00    +0.000 N 
ATOM     20  C   UNL     1      -3.414  12.675  20.485  0.00  0.00    +0.000 A 
ATOM     21  O   UNL     1      -2.220  12.897  20.683  0.00  0.00    +0.000 OA
ATOM     22  C   UNL     1      -3.878  12.092  19.276  0.00  0.00    +0.000 A 
ATOM     23  C   UNL     1      -5.185  11.772  19.056  0.00  0.00    +0.000 A 
ATOM     24  N   UNL     1      -5.370  11.211  17.832  0.00  0.00    +0.000 NA
ATOM     25  C   UNL     1      -4.167  11.177  17.295  0.00  0.00    +0.000 A 
ATOM     26  N   UNL     1      -3.227  11.726  18.129  0.00  0.00    +0.000 N 
ATOM     27  N   UNL     1      -6.154  12.011  19.997  0.00  0.00    +0.000 N 
ATOM     28  C   UNL     1      -7.544  11.655  19.773  0.00  0.00    +0.000 C 
ATOM     29  C   UNL     1      -5.803  12.612  21.205  0.00  0.00    +0.000 A 
ATOM     30  O   UNL     1      -6.644  12.854  22.075  0.00  0.00    +0.000 OA
ENDBRANCH  17  26
ENDBRANCH   1  17
TORSDOF 3
ENDMDL
