MODEL 1
REMARK VINA RESULT:      -6.6      0.000      0.000
REMARK  Name = 
REMARK  3 active torsions:
REMARK  status: ('A' for Active; 'I' for Inactive)
REMARK    1  A    between atoms: C_1  and  C_2
REMARK    2  A    between atoms: C_5  and  N_6
REMARK    3  A    between atoms: C_13  and  N_14
REMARK                            x       y       z     vdW  Elec       q    Type
REMARK                         _______ _______ _______ _____ _____    ______ ____
ROOT
ATOM      1  C   UNL     1       1.658   2.565  22.185  0.00  0.00    +0.000 C 
ATOM      2  C   UNL     1       2.350   2.848  20.885  0.00  0.00    +0.000 A 
ATOM      3  C   UNL     1       3.596   2.280  20.608  0.00  0.00    +0.000 A 
ATOM      4  C   UNL     1       4.263   2.561  19.411  0.00  0.00    +0.000 A 
ATOM      5  C   UNL     1       3.690   3.371  18.420  0.00  0.00    +0.000 A 
ATOM      6  C   UNL     1       2.458   3.965  18.735  0.00  0.00    +0.000 A 
ATOM      7  C   UNL     1       1.786   3.719  19.948  0.00  0.00    +0.000 A 
ENDROOT
BRANCH   5   8
ATOM      8  N   UNL     1       4.406   3.662  17.241  0.00  0.00    +0.000 NA
ATOM      9  C   UNL     1       5.462   4.414  17.254  0.00  0.00    +0.000 A 
ATOM     10  S   UNL     1       6.336   5.214  18.505  0.00  0.00    +0.000 S 
ATOM     11  S   UNL     1       6.680   6.871  17.380  0.00  0.00    +0.000 S 
ATOM     12  N   UNL     1       6.842   5.991  15.969  0.00  0.00    +0.000 NA
ATOM     13  C   UNL     1       6.227   4.851  16.039  0.00  0.00    +0.000 A 
ATOM     14 CL   UNL     1       6.288   3.774  14.719  0.00  0.00    +0.000 Cl
ENDBRANCH   5   8
BRANCH   6  15
ATOM     15  N   UNL     1       1.845   4.900  17.813  0.00  0.00    +0.000 N 
ATOM     16  O   UNL     1       2.248   6.072  17.838  0.00  0.00    +0.000 OA
ATOM     17  O   UNL     1       1.015   4.440  17.018  0.00  0.00    +0.000 OA
ENDBRANCH   6  15
TORSDOF 2
ENDMDL
MODEL 2
REMARK VINA RESULT:      -6.6      2.219      2.393
REMARK  Name = 
REMARK  3 active torsions:
REMARK  status: ('A' for Active; 'I' for Inactive)
REMARK    1  A    between atoms: C_1  and  C_2
REMARK    2  A    between atoms: C_5  and  N_6
REMARK    3  A    between atoms: C_13  and  N_14
REMARK                            x       y       z     vdW  Elec       q    Type
REMARK                         _______ _______ _______ _____ _____    ______ ____
ROOT
ATOM      1  C   UNL     1       1.058   2.677  21.056  0.00  0.00    +0.000 C 
ATOM      2  C   UNL     1       2.159   3.476  20.424  0.00  0.00    +0.000 A 
ATOM      3  C   UNL     1       3.427   2.917  20.247  0.00  0.00    +0.000 A 
ATOM      4  C   UNL     1       4.468   3.662  19.685  0.00  0.00    +0.000 A 
ATOM      5  C   UNL     1       4.272   4.973  19.226  0.00  0.00    +0.000 A 
ATOM      6  C   UNL     1       3.003   5.530  19.451  0.00  0.00    +0.000 A 
ATOM      7  C   UNL     1       1.952   4.805  20.043  0.00  0.00    +0.000 A 
ENDROOT
BRANCH   5   8
ATOM      8  N   UNL     1       5.353   5.708  18.698  0.00  0.00    +0.000 NA
ATOM      9  C   UNL     1       5.669   5.647  17.442  0.00  0.00    +0.000 A 
ATOM     10  S   UNL     1       4.998   4.824  16.086  0.00  0.00    +0.000 S 
ATOM     11  S   UNL     1       6.816   4.377  15.295  0.00  0.00    +0.000 S 
ATOM     12  N   UNL     1       7.491   5.819  15.801  0.00  0.00    +0.000 NA
ATOM     13  C   UNL     1       6.857   6.319  16.817  0.00  0.00    +0.000 A 
ATOM     14 CL   UNL     1       7.356   7.809  17.478  0.00  0.00    +0.000 Cl
ENDBRANCH   5   8
BRANCH   6  15
ATOM     15  N   UNL     1       2.745   6.913  19.104  0.00  0.00    +0.000 N 
ATOM     16  O   UNL     1       2.877   7.236  17.915  0.00  0.00    +0.000 OA
ATOM     17  O   UNL     1       2.339   7.652  20.011  0.00  0.00    +0.000 OA
ENDBRANCH   6  15
TORSDOF 2
ENDMDL
MODEL 3
REMARK VINA RESULT:      -6.6      0.955      1.240
REMARK  Name = 
REMARK  3 active torsions:
REMARK  status: ('A' for Active; 'I' for Inactive)
REMARK    1  A    between atoms: C_1  and  C_2
REMARK    2  A    between atoms: C_5  and  N_6
REMARK    3  A    between atoms: C_13  and  N_14
REMARK                            x       y       z     vdW  Elec       q    Type
REMARK                         _______ _______ _______ _____ _____    ______ ____
ROOT
ATOM      1  C   UNL     1       1.480   2.665  21.658  0.00  0.00    +0.000 C 
ATOM      2  C   UNL     1       2.175   3.050  20.386  0.00  0.00    +0.000 A 
ATOM      3  C   UNL     1       2.896   2.100  19.659  0.00  0.00    +0.000 A 
ATOM      4  C   UNL     1       3.571   2.454  18.486  0.00  0.00    +0.000 A 
ATOM      5  C   UNL     1       3.507   3.754  17.963  0.00  0.00    +0.000 A 
ATOM      6  C   UNL     1       2.813   4.702  18.730  0.00  0.00    +0.000 A 
ATOM      7  C   UNL     1       2.153   4.371  19.928  0.00  0.00    +0.000 A 
ENDROOT
BRANCH   5   8
ATOM      8  N   UNL     1       4.230   4.085  16.798  0.00  0.00    +0.000 NA
ATOM      9  C   UNL     1       5.453   4.511  16.855  0.00  0.00    +0.000 A 
ATOM     10  S   UNL     1       6.563   4.771  18.147  0.00  0.00    +0.000 S 
ATOM     11  S   UNL     1       7.311   6.476  17.331  0.00  0.00    +0.000 S 
ATOM     12  N   UNL     1       7.168   5.899  15.769  0.00  0.00    +0.000 NA
ATOM     13  C   UNL     1       6.262   4.974  15.678  0.00  0.00    +0.000 A 
ATOM     14 CL   UNL     1       5.970   4.219  14.178  0.00  0.00    +0.000 Cl
ENDBRANCH   5   8
BRANCH   6  15
ATOM     15  N   UNL     1       2.786   6.091  18.318  0.00  0.00    +0.000 N 
ATOM     16  O   UNL     1       1.812   6.468  17.650  0.00  0.00    +0.000 OA
ATOM     17  O   UNL     1       3.703   6.816  18.728  0.00  0.00    +0.000 OA
ENDBRANCH   6  15
TORSDOF 2
ENDMDL
MODEL 4
REMARK VINA RESULT:      -6.4      1.818      2.140
REMARK  Name = 
REMARK  3 active torsions:
REMARK  status: ('A' for Active; 'I' for Inactive)
REMARK    1  A    between atoms: C_1  and  C_2
REMARK    2  A    between atoms: C_5  and  N_6
REMARK    3  A    between atoms: C_13  and  N_14
REMARK                            x       y       z     vdW  Elec       q    Type
REMARK                         _______ _______ _______ _____ _____    ______ ____
ROOT
ATOM      1  C   UNL     1       1.224   2.515  22.083  0.00  0.00    +0.000 C 
ATOM      2  C   UNL     1       1.901   3.293  20.993  0.00  0.00    +0.000 A 
ATOM      3  C   UNL     1       2.226   4.639  21.181  0.00  0.00    +0.000 A 
ATOM      4  C   UNL     1       2.831   5.381  20.162  0.00  0.00    +0.000 A 
ATOM      5  C   UNL     1       3.188   4.797  18.937  0.00  0.00    +0.000 A 
ATOM      6  C   UNL     1       2.815   3.456  18.753  0.00  0.00    +0.000 A 
ATOM      7  C   UNL     1       2.178   2.702  19.757  0.00  0.00    +0.000 A 
ENDROOT
BRANCH   5   8
ATOM      8  N   UNL     1       3.764   5.583  17.919  0.00  0.00    +0.000 NA
ATOM      9  C   UNL     1       5.044   5.604  17.716  0.00  0.00    +0.000 A 
ATOM     10  S   UNL     1       6.376   4.785  18.441  0.00  0.00    +0.000 S 
ATOM     11  S   UNL     1       7.583   6.418  18.367  0.00  0.00    +0.000 S 
ATOM     12  N   UNL     1       6.947   6.936  16.912  0.00  0.00    +0.000 NA
ATOM     13  C   UNL     1       5.747   6.480  16.721  0.00  0.00    +0.000 A 
ATOM     14 CL   UNL     1       4.917   6.857  15.280  0.00  0.00    +0.000 Cl
ENDBRANCH   5   8
BRANCH   6  15
ATOM     15  N   UNL     1       3.050   2.805  17.480  0.00  0.00    +0.000 N 
ATOM     16  O   UNL     1       4.001   2.012  17.413  0.00  0.00    +0.000 OA
ATOM     17  O   UNL     1       2.237   3.034  16.575  0.00  0.00    +0.000 OA
ENDBRANCH   6  15
TORSDOF 2
ENDMDL
MODEL 5
REMARK VINA RESULT:      -6.4      2.361      2.503
REMARK  Name = 
REMARK  3 active torsions:
REMARK  status: ('A' for Active; 'I' for Inactive)
REMARK    1  A    between atoms: C_1  and  C_2
REMARK    2  A    between atoms: C_5  and  N_6
REMARK    3  A    between atoms: C_13  and  N_14
REMARK                            x       y       z     vdW  Elec       q    Type
REMARK                         _______ _______ _______ _____ _____    ______ ____
ROOT
ATOM      1  C   UNL     1       0.429   2.079  18.941  0.00  0.00    +0.000 C 
ATOM      2  C   UNL     1       1.664   2.900  18.716  0.00  0.00    +0.000 A 
ATOM      3  C   UNL     1       2.886   2.279  18.444  0.00  0.00    +0.000 A 
ATOM      4  C   UNL     1       4.050   3.033  18.261  0.00  0.00    +0.000 A 
ATOM      5  C   UNL     1       4.031   4.435  18.284  0.00  0.00    +0.000 A 
ATOM      6  C   UNL     1       2.803   5.038  18.601  0.00  0.00    +0.000 A 
ATOM      7  C   UNL     1       1.628   4.294  18.818  0.00  0.00    +0.000 A 
ENDROOT
BRANCH   5   8
ATOM      8  N   UNL     1       5.229   5.163  18.132  0.00  0.00    +0.000 NA
ATOM      9  C   UNL     1       5.695   5.468  16.962  0.00  0.00    +0.000 A 
ATOM     10  S   UNL     1       5.134   5.211  15.354  0.00  0.00    +0.000 S 
ATOM     11  S   UNL     1       6.993   4.821  14.631  0.00  0.00    +0.000 S 
ATOM     12  N   UNL     1       7.719   5.932  15.646  0.00  0.00    +0.000 NA
ATOM     13  C   UNL     1       7.006   6.154  16.707  0.00  0.00    +0.000 A 
ATOM     14 CL   UNL     1       7.542   7.282  17.867  0.00  0.00    +0.000 Cl
ENDBRANCH   5   8
BRANCH   6  15
ATOM     15  N   UNL     1       2.716   6.476  18.750  0.00  0.00    +0.000 N 
ATOM     16  O   UNL     1       2.681   7.155  17.714  0.00  0.00    +0.000 OA
ATOM     17  O   UNL     1       2.609   6.915  19.903  0.00  0.00    +0.000 OA
ENDBRANCH   6  15
TORSDOF 2
ENDMDL
MODEL 6
REMARK VINA RESULT:      -6.1      3.531      5.779
REMARK  Name = 
REMARK  3 active torsions:
REMARK  status: ('A' for Active; 'I' for Inactive)
REMARK    1  A    between atoms: C_1  and  C_2
REMARK    2  A    between atoms: C_5  and  N_6
REMARK    3  A    between atoms: C_13  and  N_14
REMARK                            x       y       z     vdW  Elec       q    Type
REMARK                         _______ _______ _______ _____ _____    ______ ____
ROOT
ATOM      1  C   UNL     1       7.366   4.972  13.891  0.00  0.00    +0.000 C 
ATOM      2  C   UNL     1       6.647   4.758  15.190  0.00  0.00    +0.000 A 
ATOM      3  C   UNL     1       5.423   4.085  15.218  0.00  0.00    +0.000 A 
ATOM      4  C   UNL     1       4.731   3.905  16.420  0.00  0.00    +0.000 A 
ATOM      5  C   UNL     1       5.257   4.337  17.647  0.00  0.00    +0.000 A 
ATOM      6  C   UNL     1       6.467   5.047  17.591  0.00  0.00    +0.000 A 
ATOM      7  C   UNL     1       7.163   5.265  16.387  0.00  0.00    +0.000 A 
ENDROOT
BRANCH   5   8
ATOM      8  N   UNL     1       4.515   4.171  18.834  0.00  0.00    +0.000 NA
ATOM      9  C   UNL     1       3.434   4.848  19.060  0.00  0.00    +0.000 A 
ATOM     10  S   UNL     1       2.547   6.013  18.151  0.00  0.00    +0.000 S 
ATOM     11  S   UNL     1       2.129   7.154  19.779  0.00  0.00    +0.000 S 
ATOM     12  N   UNL     1       1.980   5.828  20.784  0.00  0.00    +0.000 NA
ATOM     13  C   UNL     1       2.637   4.804  20.332  0.00  0.00    +0.000 A 
ATOM     14 CL   UNL     1       2.597   3.328  21.184  0.00  0.00    +0.000 Cl
ENDBRANCH   5   8
BRANCH   6  15
ATOM     15  N   UNL     1       7.029   5.620  18.797  0.00  0.00    +0.000 N 
ATOM     16  O   UNL     1       6.828   5.017  19.861  0.00  0.00    +0.000 OA
ATOM     17  O   UNL     1       7.731   6.631  18.663  0.00  0.00    +0.000 OA
ENDBRANCH   6  15
TORSDOF 2
ENDMDL
MODEL 7
REMARK VINA RESULT:      -5.9      3.231      5.346
REMARK  Name = 
REMARK  3 active torsions:
REMARK  status: ('A' for Active; 'I' for Inactive)
REMARK    1  A    between atoms: C_1  and  C_2
REMARK    2  A    between atoms: C_5  and  N_6
REMARK    3  A    between atoms: C_13  and  N_14
REMARK                            x       y       z     vdW  Elec       q    Type
REMARK                         _______ _______ _______ _____ _____    ______ ____
ROOT
ATOM      1  C   UNL     1       8.594   8.745  18.020  0.00  0.00    +0.000 C 
ATOM      2  C   UNL     1       7.751   7.515  18.182  0.00  0.00    +0.000 A 
ATOM      3  C   UNL     1       8.033   6.593  19.193  0.00  0.00    +0.000 A 
ATOM      4  C   UNL     1       7.272   5.428  19.335  0.00  0.00    +0.000 A 
ATOM      5  C   UNL     1       6.166   5.166  18.513  0.00  0.00    +0.000 A 
ATOM      6  C   UNL     1       5.926   6.083  17.478  0.00  0.00    +0.000 A 
ATOM      7  C   UNL     1       6.700   7.245  17.301  0.00  0.00    +0.000 A 
ENDROOT
BRANCH   5   8
ATOM      8  N   UNL     1       5.443   3.964  18.661  0.00  0.00    +0.000 NA
ATOM      9  C   UNL     1       4.254   3.944  19.178  0.00  0.00    +0.000 A 
ATOM     10  S   UNL     1       3.193   5.167  19.766  0.00  0.00    +0.000 S 
ATOM     11  S   UNL     1       2.549   4.037  21.327  0.00  0.00    +0.000 S 
ATOM     12  N   UNL     1       2.618   2.619  20.446  0.00  0.00    +0.000 NA
ATOM     13  C   UNL     1       3.455   2.705  19.458  0.00  0.00    +0.000 A 
ATOM     14 CL   UNL     1       3.661   1.381  18.404  0.00  0.00    +0.000 Cl
ENDBRANCH   5   8
BRANCH   6  15
ATOM     15  N   UNL     1       4.869   5.835  16.518  0.00  0.00    +0.000 N 
ATOM     16  O   UNL     1       3.800   6.440  16.679  0.00  0.00    +0.000 OA
ATOM     17  O   UNL     1       5.140   5.092  15.565  0.00  0.00    +0.000 OA
ENDBRANCH   6  15
TORSDOF 2
ENDMDL
MODEL 8
REMARK VINA RESULT:      -5.7      3.507      5.959
REMARK  Name = 
REMARK  3 active torsions:
REMARK  status: ('A' for Active; 'I' for Inactive)
REMARK    1  A    between atoms: C_1  and  C_2
REMARK    2  A    between atoms: C_5  and  N_6
REMARK    3  A    between atoms: C_13  and  N_14
REMARK                            x       y       z     vdW  Elec       q    Type
REMARK                         _______ _______ _______ _____ _____    ______ ____
ROOT
ATOM      1  C   UNL     1       7.493   4.734  13.925  0.00  0.00    +0.000 C 
ATOM      2  C   UNL     1       6.605   4.765  15.133  0.00  0.00    +0.000 A 
ATOM      3  C   UNL     1       5.239   4.496  15.014  0.00  0.00    +0.000 A 
ATOM      4  C   UNL     1       4.397   4.550  16.129  0.00  0.00    +0.000 A 
ATOM      5  C   UNL     1       4.891   4.817  17.415  0.00  0.00    +0.000 A 
ATOM      6  C   UNL     1       6.258   5.126  17.506  0.00  0.00    +0.000 A 
ATOM      7  C   UNL     1       7.115   5.107  16.390  0.00  0.00    +0.000 A 
ENDROOT
BRANCH   5   8
ATOM      8  N   UNL     1       4.008   4.900  18.511  0.00  0.00    +0.000 NA
ATOM      9  C   UNL     1       3.307   3.880  18.898  0.00  0.00    +0.000 A 
ATOM     10  S   UNL     1       3.197   2.244  18.371  0.00  0.00    +0.000 S 
ATOM     11  S   UNL     1       1.183   2.162  18.628  0.00  0.00    +0.000 S 
ATOM     12  N   UNL     1       1.225   3.146  19.978  0.00  0.00    +0.000 NA
ATOM     13  C   UNL     1       2.277   3.905  19.990  0.00  0.00    +0.000 A 
ATOM     14 CL   UNL     1       2.540   4.969  21.295  0.00  0.00    +0.000 Cl
ENDBRANCH   5   8
BRANCH   6  15
ATOM     15  N   UNL     1       6.831   5.517  18.778  0.00  0.00    +0.000 N 
ATOM     16  O   UNL     1       7.564   6.516  18.789  0.00  0.00    +0.000 OA
ATOM     17  O   UNL     1       6.485   4.866  19.773  0.00  0.00    +0.000 OA
ENDBRANCH   6  15
TORSDOF 2
ENDMDL
MODEL 9
REMARK VINA RESULT:      -5.7      2.468      3.022
REMARK  Name = 
REMARK  3 active torsions:
REMARK  status: ('A' for Active; 'I' for Inactive)
REMARK    1  A    between atoms: C_1  and  C_2
REMARK    2  A    between atoms: C_5  and  N_6
REMARK    3  A    between atoms: C_13  and  N_14
REMARK                            x       y       z     vdW  Elec       q    Type
REMARK                         _______ _______ _______ _____ _____    ______ ____
ROOT
ATOM      1  C   UNL     1       0.650   7.612  21.572  0.00  0.00    +0.000 C 
ATOM      2  C   UNL     1       1.510   7.078  20.464  0.00  0.00    +0.000 A 
ATOM      3  C   UNL     1       1.971   7.927  19.455  0.00  0.00    +0.000 A 
ATOM      4  C   UNL     1       2.748   7.435  18.402  0.00  0.00    +0.000 A 
ATOM      5  C   UNL     1       3.145   6.090  18.344  0.00  0.00    +0.000 A 
ATOM      6  C   UNL     1       2.636   5.246  19.344  0.00  0.00    +0.000 A 
ATOM      7  C   UNL     1       1.827   5.718  20.394  0.00  0.00    +0.000 A 
ENDROOT
BRANCH   5   8
ATOM      8  N   UNL     1       3.898   5.621  17.249  0.00  0.00    +0.000 NA
ATOM      9  C   UNL     1       5.193   5.574  17.284  0.00  0.00    +0.000 A 
ATOM     10  S   UNL     1       6.364   5.951  18.490  0.00  0.00    +0.000 S 
ATOM     11  S   UNL     1       7.661   6.768  17.156  0.00  0.00    +0.000 S 
ATOM     12  N   UNL     1       7.261   5.674  15.959  0.00  0.00    +0.000 NA
ATOM     13  C   UNL     1       6.075   5.179  16.135  0.00  0.00    +0.000 A 
ATOM     14 CL   UNL     1       5.472   4.013  15.046  0.00  0.00    +0.000 Cl
ENDBRANCH   5   8
BRANCH   6  15
ATOM     15  N   UNL     1       2.908   3.824  19.301  0.00  0.00    +0.000 N 
ATOM     16  O   UNL     1       3.965   3.431  19.816  0.00  0.00    +0.000 OA
ATOM     17  O   UNL     1       2.028   3.099  18.819  0.00  0.00    +0.000 OA
ENDBRANCH   6  15
TORSDOF 2
ENDMDL
