MODEL 1
REMARK VINA RESULT:      -7.3      0.000      0.000
REMARK  Name = 
REMARK  10 active torsions:
REMARK  status: ('A' for Active; 'I' for Inactive)
REMARK    1  A    between atoms: C_1  and  C_2
REMARK    2  A    between atoms: C_2  and  C_3
REMARK    3  A    between atoms: C_3  and  N_4
REMARK    4  A    between atoms: N_4  and  C_5
REMARK    5  A    between atoms: N_4  and  S_15
REMARK    6  A    between atoms: C_5  and  C_6
REMARK    7  A    between atoms: C_6  and  C_7
REMARK    8  A    between atoms: S_15  and  C_18
REMARK    9  A    between atoms: C_21  and  C_22
REMARK   10  A    between atoms: C_22  and  C_23
REMARK                            x       y       z     vdW  Elec       q    Type
REMARK                         _______ _______ _______ _____ _____    ______ ____
ROOT
ATOM      1  N   UNL     1       3.531   5.081  18.906  0.00  0.00    +0.000 NA
ENDROOT
BRANCH   1   2
ATOM      2  S   UNL     1       5.188   4.519  18.959  0.00  0.00    +0.000 S 
ATOM      3  O   UNL     1       6.006   5.535  19.590  0.00  0.00    +0.000 OA
ATOM      4  O   UNL     1       5.147   3.168  19.481  0.00  0.00    +0.000 OA
BRANCH   2   5
ATOM      5  C   UNL     1       5.732   4.444  17.276  0.00  0.00    +0.000 A 
ATOM      6  C   UNL     1       4.831   4.049  16.285  0.00  0.00    +0.000 A 
ATOM      7  C   UNL     1       5.246   4.033  14.954  0.00  0.00    +0.000 A 
ATOM      8  C   UNL     1       6.552   4.415  14.607  0.00  0.00    +0.000 A 
ATOM      9  C   UNL     1       7.435   4.836  15.613  0.00  0.00    +0.000 A 
ATOM     10  C   UNL     1       7.028   4.848  16.946  0.00  0.00    +0.000 A 
BRANCH   8  11
ATOM     11  C   UNL     1       6.996   4.385  13.166  0.00  0.00    +0.000 C 
ATOM     12  C   UNL     1       6.164   3.434  12.317  0.00  0.00    +0.000 C 
ENDBRANCH   8  11
ENDBRANCH   2   5
ENDBRANCH   1   2
BRANCH   1  13
ATOM     13  C   UNL     1       2.794   4.779  20.187  0.00  0.00    +0.000 C 
BRANCH  13  15
ATOM     14  C   UNL     1       1.303   3.396  18.626  0.00  0.00    +0.000 C 
ATOM     15  C   UNL     1       1.659   3.760  20.059  0.00  0.00    +0.000 C 
ENDBRANCH  13  15
ENDBRANCH   1  13
BRANCH   1  16
ATOM     16  C   UNL     1       3.445   6.569  18.551  0.00  0.00    +0.000 C 
BRANCH  16  17
ATOM     17  C   UNL     1       2.011   7.056  18.361  0.00  0.00    +0.000 C 
BRANCH  17  18
ATOM     18  C   UNL     1       1.852   8.563  18.377  0.00  0.00    +0.000 C 
ATOM     19  O   UNL     1       1.976   9.228  17.354  0.00  0.00    +0.000 OA
ATOM     20  N   UNL     1       1.529   9.121  19.610  0.00  0.00    +0.000 N 
ATOM     21  C   UNL     1       1.195  10.543  19.713  0.00  0.00    +0.000 C 
ATOM     22  C   UNL     1      -0.247  10.725  20.235  0.00  0.00    +0.000 C 
ATOM     23  N   UNL     1      -0.491  10.013  21.506  0.00  0.00    +0.000 NA
ATOM     24  C   UNL     1      -0.136   8.588  21.370  0.00  0.00    +0.000 C 
ATOM     25  C   UNL     1       1.306   8.382  20.864  0.00  0.00    +0.000 C 
ATOM     26  H   UNL     1      -1.479  10.089  21.747  0.00  0.00    +0.000 HD
ENDBRANCH  17  18
ENDBRANCH  16  17
ENDBRANCH   1  16
TORSDOF 8
ENDMDL
MODEL 2
REMARK VINA RESULT:      -7.0      1.417      2.203
REMARK  Name = 
REMARK  10 active torsions:
REMARK  status: ('A' for Active; 'I' for Inactive)
REMARK    1  A    between atoms: C_1  and  C_2
REMARK    2  A    between atoms: C_2  and  C_3
REMARK    3  A    between atoms: C_3  and  N_4
REMARK    4  A    between atoms: N_4  and  C_5
REMARK    5  A    between atoms: N_4  and  S_15
REMARK    6  A    between atoms: C_5  and  C_6
REMARK    7  A    between atoms: C_6  and  C_7
REMARK    8  A    between atoms: S_15  and  C_18
REMARK    9  A    between atoms: C_21  and  C_22
REMARK   10  A    between atoms: C_22  and  C_23
REMARK                            x       y       z     vdW  Elec       q    Type
REMARK                         _______ _______ _______ _____ _____    ______ ____
ROOT
ATOM      1  N   UNL     1       2.919   4.648  18.627  0.00  0.00    +0.000 NA
ENDROOT
BRANCH   1   2
ATOM      2  S   UNL     1       4.294   3.568  18.550  0.00  0.00    +0.000 S 
ATOM      3  O   UNL     1       5.164   3.839  19.677  0.00  0.00    +0.000 OA
ATOM      4  O   UNL     1       3.762   2.239  18.325  0.00  0.00    +0.000 OA
BRANCH   2   5
ATOM      5  C   UNL     1       5.211   4.046  17.113  0.00  0.00    +0.000 A 
ATOM      6  C   UNL     1       6.540   4.449  17.254  0.00  0.00    +0.000 A 
ATOM      7  C   UNL     1       7.275   4.783  16.118  0.00  0.00    +0.000 A 
ATOM      8  C   UNL     1       6.693   4.711  14.842  0.00  0.00    +0.000 A 
ATOM      9  C   UNL     1       5.364   4.277  14.717  0.00  0.00    +0.000 A 
ATOM     10  C   UNL     1       4.622   3.948  15.849  0.00  0.00    +0.000 A 
BRANCH   8  11
ATOM     11  C   UNL     1       7.493   5.083  13.619  0.00  0.00    +0.000 C 
ATOM     12  C   UNL     1       7.114   4.258  12.398  0.00  0.00    +0.000 C 
ENDBRANCH   8  11
ENDBRANCH   2   5
ENDBRANCH   1   2
BRANCH   1  13
ATOM     13  C   UNL     1       1.641   3.908  18.933  0.00  0.00    +0.000 C 
BRANCH  13  15
ATOM     14  C   UNL     1       1.468   2.890  21.280  0.00  0.00    +0.000 C 
ATOM     15  C   UNL     1       1.130   4.059  20.368  0.00  0.00    +0.000 C 
ENDBRANCH  13  15
ENDBRANCH   1  13
BRANCH   1  16
ATOM     16  C   UNL     1       3.149   5.796  19.615  0.00  0.00    +0.000 C 
BRANCH  16  17
ATOM     17  C   UNL     1       2.800   7.163  19.033  0.00  0.00    +0.000 C 
BRANCH  17  18
ATOM     18  C   UNL     1       1.778   7.944  19.835  0.00  0.00    +0.000 C 
ATOM     19  O   UNL     1       1.481   7.618  20.979  0.00  0.00    +0.000 OA
ATOM     20  N   UNL     1       1.237   9.057  19.199  0.00  0.00    +0.000 N 
ATOM     21  C   UNL     1       0.363   9.975  19.932  0.00  0.00    +0.000 C 
ATOM     22  C   UNL     1       0.980  11.390  19.978  0.00  0.00    +0.000 C 
ATOM     23  N   UNL     1       1.320  11.912  18.639  0.00  0.00    +0.000 NA
ATOM     24  C   UNL     1       2.192  10.960  17.926  0.00  0.00    +0.000 C 
ATOM     25  C   UNL     1       1.588   9.543  17.854  0.00  0.00    +0.000 C 
ATOM     26  H   UNL     1       1.810  12.801  18.742  0.00  0.00    +0.000 HD
ENDBRANCH  17  18
ENDBRANCH  16  17
ENDBRANCH   1  16
TORSDOF 8
ENDMDL
MODEL 3
REMARK VINA RESULT:      -6.9      2.442      3.325
REMARK  Name = 
REMARK  10 active torsions:
REMARK  status: ('A' for Active; 'I' for Inactive)
REMARK    1  A    between atoms: C_1  and  C_2
REMARK    2  A    between atoms: C_2  and  C_3
REMARK    3  A    between atoms: C_3  and  N_4
REMARK    4  A    between atoms: N_4  and  C_5
REMARK    5  A    between atoms: N_4  and  S_15
REMARK    6  A    between atoms: C_5  and  C_6
REMARK    7  A    between atoms: C_6  and  C_7
REMARK    8  A    between atoms: S_15  and  C_18
REMARK    9  A    between atoms: C_21  and  C_22
REMARK   10  A    between atoms: C_22  and  C_23
REMARK                            x       y       z     vdW  Elec       q    Type
REMARK                         _______ _______ _______ _____ _____    ______ ____
ROOT
ATOM      1  N   UNL     1       2.411   4.927  18.692  0.00  0.00    +0.000 NA
ENDROOT
BRANCH   1   2
ATOM      2  S   UNL     1       3.756   4.012  18.048  0.00  0.00    +0.000 S 
ATOM      3  O   UNL     1       4.082   2.946  18.974  0.00  0.00    +0.000 OA
ATOM      4  O   UNL     1       3.432   3.721  16.665  0.00  0.00    +0.000 OA
BRANCH   2   5
ATOM      5  C   UNL     1       5.147   5.107  18.070  0.00  0.00    +0.000 A 
ATOM      6  C   UNL     1       5.208   6.151  17.145  0.00  0.00    +0.000 A 
ATOM      7  C   UNL     1       6.280   7.040  17.190  0.00  0.00    +0.000 A 
ATOM      8  C   UNL     1       7.288   6.897  18.158  0.00  0.00    +0.000 A 
ATOM      9  C   UNL     1       7.196   5.858  19.097  0.00  0.00    +0.000 A 
ATOM     10  C   UNL     1       6.129   4.962  19.053  0.00  0.00    +0.000 A 
BRANCH   8  11
ATOM     11  C   UNL     1       8.450   7.858  18.194  0.00  0.00    +0.000 C 
ATOM     12  C   UNL     1       8.047   9.278  17.823  0.00  0.00    +0.000 C 
ENDBRANCH   8  11
ENDBRANCH   2   5
ENDBRANCH   1   2
BRANCH   1  13
ATOM     13  C   UNL     1       1.425   4.043  19.414  0.00  0.00    +0.000 C 
BRANCH  13  15
ATOM     14  C   UNL     1       1.369   2.656  21.570  0.00  0.00    +0.000 C 
ATOM     15  C   UNL     1       1.562   4.026  20.939  0.00  0.00    +0.000 C 
ENDBRANCH  13  15
ENDBRANCH   1  13
BRANCH   1  16
ATOM     16  C   UNL     1       2.881   6.082  19.582  0.00  0.00    +0.000 C 
BRANCH  16  17
ATOM     17  C   UNL     1       2.390   7.445  19.102  0.00  0.00    +0.000 C 
BRANCH  17  18
ATOM     18  C   UNL     1       1.541   8.196  20.106  0.00  0.00    +0.000 C 
ATOM     19  O   UNL     1       1.390   7.782  21.251  0.00  0.00    +0.000 OA
ATOM     20  N   UNL     1       0.980   9.386  19.651  0.00  0.00    +0.000 N 
ATOM     21  C   UNL     1       0.275  10.273  20.578  0.00  0.00    +0.000 C 
ATOM     22  C   UNL     1       0.974  11.648  20.650  0.00  0.00    +0.000 C 
ATOM     23  N   UNL     1       1.151  12.273  19.324  0.00  0.00    +0.000 NA
ATOM     24  C   UNL     1       1.856  11.350  18.414  0.00  0.00    +0.000 C 
ATOM     25  C   UNL     1       1.165   9.974  18.315  0.00  0.00    +0.000 C 
ATOM     26  H   UNL     1       1.702  13.125  19.427  0.00  0.00    +0.000 HD
ENDBRANCH  17  18
ENDBRANCH  16  17
ENDBRANCH   1  16
TORSDOF 8
ENDMDL
MODEL 4
REMARK VINA RESULT:      -6.8      1.255      1.731
REMARK  Name = 
REMARK  10 active torsions:
REMARK  status: ('A' for Active; 'I' for Inactive)
REMARK    1  A    between atoms: C_1  and  C_2
REMARK    2  A    between atoms: C_2  and  C_3
REMARK    3  A    between atoms: C_3  and  N_4
REMARK    4  A    between atoms: N_4  and  C_5
REMARK    5  A    between atoms: N_4  and  S_15
REMARK    6  A    between atoms: C_5  and  C_6
REMARK    7  A    between atoms: C_6  and  C_7
REMARK    8  A    between atoms: S_15  and  C_18
REMARK    9  A    between atoms: C_21  and  C_22
REMARK   10  A    between atoms: C_22  and  C_23
REMARK                            x       y       z     vdW  Elec       q    Type
REMARK                         _______ _______ _______ _____ _____    ______ ____
ROOT
ATOM      1  N   UNL     1       3.623   5.238  19.174  0.00  0.00    +0.000 NA
ENDROOT
BRANCH   1   2
ATOM      2  S   UNL     1       5.222   4.528  19.107  0.00  0.00    +0.000 S 
ATOM      3  O   UNL     1       6.163   5.437  19.727  0.00  0.00    +0.000 OA
ATOM      4  O   UNL     1       5.086   3.164  19.578  0.00  0.00    +0.000 OA
BRANCH   2   5
ATOM      5  C   UNL     1       5.662   4.479  17.392  0.00  0.00    +0.000 A 
ATOM      6  C   UNL     1       4.654   4.381  16.432  0.00  0.00    +0.000 A 
ATOM      7  C   UNL     1       4.997   4.387  15.081  0.00  0.00    +0.000 A 
ATOM      8  C   UNL     1       6.339   4.498  14.684  0.00  0.00    +0.000 A 
ATOM      9  C   UNL     1       7.337   4.623  15.663  0.00  0.00    +0.000 A 
ATOM     10  C   UNL     1       7.001   4.611  17.015  0.00  0.00    +0.000 A 
BRANCH   8  11
ATOM     11  C   UNL     1       6.702   4.494  13.220  0.00  0.00    +0.000 C 
ATOM     12  C   UNL     1       6.042   3.356  12.456  0.00  0.00    +0.000 C 
ENDBRANCH   8  11
ENDBRANCH   2   5
ENDBRANCH   1   2
BRANCH   1  13
ATOM     13  C   UNL     1       2.810   4.681  20.316  0.00  0.00    +0.000 C 
BRANCH  13  15
ATOM     14  C   UNL     1       1.082   2.830  20.720  0.00  0.00    +0.000 C 
ATOM     15  C   UNL     1       1.467   4.064  19.918  0.00  0.00    +0.000 C 
ENDBRANCH  13  15
ENDBRANCH   1  13
BRANCH   1  16
ATOM     16  C   UNL     1       3.681   6.768  19.224  0.00  0.00    +0.000 C 
BRANCH  16  17
ATOM     17  C   UNL     1       2.399   7.430  18.727  0.00  0.00    +0.000 C 
BRANCH  17  18
ATOM     18  C   UNL     1       1.614   8.161  19.797  0.00  0.00    +0.000 C 
ATOM     19  O   UNL     1       1.490   7.697  20.926  0.00  0.00    +0.000 OA
ATOM     20  N   UNL     1       1.081   9.390  19.420  0.00  0.00    +0.000 N 
ATOM     21  C   UNL     1       0.442  10.255  20.413  0.00  0.00    +0.000 C 
ATOM     22  C   UNL     1       1.193  11.600  20.523  0.00  0.00    +0.000 C 
ATOM     23  N   UNL     1       1.344  12.282  19.221  0.00  0.00    +0.000 NA
ATOM     24  C   UNL     1       1.981  11.380  18.244  0.00  0.00    +0.000 C 
ATOM     25  C   UNL     1       1.239  10.035  18.106  0.00  0.00    +0.000 C 
ATOM     26  H   UNL     1       1.928  13.109  19.344  0.00  0.00    +0.000 HD
ENDBRANCH  17  18
ENDBRANCH  16  17
ENDBRANCH   1  16
TORSDOF 8
ENDMDL
MODEL 5
REMARK VINA RESULT:      -6.8      2.539      6.517
REMARK  Name = 
REMARK  10 active torsions:
REMARK  status: ('A' for Active; 'I' for Inactive)
REMARK    1  A    between atoms: C_1  and  C_2
REMARK    2  A    between atoms: C_2  and  C_3
REMARK    3  A    between atoms: C_3  and  N_4
REMARK    4  A    between atoms: N_4  and  C_5
REMARK    5  A    between atoms: N_4  and  S_15
REMARK    6  A    between atoms: C_5  and  C_6
REMARK    7  A    between atoms: C_6  and  C_7
REMARK    8  A    between atoms: S_15  and  C_18
REMARK    9  A    between atoms: C_21  and  C_22
REMARK   10  A    between atoms: C_22  and  C_23
REMARK                            x       y       z     vdW  Elec       q    Type
REMARK                         _______ _______ _______ _____ _____    ______ ____
ROOT
ATOM      1  N   UNL     1       4.778   4.874  16.222  0.00  0.00    +0.000 NA
ENDROOT
BRANCH   1   2
ATOM      2  S   UNL     1       5.400   6.163  17.229  0.00  0.00    +0.000 S 
ATOM      3  O   UNL     1       6.157   5.581  18.319  0.00  0.00    +0.000 OA
ATOM      4  O   UNL     1       6.008   7.127  16.334  0.00  0.00    +0.000 OA
BRANCH   2   5
ATOM      5  C   UNL     1       3.987   6.921  17.979  0.00  0.00    +0.000 A 
ATOM      6  C   UNL     1       3.494   6.407  19.180  0.00  0.00    +0.000 A 
ATOM      7  C   UNL     1       2.409   7.031  19.793  0.00  0.00    +0.000 A 
ATOM      8  C   UNL     1       1.818   8.167  19.219  0.00  0.00    +0.000 A 
ATOM      9  C   UNL     1       2.344   8.687  18.026  0.00  0.00    +0.000 A 
ATOM     10  C   UNL     1       3.425   8.064  17.405  0.00  0.00    +0.000 A 
BRANCH   8  11
ATOM     11  C   UNL     1       0.638   8.830  19.885  0.00  0.00    +0.000 C 
ATOM     12  C   UNL     1       0.607   8.596  21.388  0.00  0.00    +0.000 C 
ENDBRANCH   8  11
ENDBRANCH   2   5
ENDBRANCH   1   2
BRANCH   1  13
ATOM     13  C   UNL     1       5.880   3.978  15.713  0.00  0.00    +0.000 C 
BRANCH  13  15
ATOM     14  C   UNL     1       7.278   4.814  13.733  0.00  0.00    +0.000 C 
ATOM     15  C   UNL     1       6.084   3.994  14.196  0.00  0.00    +0.000 C 
ENDBRANCH  13  15
ENDBRANCH   1  13
BRANCH   1  16
ATOM     16  C   UNL     1       3.688   4.068  16.936  0.00  0.00    +0.000 C 
BRANCH  16  17
ATOM     17  C   UNL     1       4.204   2.757  17.524  0.00  0.00    +0.000 C 
BRANCH  17  18
ATOM     18  C   UNL     1       4.289   2.738  19.036  0.00  0.00    +0.000 C 
ATOM     19  O   UNL     1       5.318   3.060  19.622  0.00  0.00    +0.000 OA
ATOM     20  N   UNL     1       3.124   2.364  19.701  0.00  0.00    +0.000 N 
ATOM     21  C   UNL     1       3.041   2.463  21.159  0.00  0.00    +0.000 C 
ATOM     22  C   UNL     1       1.923   3.444  21.573  0.00  0.00    +0.000 C 
ATOM     23  N   UNL     1       0.615   3.111  20.972  0.00  0.00    +0.000 NA
ATOM     24  C   UNL     1       0.737   3.010  19.506  0.00  0.00    +0.000 C 
ATOM     25  C   UNL     1       1.839   2.023  19.069  0.00  0.00    +0.000 C 
ATOM     26  H   UNL     1      -0.055   3.845  21.202  0.00  0.00    +0.000 HD
ENDBRANCH  17  18
ENDBRANCH  16  17
ENDBRANCH   1  16
TORSDOF 8
ENDMDL
MODEL 6
REMARK VINA RESULT:      -6.8      1.254      1.974
REMARK  Name = 
REMARK  10 active torsions:
REMARK  status: ('A' for Active; 'I' for Inactive)
REMARK    1  A    between atoms: C_1  and  C_2
REMARK    2  A    between atoms: C_2  and  C_3
REMARK    3  A    between atoms: C_3  and  N_4
REMARK    4  A    between atoms: N_4  and  C_5
REMARK    5  A    between atoms: N_4  and  S_15
REMARK    6  A    between atoms: C_5  and  C_6
REMARK    7  A    between atoms: C_6  and  C_7
REMARK    8  A    between atoms: S_15  and  C_18
REMARK    9  A    between atoms: C_21  and  C_22
REMARK   10  A    between atoms: C_22  and  C_23
REMARK                            x       y       z     vdW  Elec       q    Type
REMARK                         _______ _______ _______ _____ _____    ______ ____
ROOT
ATOM      1  N   UNL     1       3.629   5.165  19.115  0.00  0.00    +0.000 NA
ENDROOT
BRANCH   1   2
ATOM      2  S   UNL     1       5.241   4.488  19.034  0.00  0.00    +0.000 S 
ATOM      3  O   UNL     1       6.163   5.398  19.683  0.00  0.00    +0.000 OA
ATOM      4  O   UNL     1       5.130   3.109  19.467  0.00  0.00    +0.000 OA
BRANCH   2   5
ATOM      5  C   UNL     1       5.688   4.495  17.321  0.00  0.00    +0.000 A 
ATOM      6  C   UNL     1       7.008   4.778  16.962  0.00  0.00    +0.000 A 
ATOM      7  C   UNL     1       7.370   4.740  15.616  0.00  0.00    +0.000 A 
ATOM      8  C   UNL     1       6.425   4.416  14.629  0.00  0.00    +0.000 A 
ATOM      9  C   UNL     1       5.110   4.107  15.012  0.00  0.00    +0.000 A 
ATOM     10  C   UNL     1       4.741   4.149  16.355  0.00  0.00    +0.000 A 
BRANCH   8  11
ATOM     11  C   UNL     1       6.824   4.386  13.175  0.00  0.00    +0.000 C 
ATOM     12  C   UNL     1       7.976   5.330  12.865  0.00  0.00    +0.000 C 
ENDBRANCH   8  11
ENDBRANCH   2   5
ENDBRANCH   1   2
BRANCH   1  13
ATOM     13  C   UNL     1       2.782   4.475  20.155  0.00  0.00    +0.000 C 
BRANCH  13  15
ATOM     14  C   UNL     1       1.395   3.821  18.100  0.00  0.00    +0.000 C 
ATOM     15  C   UNL     1       1.564   3.726  19.609  0.00  0.00    +0.000 C 
ENDBRANCH  13  15
ENDBRANCH   1  13
BRANCH   1  16
ATOM     16  C   UNL     1       3.658   6.681  19.336  0.00  0.00    +0.000 C 
BRANCH  16  17
ATOM     17  C   UNL     1       2.401   7.382  18.828  0.00  0.00    +0.000 C 
BRANCH  17  18
ATOM     18  C   UNL     1       1.582   8.061  19.907  0.00  0.00    +0.000 C 
ATOM     19  O   UNL     1       1.473   7.573  21.027  0.00  0.00    +0.000 OA
ATOM     20  N   UNL     1       0.999   9.272  19.548  0.00  0.00    +0.000 N 
ATOM     21  C   UNL     1       0.320  10.093  20.553  0.00  0.00    +0.000 C 
ATOM     22  C   UNL     1       1.012  11.466  20.689  0.00  0.00    +0.000 C 
ATOM     23  N   UNL     1       1.139  12.176  19.399  0.00  0.00    +0.000 NA
ATOM     24  C   UNL     1       1.818  11.319  18.409  0.00  0.00    +0.000 C 
ATOM     25  C   UNL     1       1.134   9.946  18.246  0.00  0.00    +0.000 C 
ATOM     26  H   UNL     1       1.688  13.025  19.538  0.00  0.00    +0.000 HD
ENDBRANCH  17  18
ENDBRANCH  16  17
ENDBRANCH   1  16
TORSDOF 8
ENDMDL
MODEL 7
REMARK VINA RESULT:      -6.7      2.159      2.775
REMARK  Name = 
REMARK  10 active torsions:
REMARK  status: ('A' for Active; 'I' for Inactive)
REMARK    1  A    between atoms: C_1  and  C_2
REMARK    2  A    between atoms: C_2  and  C_3
REMARK    3  A    between atoms: C_3  and  N_4
REMARK    4  A    between atoms: N_4  and  C_5
REMARK    5  A    between atoms: N_4  and  S_15
REMARK    6  A    between atoms: C_5  and  C_6
REMARK    7  A    between atoms: C_6  and  C_7
REMARK    8  A    between atoms: S_15  and  C_18
REMARK    9  A    between atoms: C_21  and  C_22
REMARK   10  A    between atoms: C_22  and  C_23
REMARK                            x       y       z     vdW  Elec       q    Type
REMARK                         _______ _______ _______ _____ _____    ______ ____
ROOT
ATOM      1  N   UNL     1       3.045   4.393  19.598  0.00  0.00    +0.000 NA
ENDROOT
BRANCH   1   2
ATOM      2  S   UNL     1       4.389   3.568  18.839  0.00  0.00    +0.000 S 
ATOM      3  O   UNL     1       5.066   2.763  19.836  0.00  0.00    +0.000 OA
ATOM      4  O   UNL     1       3.871   2.968  17.626  0.00  0.00    +0.000 OA
BRANCH   2   5
ATOM      5  C   UNL     1       5.542   4.831  18.381  0.00  0.00    +0.000 A 
ATOM      6  C   UNL     1       5.265   5.639  17.277  0.00  0.00    +0.000 A 
ATOM      7  C   UNL     1       6.151   6.663  16.943  0.00  0.00    +0.000 A 
ATOM      8  C   UNL     1       7.305   6.889  17.709  0.00  0.00    +0.000 A 
ATOM      9  C   UNL     1       7.553   6.085  18.833  0.00  0.00    +0.000 A 
ATOM     10  C   UNL     1       6.675   5.055  19.168  0.00  0.00    +0.000 A 
BRANCH   8  11
ATOM     11  C   UNL     1       8.263   7.993  17.335  0.00  0.00    +0.000 C 
ATOM     12  C   UNL     1       7.903   9.323  17.981  0.00  0.00    +0.000 C 
ENDBRANCH   8  11
ENDBRANCH   2   5
ENDBRANCH   1   2
BRANCH   1  13
ATOM     13  C   UNL     1       2.581   3.681  20.845  0.00  0.00    +0.000 C 
BRANCH  13  15
ATOM     14  C   UNL     1       0.742   2.824  19.277  0.00  0.00    +0.000 C 
ATOM     15  C   UNL     1       1.266   2.911  20.703  0.00  0.00    +0.000 C 
ENDBRANCH  13  15
ENDBRANCH   1  13
BRANCH   1  16
ATOM     16  C   UNL     1       3.366   5.864  19.882  0.00  0.00    +0.000 C 
BRANCH  16  17
ATOM     17  C   UNL     1       2.118   6.736  19.991  0.00  0.00    +0.000 C 
BRANCH  17  18
ATOM     18  C   UNL     1       2.037   7.846  18.963  0.00  0.00    +0.000 C 
ATOM     19  O   UNL     1       2.406   7.673  17.806  0.00  0.00    +0.000 OA
ATOM     20  N   UNL     1       1.492   9.045  19.413  0.00  0.00    +0.000 N 
ATOM     21  C   UNL     1       1.217  10.132  18.471  0.00  0.00    +0.000 C 
ATOM     22  C   UNL     1      -0.290  10.465  18.452  0.00  0.00    +0.000 C 
ATOM     23  N   UNL     1      -0.831  10.756  19.795  0.00  0.00    +0.000 NA
ATOM     24  C   UNL     1      -0.530   9.647  20.719  0.00  0.00    +0.000 C 
ATOM     25  C   UNL     1       0.974   9.308  20.766  0.00  0.00    +0.000 C 
ATOM     26  H   UNL     1      -1.843  10.870  19.729  0.00  0.00    +0.000 HD
ENDBRANCH  17  18
ENDBRANCH  16  17
ENDBRANCH   1  16
TORSDOF 8
ENDMDL
MODEL 8
REMARK VINA RESULT:      -6.7      2.546      6.464
REMARK  Name = 
REMARK  10 active torsions:
REMARK  status: ('A' for Active; 'I' for Inactive)
REMARK    1  A    between atoms: C_1  and  C_2
REMARK    2  A    between atoms: C_2  and  C_3
REMARK    3  A    between atoms: C_3  and  N_4
REMARK    4  A    between atoms: N_4  and  C_5
REMARK    5  A    between atoms: N_4  and  S_15
REMARK    6  A    between atoms: C_5  and  C_6
REMARK    7  A    between atoms: C_6  and  C_7
REMARK    8  A    between atoms: S_15  and  C_18
REMARK    9  A    between atoms: C_21  and  C_22
REMARK   10  A    between atoms: C_22  and  C_23
REMARK                            x       y       z     vdW  Elec       q    Type
REMARK                         _______ _______ _______ _____ _____    ______ ____
ROOT
ATOM      1  N   UNL     1       5.066   5.013  16.079  0.00  0.00    +0.000 NA
ENDROOT
BRANCH   1   2
ATOM      2  S   UNL     1       5.661   6.248  17.168  0.00  0.00    +0.000 S 
ATOM      3  O   UNL     1       6.417   5.611  18.227  0.00  0.00    +0.000 OA
ATOM      4  O   UNL     1       6.261   7.273  16.338  0.00  0.00    +0.000 OA
BRANCH   2   5
ATOM      5  C   UNL     1       4.230   6.939  17.950  0.00  0.00    +0.000 A 
ATOM      6  C   UNL     1       3.589   8.029  17.359  0.00  0.00    +0.000 A 
ATOM      7  C   UNL     1       2.437   8.545  17.951  0.00  0.00    +0.000 A 
ATOM      8  C   UNL     1       1.919   7.975  19.125  0.00  0.00    +0.000 A 
ATOM      9  C   UNL     1       2.561   6.863  19.690  0.00  0.00    +0.000 A 
ATOM     10  C   UNL     1       3.717   6.346  19.106  0.00  0.00    +0.000 A 
BRANCH   8  11
ATOM     11  C   UNL     1       0.677   8.546  19.764  0.00  0.00    +0.000 C 
ATOM     12  C   UNL     1       0.645  10.067  19.723  0.00  0.00    +0.000 C 
ENDBRANCH   8  11
ENDBRANCH   2   5
ENDBRANCH   1   2
BRANCH   1  13
ATOM     13  C   UNL     1       5.682   5.131  14.707  0.00  0.00    +0.000 C 
BRANCH  13  15
ATOM     14  C   UNL     1       5.875   3.527  12.716  0.00  0.00    +0.000 C 
ATOM     15  C   UNL     1       6.279   3.836  14.150  0.00  0.00    +0.000 C 
ENDBRANCH  13  15
ENDBRANCH   1  13
BRANCH   1  16
ATOM     16  C   UNL     1       5.253   3.606  16.656  0.00  0.00    +0.000 C 
BRANCH  16  17
ATOM     17  C   UNL     1       4.024   3.101  17.408  0.00  0.00    +0.000 C 
BRANCH  17  18
ATOM     18  C   UNL     1       4.233   2.913  18.897  0.00  0.00    +0.000 C 
ATOM     19  O   UNL     1       5.304   3.185  19.430  0.00  0.00    +0.000 OA
ATOM     20  N   UNL     1       3.130   2.447  19.605  0.00  0.00    +0.000 N 
ATOM     21  C   UNL     1       3.165   2.379  21.068  0.00  0.00    +0.000 C 
ATOM     22  C   UNL     1       2.076   3.287  21.679  0.00  0.00    +0.000 C 
ATOM     23  N   UNL     1       0.727   3.001  21.151  0.00  0.00    +0.000 NA
ATOM     24  C   UNL     1       0.729   3.068  19.678  0.00  0.00    +0.000 C 
ATOM     25  C   UNL     1       1.800   2.157  19.045  0.00  0.00    +0.000 C 
ATOM     26  H   UNL     1       0.072   3.693  21.516  0.00  0.00    +0.000 HD
ENDBRANCH  17  18
ENDBRANCH  16  17
ENDBRANCH   1  16
TORSDOF 8
ENDMDL
MODEL 9
REMARK VINA RESULT:      -6.7      2.241      3.110
REMARK  Name = 
REMARK  10 active torsions:
REMARK  status: ('A' for Active; 'I' for Inactive)
REMARK    1  A    between atoms: C_1  and  C_2
REMARK    2  A    between atoms: C_2  and  C_3
REMARK    3  A    between atoms: C_3  and  N_4
REMARK    4  A    between atoms: N_4  and  C_5
REMARK    5  A    between atoms: N_4  and  S_15
REMARK    6  A    between atoms: C_5  and  C_6
REMARK    7  A    between atoms: C_6  and  C_7
REMARK    8  A    between atoms: S_15  and  C_18
REMARK    9  A    between atoms: C_21  and  C_22
REMARK   10  A    between atoms: C_22  and  C_23
REMARK                            x       y       z     vdW  Elec       q    Type
REMARK                         _______ _______ _______ _____ _____    ______ ____
ROOT
ATOM      1  N   UNL     1       3.106   4.548  18.907  0.00  0.00    +0.000 NA
ENDROOT
BRANCH   1   2
ATOM      2  S   UNL     1       4.671   3.919  18.439  0.00  0.00    +0.000 S 
ATOM      3  O   UNL     1       5.244   3.209  19.565  0.00  0.00    +0.000 OA
ATOM      4  O   UNL     1       4.485   3.260  17.162  0.00  0.00    +0.000 OA
BRANCH   2   5
ATOM      5  C   UNL     1       5.709   5.331  18.186  0.00  0.00    +0.000 A 
ATOM      6  C   UNL     1       6.943   5.396  18.836  0.00  0.00    +0.000 A 
ATOM      7  C   UNL     1       7.779   6.487  18.603  0.00  0.00    +0.000 A 
ATOM      8  C   UNL     1       7.393   7.508  17.720  0.00  0.00    +0.000 A 
ATOM      9  C   UNL     1       6.161   7.412  17.054  0.00  0.00    +0.000 A 
ATOM     10  C   UNL     1       5.318   6.328  17.288  0.00  0.00    +0.000 A 
BRANCH   8  11
ATOM     11  C   UNL     1       8.300   8.689  17.480  0.00  0.00    +0.000 C 
ATOM     12  C   UNL     1       8.724   9.374  18.772  0.00  0.00    +0.000 C 
ENDBRANCH   8  11
ENDBRANCH   2   5
ENDBRANCH   1   2
BRANCH   1  13
ATOM     13  C   UNL     1       2.121   3.442  19.196  0.00  0.00    +0.000 C 
BRANCH  13  15
ATOM     14  C   UNL     1       1.279   2.777  21.525  0.00  0.00    +0.000 C 
ATOM     15  C   UNL     1       2.383   2.659  20.485  0.00  0.00    +0.000 C 
ENDBRANCH  13  15
ENDBRANCH   1  13
BRANCH   1  16
ATOM     16  C   UNL     1       3.212   5.523  20.084  0.00  0.00    +0.000 C 
BRANCH  16  17
ATOM     17  C   UNL     1       1.927   6.312  20.322  0.00  0.00    +0.000 C 
BRANCH  17  18
ATOM     18  C   UNL     1       1.865   7.642  19.598  0.00  0.00    +0.000 C 
ATOM     19  O   UNL     1       2.110   7.729  18.399  0.00  0.00    +0.000 OA
ATOM     20  N   UNL     1       1.485   8.733  20.374  0.00  0.00    +0.000 N 
ATOM     21  C   UNL     1       1.236  10.034  19.750  0.00  0.00    +0.000 C 
ATOM     22  C   UNL     1      -0.227  10.473  19.977  0.00  0.00    +0.000 C 
ATOM     23  N   UNL     1      -0.614  10.468  21.402  0.00  0.00    +0.000 NA
ATOM     24  C   UNL     1      -0.342   9.148  22.001  0.00  0.00    +0.000 C 
ATOM     25  C   UNL     1       1.119   8.696  21.800  0.00  0.00    +0.000 C 
ATOM     26  H   UNL     1      -1.611  10.671  21.478  0.00  0.00    +0.000 HD
ENDBRANCH  17  18
ENDBRANCH  16  17
ENDBRANCH   1  16
TORSDOF 8
ENDMDL
