MODEL 1
REMARK VINA RESULT:      -7.6      0.000      0.000
REMARK  Name = 
REMARK  5 active torsions:
REMARK  status: ('A' for Active; 'I' for Inactive)
REMARK    1  A    between atoms: C_1  and  O_2
REMARK    2  A    between atoms: O_2  and  C_3
REMARK    3  A    between atoms: C_8  and  O_9
REMARK    4  A    between atoms: N_13  and  C_14
REMARK    5  A    between atoms: C_14  and  C_15
REMARK                            x       y       z     vdW  Elec       q    Type
REMARK                         _______ _______ _______ _____ _____    ______ ____
ROOT
ATOM      1  C   UNL     1       7.146   6.131  16.889  0.00  0.00    +0.000 A 
ATOM      2  C   UNL     1       6.383   5.991  18.052  0.00  0.00    +0.000 A 
ATOM      3  C   UNL     1       5.457   4.947  18.165  0.00  0.00    +0.000 A 
ATOM      4  C   UNL     1       5.330   4.026  17.130  0.00  0.00    +0.000 A 
ATOM      5  C   UNL     1       6.029   4.192  15.935  0.00  0.00    +0.000 A 
ATOM      6  C   UNL     1       6.921   5.259  15.815  0.00  0.00    +0.000 A 
ATOM      7  N   UNL     1       4.493   2.925  17.314  0.00  0.00    +0.000 N 
ATOM      8  C   UNL     1       3.577   2.811  18.323  0.00  0.00    +0.000 C 
ATOM      9  O   UNL     1       2.793   1.863  18.327  0.00  0.00    +0.000 OA
ATOM     10  N   UNL     1       3.520   3.857  19.212  0.00  0.00    +0.000 N 
ATOM     11  C   UNL     1       4.647   4.756  19.408  0.00  0.00    +0.000 C 
ATOM     12  H   UNL     1       4.425   2.213  16.602  0.00  0.00    +0.000 HD
ENDROOT
BRANCH   1  14
ATOM     13  C   UNL     1       7.921   8.240  17.582  0.00  0.00    +0.000 C 
ATOM     14  O   UNL     1       8.086   7.114  16.725  0.00  0.00    +0.000 OA
ENDBRANCH   1  14
BRANCH   6  15
ATOM     15  O   UNL     1       7.609   5.445  14.646  0.00  0.00    +0.000 OA
ATOM     16  H   UNL     1       8.555   5.306  14.805  0.00  0.00    +0.000 HD
ENDBRANCH   6  15
BRANCH  10  17
ATOM     17  C   UNL     1       2.261   4.163  19.875  0.00  0.00    +0.000 C 
BRANCH  17  18
ATOM     18  C   UNL     1       1.980   5.651  19.803  0.00  0.00    +0.000 A 
ATOM     19  C   UNL     1       2.203   6.353  18.604  0.00  0.00    +0.000 A 
ATOM     20  C   UNL     1       2.055   7.737  18.546  0.00  0.00    +0.000 A 
ATOM     21  C   UNL     1       1.658   8.440  19.678  0.00  0.00    +0.000 A 
ATOM     22  C   UNL     1       1.395   7.756  20.864  0.00  0.00    +0.000 A 
ATOM     23  C   UNL     1       1.556   6.368  20.929  0.00  0.00    +0.000 A 
ENDBRANCH  17  18
ENDBRANCH  10  17
TORSDOF 4
ENDMDL
MODEL 2
REMARK VINA RESULT:      -7.5      2.573      3.918
REMARK  Name = 
REMARK  5 active torsions:
REMARK  status: ('A' for Active; 'I' for Inactive)
REMARK    1  A    between atoms: C_1  and  O_2
REMARK    2  A    between atoms: O_2  and  C_3
REMARK    3  A    between atoms: C_8  and  O_9
REMARK    4  A    between atoms: N_13  and  C_14
REMARK    5  A    between atoms: C_14  and  C_15
REMARK                            x       y       z     vdW  Elec       q    Type
REMARK                         _______ _______ _______ _____ _____    ______ ____
ROOT
ATOM      1  C   UNL     1       6.449   4.272  13.598  0.00  0.00    +0.000 A 
ATOM      2  C   UNL     1       5.506   3.799  14.515  0.00  0.00    +0.000 A 
ATOM      3  C   UNL     1       5.549   4.218  15.850  0.00  0.00    +0.000 A 
ATOM      4  C   UNL     1       6.510   5.141  16.249  0.00  0.00    +0.000 A 
ATOM      5  C   UNL     1       7.502   5.568  15.367  0.00  0.00    +0.000 A 
ATOM      6  C   UNL     1       7.476   5.113  14.048  0.00  0.00    +0.000 A 
ATOM      7  N   UNL     1       6.458   5.640  17.551  0.00  0.00    +0.000 N 
ATOM      8  C   UNL     1       5.703   5.100  18.556  0.00  0.00    +0.000 C 
ATOM      9  O   UNL     1       5.824   5.528  19.703  0.00  0.00    +0.000 OA
ATOM     10  N   UNL     1       4.938   4.009  18.220  0.00  0.00    +0.000 N 
ATOM     11  C   UNL     1       4.536   3.751  16.846  0.00  0.00    +0.000 C 
ATOM     12  H   UNL     1       7.108   6.351  17.850  0.00  0.00    +0.000 HD
ENDROOT
BRANCH   1  14
ATOM     13  C   UNL     1       5.456   2.961  11.918  0.00  0.00    +0.000 C 
ATOM     14  O   UNL     1       6.447   3.921  12.274  0.00  0.00    +0.000 OA
ENDBRANCH   1  14
BRANCH   6  15
ATOM     15  O   UNL     1       8.447   5.513  13.169  0.00  0.00    +0.000 OA
ATOM     16  H   UNL     1       8.048   5.670  12.300  0.00  0.00    +0.000 HD
ENDBRANCH   6  15
BRANCH  10  17
ATOM     17  C   UNL     1       4.636   3.010  19.235  0.00  0.00    +0.000 C 
BRANCH  17  18
ATOM     18  C   UNL     1       3.161   3.052  19.587  0.00  0.00    +0.000 A 
ATOM     19  C   UNL     1       2.264   2.160  18.973  0.00  0.00    +0.000 A 
ATOM     20  C   UNL     1       0.892   2.253  19.200  0.00  0.00    +0.000 A 
ATOM     21  C   UNL     1       0.397   3.224  20.064  0.00  0.00    +0.000 A 
ATOM     22  C   UNL     1       1.275   4.092  20.710  0.00  0.00    +0.000 A 
ATOM     23  C   UNL     1       2.651   4.010  20.474  0.00  0.00    +0.000 A 
ENDBRANCH  17  18
ENDBRANCH  10  17
TORSDOF 4
ENDMDL
MODEL 3
REMARK VINA RESULT:      -7.4      0.215      1.074
REMARK  Name = 
REMARK  5 active torsions:
REMARK  status: ('A' for Active; 'I' for Inactive)
REMARK    1  A    between atoms: C_1  and  O_2
REMARK    2  A    between atoms: O_2  and  C_3
REMARK    3  A    between atoms: C_8  and  O_9
REMARK    4  A    between atoms: N_13  and  C_14
REMARK    5  A    between atoms: C_14  and  C_15
REMARK                            x       y       z     vdW  Elec       q    Type
REMARK                         _______ _______ _______ _____ _____    ______ ____
ROOT
ATOM      1  C   UNL     1       7.092   6.166  16.850  0.00  0.00    +0.000 A 
ATOM      2  C   UNL     1       6.300   6.093  17.999  0.00  0.00    +0.000 A 
ATOM      3  C   UNL     1       5.359   5.067  18.142  0.00  0.00    +0.000 A 
ATOM      4  C   UNL     1       5.247   4.096  17.153  0.00  0.00    +0.000 A 
ATOM      5  C   UNL     1       5.976   4.193  15.968  0.00  0.00    +0.000 A 
ATOM      6  C   UNL     1       6.882   5.243  15.816  0.00  0.00    +0.000 A 
ATOM      7  N   UNL     1       4.393   3.013  17.372  0.00  0.00    +0.000 N 
ATOM      8  C   UNL     1       3.452   2.960  18.363  0.00  0.00    +0.000 C 
ATOM      9  O   UNL     1       2.657   2.022  18.396  0.00  0.00    +0.000 OA
ATOM     10  N   UNL     1       3.386   4.051  19.196  0.00  0.00    +0.000 N 
ATOM     11  C   UNL     1       4.518   4.947  19.373  0.00  0.00    +0.000 C 
ATOM     12  H   UNL     1       4.334   2.266  16.696  0.00  0.00    +0.000 HD
ENDROOT
BRANCH   1  14
ATOM     13  C   UNL     1       7.976   8.221  17.572  0.00  0.00    +0.000 C 
ATOM     14  O   UNL     1       8.047   7.130  16.659  0.00  0.00    +0.000 OA
ENDBRANCH   1  14
BRANCH   6  15
ATOM     15  O   UNL     1       7.600   5.362  14.656  0.00  0.00    +0.000 OA
ATOM     16  H   UNL     1       7.930   4.490  14.393  0.00  0.00    +0.000 HD
ENDBRANCH   6  15
BRANCH  10  17
ATOM     17  C   UNL     1       2.114   4.403  19.811  0.00  0.00    +0.000 C 
BRANCH  17  18
ATOM     18  C   UNL     1       1.941   5.909  19.828  0.00  0.00    +0.000 A 
ATOM     19  C   UNL     1       1.503   6.555  20.998  0.00  0.00    +0.000 A 
ATOM     20  C   UNL     1       1.235   7.923  21.005  0.00  0.00    +0.000 A 
ATOM     21  C   UNL     1       1.423   8.671  19.848  0.00  0.00    +0.000 A 
ATOM     22  C   UNL     1       1.894   8.054  18.690  0.00  0.00    +0.000 A 
ATOM     23  C   UNL     1       2.151   6.679  18.677  0.00  0.00    +0.000 A 
ENDBRANCH  17  18
ENDBRANCH  10  17
TORSDOF 4
ENDMDL
MODEL 4
REMARK VINA RESULT:      -7.3      2.651      4.051
REMARK  Name = 
REMARK  5 active torsions:
REMARK  status: ('A' for Active; 'I' for Inactive)
REMARK    1  A    between atoms: C_1  and  O_2
REMARK    2  A    between atoms: O_2  and  C_3
REMARK    3  A    between atoms: C_8  and  O_9
REMARK    4  A    between atoms: N_13  and  C_14
REMARK    5  A    between atoms: C_14  and  C_15
REMARK                            x       y       z     vdW  Elec       q    Type
REMARK                         _______ _______ _______ _____ _____    ______ ____
ROOT
ATOM      1  C   UNL     1       6.485   4.271  13.572  0.00  0.00    +0.000 A 
ATOM      2  C   UNL     1       5.534   3.810  14.488  0.00  0.00    +0.000 A 
ATOM      3  C   UNL     1       5.568   4.246  15.818  0.00  0.00    +0.000 A 
ATOM      4  C   UNL     1       6.528   5.173  16.212  0.00  0.00    +0.000 A 
ATOM      5  C   UNL     1       7.527   5.588  15.332  0.00  0.00    +0.000 A 
ATOM      6  C   UNL     1       7.510   5.116  14.019  0.00  0.00    +0.000 A 
ATOM      7  N   UNL     1       6.468   5.688  17.508  0.00  0.00    +0.000 N 
ATOM      8  C   UNL     1       5.705   5.162  18.514  0.00  0.00    +0.000 C 
ATOM      9  O   UNL     1       5.817   5.604  19.656  0.00  0.00    +0.000 OA
ATOM     10  N   UNL     1       4.940   4.067  18.186  0.00  0.00    +0.000 N 
ATOM     11  C   UNL     1       4.548   3.793  16.813  0.00  0.00    +0.000 C 
ATOM     12  H   UNL     1       7.116   6.402  17.803  0.00  0.00    +0.000 HD
ENDROOT
BRANCH   1  14
ATOM     13  C   UNL     1       5.390   3.092  11.859  0.00  0.00    +0.000 C 
ATOM     14  O   UNL     1       6.492   3.903  12.253  0.00  0.00    +0.000 OA
ENDBRANCH   1  14
BRANCH   6  15
ATOM     15  O   UNL     1       8.488   5.503  13.142  0.00  0.00    +0.000 OA
ATOM     16  H   UNL     1       8.398   6.451  12.960  0.00  0.00    +0.000 HD
ENDBRANCH   6  15
BRANCH  10  17
ATOM     17  C   UNL     1       4.629   3.082  19.211  0.00  0.00    +0.000 C 
BRANCH  17  18
ATOM     18  C   UNL     1       3.139   3.078  19.497  0.00  0.00    +0.000 A 
ATOM     19  C   UNL     1       2.616   3.887  20.522  0.00  0.00    +0.000 A 
ATOM     20  C   UNL     1       1.269   3.819  20.872  0.00  0.00    +0.000 A 
ATOM     21  C   UNL     1       0.418   2.958  20.187  0.00  0.00    +0.000 A 
ATOM     22  C   UNL     1       0.912   2.177  19.144  0.00  0.00    +0.000 A 
ATOM     23  C   UNL     1       2.266   2.233  18.799  0.00  0.00    +0.000 A 
ENDBRANCH  17  18
ENDBRANCH  10  17
TORSDOF 4
ENDMDL
MODEL 5
REMARK VINA RESULT:      -7.2      2.433      4.350
REMARK  Name = 
REMARK  5 active torsions:
REMARK  status: ('A' for Active; 'I' for Inactive)
REMARK    1  A    between atoms: C_1  and  O_2
REMARK    2  A    between atoms: O_2  and  C_3
REMARK    3  A    between atoms: C_8  and  O_9
REMARK    4  A    between atoms: N_13  and  C_14
REMARK    5  A    between atoms: C_14  and  C_15
REMARK                            x       y       z     vdW  Elec       q    Type
REMARK                         _______ _______ _______ _____ _____    ______ ____
ROOT
ATOM      1  C   UNL     1       5.722   3.566  12.873  0.00  0.00    +0.000 A 
ATOM      2  C   UNL     1       5.051   3.599  14.099  0.00  0.00    +0.000 A 
ATOM      3  C   UNL     1       5.561   4.353  15.162  0.00  0.00    +0.000 A 
ATOM      4  C   UNL     1       6.718   5.103  14.978  0.00  0.00    +0.000 A 
ATOM      5  C   UNL     1       7.440   5.025  13.787  0.00  0.00    +0.000 A 
ATOM      6  C   UNL     1       6.945   4.238  12.747  0.00  0.00    +0.000 A 
ATOM      7  N   UNL     1       7.141   5.944  16.008  0.00  0.00    +0.000 N 
ATOM      8  C   UNL     1       6.664   5.895  17.289  0.00  0.00    +0.000 C 
ATOM      9  O   UNL     1       7.191   6.587  18.160  0.00  0.00    +0.000 OA
ATOM     10  N   UNL     1       5.687   4.961  17.538  0.00  0.00    +0.000 N 
ATOM     11  C   UNL     1       4.850   4.429  16.475  0.00  0.00    +0.000 C 
ATOM     12  H   UNL     1       7.945   6.540  15.882  0.00  0.00    +0.000 HD
ENDROOT
BRANCH   1  14
ATOM     13  C   UNL     1       4.007   3.315  11.285  0.00  0.00    +0.000 C 
ATOM     14  O   UNL     1       5.263   2.869  11.787  0.00  0.00    +0.000 OA
ENDBRANCH   1  14
BRANCH   6  15
ATOM     15  O   UNL     1       7.645   4.141  11.573  0.00  0.00    +0.000 OA
ATOM     16  H   UNL     1       7.026   3.993  10.843  0.00  0.00    +0.000 HD
ENDBRANCH   6  15
BRANCH  10  17
ATOM     17  C   UNL     1       5.575   4.384  18.870  0.00  0.00    +0.000 C 
BRANCH  17  18
ATOM     18  C   UNL     1       4.138   4.456  19.351  0.00  0.00    +0.000 A 
ATOM     19  C   UNL     1       3.515   5.704  19.526  0.00  0.00    +0.000 A 
ATOM     20  C   UNL     1       2.235   5.797  20.068  0.00  0.00    +0.000 A 
ATOM     21  C   UNL     1       1.547   4.641  20.422  0.00  0.00    +0.000 A 
ATOM     22  C   UNL     1       2.134   3.393  20.219  0.00  0.00    +0.000 A 
ATOM     23  C   UNL     1       3.425   3.298  19.688  0.00  0.00    +0.000 A 
ENDBRANCH  17  18
ENDBRANCH  10  17
TORSDOF 4
ENDMDL
MODEL 6
REMARK VINA RESULT:      -7.1      3.278      5.738
REMARK  Name = 
REMARK  5 active torsions:
REMARK  status: ('A' for Active; 'I' for Inactive)
REMARK    1  A    between atoms: C_1  and  O_2
REMARK    2  A    between atoms: O_2  and  C_3
REMARK    3  A    between atoms: C_8  and  O_9
REMARK    4  A    between atoms: N_13  and  C_14
REMARK    5  A    between atoms: C_14  and  C_15
REMARK                            x       y       z     vdW  Elec       q    Type
REMARK                         _______ _______ _______ _____ _____    ______ ____
ROOT
ATOM      1  C   UNL     1       1.032   9.180  19.894  0.00  0.00    +0.000 A 
ATOM      2  C   UNL     1       1.709   7.991  20.186  0.00  0.00    +0.000 A 
ATOM      3  C   UNL     1       2.548   7.406  19.231  0.00  0.00    +0.000 A 
ATOM      4  C   UNL     1       2.738   8.036  18.005  0.00  0.00    +0.000 A 
ATOM      5  C   UNL     1       2.017   9.182  17.670  0.00  0.00    +0.000 A 
ATOM      6  C   UNL     1       1.151   9.736  18.614  0.00  0.00    +0.000 A 
ATOM      7  N   UNL     1       3.673   7.504  17.117  0.00  0.00    +0.000 N 
ATOM      8  C   UNL     1       4.229   6.260  17.235  0.00  0.00    +0.000 C 
ATOM      9  O   UNL     1       4.944   5.826  16.332  0.00  0.00    +0.000 OA
ATOM     10  N   UNL     1       3.837   5.521  18.326  0.00  0.00    +0.000 N 
ATOM     11  C   UNL     1       3.306   6.151  19.524  0.00  0.00    +0.000 C 
ATOM     12  H   UNL     1       3.872   7.971  16.245  0.00  0.00    +0.000 HD
ENDROOT
BRANCH   1  14
ATOM     13  C   UNL     1      -0.229   8.997  21.870  0.00  0.00    +0.000 C 
ATOM     14  O   UNL     1       0.216   9.816  20.793  0.00  0.00    +0.000 OA
ENDBRANCH   1  14
BRANCH   6  15
ATOM     15  O   UNL     1       0.426  10.855  18.300  0.00  0.00    +0.000 OA
ATOM     16  H   UNL     1       0.226  11.345  19.112  0.00  0.00    +0.000 HD
ENDBRANCH   6  15
BRANCH  10  17
ATOM     17  C   UNL     1       3.821   4.068  18.235  0.00  0.00    +0.000 C 
BRANCH  17  18
ATOM     18  C   UNL     1       2.939   3.486  19.323  0.00  0.00    +0.000 A 
ATOM     19  C   UNL     1       1.540   3.596  19.229  0.00  0.00    +0.000 A 
ATOM     20  C   UNL     1       0.716   3.166  20.267  0.00  0.00    +0.000 A 
ATOM     21  C   UNL     1       1.276   2.596  21.406  0.00  0.00    +0.000 A 
ATOM     22  C   UNL     1       2.659   2.444  21.499  0.00  0.00    +0.000 A 
ATOM     23  C   UNL     1       3.489   2.888  20.464  0.00  0.00    +0.000 A 
ENDBRANCH  17  18
ENDBRANCH  10  17
TORSDOF 4
ENDMDL
MODEL 7
REMARK VINA RESULT:      -7.1      2.419      4.372
REMARK  Name = 
REMARK  5 active torsions:
REMARK  status: ('A' for Active; 'I' for Inactive)
REMARK    1  A    between atoms: C_1  and  O_2
REMARK    2  A    between atoms: O_2  and  C_3
REMARK    3  A    between atoms: C_8  and  O_9
REMARK    4  A    between atoms: N_13  and  C_14
REMARK    5  A    between atoms: C_14  and  C_15
REMARK                            x       y       z     vdW  Elec       q    Type
REMARK                         _______ _______ _______ _____ _____    ______ ____
ROOT
ATOM      1  C   UNL     1       5.745   3.558  12.881  0.00  0.00    +0.000 A 
ATOM      2  C   UNL     1       5.084   3.567  14.114  0.00  0.00    +0.000 A 
ATOM      3  C   UNL     1       5.590   4.324  15.178  0.00  0.00    +0.000 A 
ATOM      4  C   UNL     1       6.729   5.099  14.989  0.00  0.00    +0.000 A 
ATOM      5  C   UNL     1       7.441   5.046  13.791  0.00  0.00    +0.000 A 
ATOM      6  C   UNL     1       6.952   4.256  12.749  0.00  0.00    +0.000 A 
ATOM      7  N   UNL     1       7.144   5.941  16.022  0.00  0.00    +0.000 N 
ATOM      8  C   UNL     1       6.681   5.873  17.307  0.00  0.00    +0.000 C 
ATOM      9  O   UNL     1       7.201   6.569  18.178  0.00  0.00    +0.000 OA
ATOM     10  N   UNL     1       5.726   4.917  17.558  0.00  0.00    +0.000 N 
ATOM     11  C   UNL     1       4.889   4.375  16.498  0.00  0.00    +0.000 C 
ATOM     12  H   UNL     1       7.934   6.555  15.892  0.00  0.00    +0.000 HD
ENDROOT
BRANCH   1  14
ATOM     13  C   UNL     1       4.026   3.292  11.300  0.00  0.00    +0.000 C 
ATOM     14  O   UNL     1       5.290   2.859  11.794  0.00  0.00    +0.000 OA
ENDBRANCH   1  14
BRANCH   6  15
ATOM     15  O   UNL     1       7.642   4.183  11.568  0.00  0.00    +0.000 OA
ATOM     16  H   UNL     1       7.014   4.104  10.834  0.00  0.00    +0.000 HD
ENDBRANCH   6  15
BRANCH  10  17
ATOM     17  C   UNL     1       5.638   4.327  18.886  0.00  0.00    +0.000 C 
BRANCH  17  18
ATOM     18  C   UNL     1       4.214   4.406  19.400  0.00  0.00    +0.000 A 
ATOM     19  C   UNL     1       3.489   3.227  19.651  0.00  0.00    +0.000 A 
ATOM     20  C   UNL     1       2.146   3.275  20.020  0.00  0.00    +0.000 A 
ATOM     21  C   UNL     1       1.512   4.505  20.167  0.00  0.00    +0.000 A 
ATOM     22  C   UNL     1       2.225   5.684  19.959  0.00  0.00    +0.000 A 
ATOM     23  C   UNL     1       3.570   5.638  19.575  0.00  0.00    +0.000 A 
ENDBRANCH  17  18
ENDBRANCH  10  17
TORSDOF 4
ENDMDL
MODEL 8
REMARK VINA RESULT:      -7.1      3.101      6.054
REMARK  Name = 
REMARK  5 active torsions:
REMARK  status: ('A' for Active; 'I' for Inactive)
REMARK    1  A    between atoms: C_1  and  O_2
REMARK    2  A    between atoms: O_2  and  C_3
REMARK    3  A    between atoms: C_8  and  O_9
REMARK    4  A    between atoms: N_13  and  C_14
REMARK    5  A    between atoms: C_14  and  C_15
REMARK                            x       y       z     vdW  Elec       q    Type
REMARK                         _______ _______ _______ _____ _____    ______ ____
ROOT
ATOM      1  C   UNL     1       1.183   9.524  19.331  0.00  0.00    +0.000 A 
ATOM      2  C   UNL     1       1.671   8.640  18.364  0.00  0.00    +0.000 A 
ATOM      3  C   UNL     1       2.139   7.375  18.738  0.00  0.00    +0.000 A 
ATOM      4  C   UNL     1       2.077   6.987  20.073  0.00  0.00    +0.000 A 
ATOM      5  C   UNL     1       1.663   7.881  21.059  0.00  0.00    +0.000 A 
ATOM      6  C   UNL     1       1.236   9.155  20.681  0.00  0.00    +0.000 A 
ATOM      7  N   UNL     1       2.432   5.680  20.406  0.00  0.00    +0.000 N 
ATOM      8  C   UNL     1       3.092   4.822  19.570  0.00  0.00    +0.000 C 
ATOM      9  O   UNL     1       3.479   3.735  19.998  0.00  0.00    +0.000 OA
ATOM     10  N   UNL     1       3.389   5.302  18.318  0.00  0.00    +0.000 N 
ATOM     11  C   UNL     1       2.640   6.398  17.723  0.00  0.00    +0.000 C 
ATOM     12  H   UNL     1       2.344   5.355  21.357  0.00  0.00    +0.000 HD
ENDROOT
BRANCH   1  14
ATOM     13  C   UNL     1      -0.609  10.757  18.438  0.00  0.00    +0.000 C 
ATOM     14  O   UNL     1       0.688  10.765  19.028  0.00  0.00    +0.000 OA
ENDBRANCH   1  14
BRANCH   6  15
ATOM     15  O   UNL     1       0.834  10.051  21.636  0.00  0.00    +0.000 OA
ATOM     16  H   UNL     1       1.612  10.498  22.004  0.00  0.00    +0.000 HD
ENDBRANCH   6  15
BRANCH  10  17
ATOM     17  C   UNL     1       4.566   4.802  17.621  0.00  0.00    +0.000 C 
BRANCH  17  18
ATOM     18  C   UNL     1       5.776   5.648  17.967  0.00  0.00    +0.000 A 
ATOM     19  C   UNL     1       6.081   6.788  17.203  0.00  0.00    +0.000 A 
ATOM     20  C   UNL     1       7.245   7.517  17.435  0.00  0.00    +0.000 A 
ATOM     21  C   UNL     1       8.112   7.132  18.453  0.00  0.00    +0.000 A 
ATOM     22  C   UNL     1       7.807   6.027  19.245  0.00  0.00    +0.000 A 
ATOM     23  C   UNL     1       6.645   5.285  19.005  0.00  0.00    +0.000 A 
ENDBRANCH  17  18
ENDBRANCH  10  17
TORSDOF 4
ENDMDL
MODEL 9
REMARK VINA RESULT:      -7.0      2.730      5.795
REMARK  Name = 
REMARK  5 active torsions:
REMARK  status: ('A' for Active; 'I' for Inactive)
REMARK    1  A    between atoms: C_1  and  O_2
REMARK    2  A    between atoms: O_2  and  C_3
REMARK    3  A    between atoms: C_8  and  O_9
REMARK    4  A    between atoms: N_13  and  C_14
REMARK    5  A    between atoms: C_14  and  C_15
REMARK                            x       y       z     vdW  Elec       q    Type
REMARK                         _______ _______ _______ _____ _____    ______ ____
ROOT
ATOM      1  C   UNL     1       1.603   8.721  19.423  0.00  0.00    +0.000 A 
ATOM      2  C   UNL     1       2.213   8.011  18.385  0.00  0.00    +0.000 A 
ATOM      3  C   UNL     1       2.601   6.679  18.575  0.00  0.00    +0.000 A 
ATOM      4  C   UNL     1       2.338   6.054  19.789  0.00  0.00    +0.000 A 
ATOM      5  C   UNL     1       1.797   6.767  20.859  0.00  0.00    +0.000 A 
ATOM      6  C   UNL     1       1.451   8.106  20.673  0.00  0.00    +0.000 A 
ATOM      7  N   UNL     1       2.620   4.693  19.915  0.00  0.00    +0.000 N 
ATOM      8  C   UNL     1       3.382   3.977  19.034  0.00  0.00    +0.000 C 
ATOM      9  O   UNL     1       3.684   2.814  19.298  0.00  0.00    +0.000 OA
ATOM     10  N   UNL     1       3.867   4.668  17.950  0.00  0.00    +0.000 N 
ATOM     11  C   UNL     1       3.230   5.887  17.474  0.00  0.00    +0.000 C 
ATOM     12  H   UNL     1       2.388   4.202  20.766  0.00  0.00    +0.000 HD
ENDROOT
BRANCH   1  14
ATOM     13  C   UNL     1       0.007  10.179  18.498  0.00  0.00    +0.000 C 
ATOM     14  O   UNL     1       1.177  10.017  19.294  0.00  0.00    +0.000 OA
ENDBRANCH   1  14
BRANCH   6  15
ATOM     15  O   UNL     1       0.927   8.825  21.714  0.00  0.00    +0.000 OA
ATOM     16  H   UNL     1       0.892   9.762  21.470  0.00  0.00    +0.000 HD
ENDBRANCH   6  15
BRANCH  10  17
ATOM     17  C   UNL     1       5.125   4.256  17.345  0.00  0.00    +0.000 C 
BRANCH  17  18
ATOM     18  C   UNL     1       6.227   5.229  17.716  0.00  0.00    +0.000 A 
ATOM     19  C   UNL     1       6.942   5.059  18.915  0.00  0.00    +0.000 A 
ATOM     20  C   UNL     1       7.883   6.000  19.328  0.00  0.00    +0.000 A 
ATOM     21  C   UNL     1       8.143   7.114  18.536  0.00  0.00    +0.000 A 
ATOM     22  C   UNL     1       7.471   7.278  17.326  0.00  0.00    +0.000 A 
ATOM     23  C   UNL     1       6.516   6.342  16.916  0.00  0.00    +0.000 A 
ENDBRANCH  17  18
ENDBRANCH  10  17
TORSDOF 4
ENDMDL
