MODEL 1
REMARK VINA RESULT:      -7.3      0.000      0.000
REMARK  Name = 
REMARK  8 active torsions:
REMARK  status: ('A' for Active; 'I' for Inactive)
REMARK    1  A    between atoms: C_1  and  O_2
REMARK    2  A    between atoms: O_2  and  C_3
REMARK    3  A    between atoms: C_8  and  N_9
REMARK    4  A    between atoms: C_19  and  C_20
REMARK    5  A    between atoms: C_20  and  O_21
REMARK    6  A    between atoms: C_20  and  O_23
REMARK    7  A    between atoms: O_21  and  C_22
REMARK    8  A    between atoms: O_23  and  C_24
REMARK                            x       y       z     vdW  Elec       q    Type
REMARK                         _______ _______ _______ _____ _____    ______ ____
ROOT
ATOM      1  N   UNL     1       3.795   5.791  17.740  0.00  0.00    +0.000 N 
ATOM      2  C   UNL     1       3.325   7.104  17.593  0.00  0.00    +0.000 C 
ATOM      3  O   UNL     1       3.647   7.895  16.709  0.00  0.00    +0.000 OA
ATOM      4  C   UNL     1       2.433   7.597  18.685  0.00  0.00    +0.000 A 
ATOM      5  C   UNL     1       1.819   8.851  18.593  0.00  0.00    +0.000 A 
ATOM      6  C   UNL     1       1.081   9.342  19.670  0.00  0.00    +0.000 A 
ATOM      7  C   UNL     1       0.974   8.591  20.841  0.00  0.00    +0.000 A 
ATOM      8  C   UNL     1       1.595   7.342  20.935  0.00  0.00    +0.000 A 
ATOM      9  C   UNL     1       2.301   6.819  19.847  0.00  0.00    +0.000 A 
ATOM     10  N   UNL     1       2.986   5.595  19.964  0.00  0.00    +0.000 N 
ATOM     11  C   UNL     1       3.075   4.922  18.658  0.00  0.00    +0.000 C 
ATOM     12  H   UNL     1       2.604   4.974  20.674  0.00  0.00    +0.000 HD
ENDROOT
BRANCH   1  18
ATOM     13  C   UNL     1       6.225   5.273  17.619  0.00  0.00    +0.000 A 
ATOM     14  C   UNL     1       7.273   4.658  16.917  0.00  0.00    +0.000 A 
ATOM     15  C   UNL     1       7.066   4.144  15.636  0.00  0.00    +0.000 A 
ATOM     16  C   UNL     1       5.819   4.260  15.035  0.00  0.00    +0.000 A 
ATOM     17  C   UNL     1       4.768   4.865  15.728  0.00  0.00    +0.000 A 
ATOM     18  C   UNL     1       4.951   5.372  17.021  0.00  0.00    +0.000 A 
BRANCH  13  20
ATOM     19  C   UNL     1       7.706   5.763  19.412  0.00  0.00    +0.000 C 
ATOM     20  O   UNL     1       6.400   5.871  18.849  0.00  0.00    +0.000 OA
ENDBRANCH  13  20
ENDBRANCH   1  18
BRANCH  11  21
ATOM     21  C   UNL     1       3.422   3.385  18.831  0.00  0.00    +0.000 C 
BRANCH  21  22
ATOM     22  O   UNL     1       4.563   3.187  19.678  0.00  0.00    +0.000 OA
ATOM     23  C   UNL     1       4.435   2.027  20.491  0.00  0.00    +0.000 C 
ENDBRANCH  21  22
BRANCH  21  24
ATOM     24  O   UNL     1       2.315   2.685  19.449  0.00  0.00    +0.000 OA
ATOM     25  C   UNL     1       1.118   2.677  18.689  0.00  0.00    +0.000 C 
ENDBRANCH  21  24
ENDBRANCH  11  21
TORSDOF 5
ENDMDL
MODEL 2
REMARK VINA RESULT:      -7.2      1.313      2.252
REMARK  Name = 
REMARK  8 active torsions:
REMARK  status: ('A' for Active; 'I' for Inactive)
REMARK    1  A    between atoms: C_1  and  O_2
REMARK    2  A    between atoms: O_2  and  C_3
REMARK    3  A    between atoms: C_8  and  N_9
REMARK    4  A    between atoms: C_19  and  C_20
REMARK    5  A    between atoms: C_20  and  O_21
REMARK    6  A    between atoms: C_20  and  O_23
REMARK    7  A    between atoms: O_21  and  C_22
REMARK    8  A    between atoms: O_23  and  C_24
REMARK                            x       y       z     vdW  Elec       q    Type
REMARK                         _______ _______ _______ _____ _____    ______ ____
ROOT
ATOM      1  N   UNL     1       4.016   5.913  18.462  0.00  0.00    +0.000 N 
ATOM      2  C   UNL     1       3.688   7.119  17.826  0.00  0.00    +0.000 C 
ATOM      3  O   UNL     1       4.292   7.630  16.885  0.00  0.00    +0.000 OA
ATOM      4  C   UNL     1       2.561   7.886  18.436  0.00  0.00    +0.000 A 
ATOM      5  C   UNL     1       2.077   9.049  17.826  0.00  0.00    +0.000 A 
ATOM      6  C   UNL     1       1.102   9.813  18.467  0.00  0.00    +0.000 A 
ATOM      7  C   UNL     1       0.627   9.427  19.721  0.00  0.00    +0.000 A 
ATOM      8  C   UNL     1       1.118   8.270  20.333  0.00  0.00    +0.000 A 
ATOM      9  C   UNL     1       2.064   7.471  19.683  0.00  0.00    +0.000 A 
ATOM     10  N   UNL     1       2.611   6.346  20.327  0.00  0.00    +0.000 N 
ATOM     11  C   UNL     1       3.017   5.329  19.343  0.00  0.00    +0.000 C 
ATOM     12  H   UNL     1       2.009   5.947  21.044  0.00  0.00    +0.000 HD
ENDROOT
BRANCH   1  18
ATOM     13  C   UNL     1       5.661   4.715  17.033  0.00  0.00    +0.000 A 
ATOM     14  C   UNL     1       6.998   4.348  16.814  0.00  0.00    +0.000 A 
ATOM     15  C   UNL     1       7.970   4.589  17.787  0.00  0.00    +0.000 A 
ATOM     16  C   UNL     1       7.611   5.174  18.995  0.00  0.00    +0.000 A 
ATOM     17  C   UNL     1       6.284   5.547  19.220  0.00  0.00    +0.000 A 
ATOM     18  C   UNL     1       5.298   5.329  18.248  0.00  0.00    +0.000 A 
BRANCH  13  20
ATOM     19  C   UNL     1       5.033   4.370  14.767  0.00  0.00    +0.000 C 
ATOM     20  O   UNL     1       4.652   4.421  16.140  0.00  0.00    +0.000 OA
ENDBRANCH  13  20
ENDBRANCH   1  18
BRANCH  11  21
ATOM     21  C   UNL     1       3.205   3.913  20.031  0.00  0.00    +0.000 C 
BRANCH  21  22
ATOM     22  O   UNL     1       2.559   3.851  21.311  0.00  0.00    +0.000 OA
ATOM     23  C   UNL     1       1.415   3.007  21.296  0.00  0.00    +0.000 C 
ENDBRANCH  21  22
BRANCH  21  24
ATOM     24  O   UNL     1       2.615   2.874  19.214  0.00  0.00    +0.000 OA
ATOM     25  C   UNL     1       3.548   2.036  18.551  0.00  0.00    +0.000 C 
ENDBRANCH  21  24
ENDBRANCH  11  21
TORSDOF 5
ENDMDL
MODEL 3
REMARK VINA RESULT:      -7.1      0.840      1.000
REMARK  Name = 
REMARK  8 active torsions:
REMARK  status: ('A' for Active; 'I' for Inactive)
REMARK    1  A    between atoms: C_1  and  O_2
REMARK    2  A    between atoms: O_2  and  C_3
REMARK    3  A    between atoms: C_8  and  N_9
REMARK    4  A    between atoms: C_19  and  C_20
REMARK    5  A    between atoms: C_20  and  O_21
REMARK    6  A    between atoms: C_20  and  O_23
REMARK    7  A    between atoms: O_21  and  C_22
REMARK    8  A    between atoms: O_23  and  C_24
REMARK                            x       y       z     vdW  Elec       q    Type
REMARK                         _______ _______ _______ _____ _____    ______ ____
ROOT
ATOM      1  N   UNL     1       3.697   5.896  17.974  0.00  0.00    +0.000 N 
ATOM      2  C   UNL     1       3.209   7.173  17.663  0.00  0.00    +0.000 C 
ATOM      3  O   UNL     1       3.511   7.847  16.680  0.00  0.00    +0.000 OA
ATOM      4  C   UNL     1       2.323   7.794  18.694  0.00  0.00    +0.000 A 
ATOM      5  C   UNL     1       1.692   9.019  18.448  0.00  0.00    +0.000 A 
ATOM      6  C   UNL     1       0.961   9.638  19.461  0.00  0.00    +0.000 A 
ATOM      7  C   UNL     1       0.876   9.044  20.721  0.00  0.00    +0.000 A 
ATOM      8  C   UNL     1       1.514   7.825  20.968  0.00  0.00    +0.000 A 
ATOM      9  C   UNL     1       2.214   7.173  19.949  0.00  0.00    +0.000 A 
ATOM     10  N   UNL     1       2.916   5.982  20.214  0.00  0.00    +0.000 N 
ATOM     11  C   UNL     1       2.998   5.146  19.006  0.00  0.00    +0.000 C 
ATOM     12  H   UNL     1       2.549   5.454  21.004  0.00  0.00    +0.000 HD
ENDROOT
BRANCH   1  18
ATOM     13  C   UNL     1       6.084   5.196  17.953  0.00  0.00    +0.000 A 
ATOM     14  C   UNL     1       7.114   4.514  17.288  0.00  0.00    +0.000 A 
ATOM     15  C   UNL     1       6.928   4.034  15.990  0.00  0.00    +0.000 A 
ATOM     16  C   UNL     1       5.722   4.252  15.337  0.00  0.00    +0.000 A 
ATOM     17  C   UNL     1       4.688   4.926  15.992  0.00  0.00    +0.000 A 
ATOM     18  C   UNL     1       4.850   5.400  17.301  0.00  0.00    +0.000 A 
BRANCH  13  20
ATOM     19  C   UNL     1       7.580   5.778  19.705  0.00  0.00    +0.000 C 
ATOM     20  O   UNL     1       6.247   5.764  19.199  0.00  0.00    +0.000 OA
ENDBRANCH  13  20
ENDBRANCH   1  18
BRANCH  11  21
ATOM     21  C   UNL     1       3.366   3.648  19.372  0.00  0.00    +0.000 C 
BRANCH  21  22
ATOM     22  O   UNL     1       2.921   3.295  20.689  0.00  0.00    +0.000 OA
ATOM     23  C   UNL     1       1.582   2.814  20.695  0.00  0.00    +0.000 C 
ENDBRANCH  21  22
BRANCH  21  24
ATOM     24  O   UNL     1       2.723   2.732  18.453  0.00  0.00    +0.000 OA
ATOM     25  C   UNL     1       3.579   1.748  17.897  0.00  0.00    +0.000 C 
ENDBRANCH  21  24
ENDBRANCH  11  21
TORSDOF 5
ENDMDL
MODEL 4
REMARK VINA RESULT:      -6.8      1.593      3.892
REMARK  Name = 
REMARK  8 active torsions:
REMARK  status: ('A' for Active; 'I' for Inactive)
REMARK    1  A    between atoms: C_1  and  O_2
REMARK    2  A    between atoms: O_2  and  C_3
REMARK    3  A    between atoms: C_8  and  N_9
REMARK    4  A    between atoms: C_19  and  C_20
REMARK    5  A    between atoms: C_20  and  O_21
REMARK    6  A    between atoms: C_20  and  O_23
REMARK    7  A    between atoms: O_21  and  C_22
REMARK    8  A    between atoms: O_23  and  C_24
REMARK                            x       y       z     vdW  Elec       q    Type
REMARK                         _______ _______ _______ _____ _____    ______ ____
ROOT
ATOM      1  N   UNL     1       3.434   5.873  18.647  0.00  0.00    +0.000 N 
ATOM      2  C   UNL     1       2.494   6.383  19.554  0.00  0.00    +0.000 C 
ATOM      3  O   UNL     1       1.922   5.750  20.440  0.00  0.00    +0.000 OA
ATOM      4  C   UNL     1       2.088   7.804  19.334  0.00  0.00    +0.000 A 
ATOM      5  C   UNL     1       1.238   8.451  20.238  0.00  0.00    +0.000 A 
ATOM      6  C   UNL     1       0.780   9.739  19.958  0.00  0.00    +0.000 A 
ATOM      7  C   UNL     1       1.154  10.368  18.771  0.00  0.00    +0.000 A 
ATOM      8  C   UNL     1       1.996   9.717  17.864  0.00  0.00    +0.000 A 
ATOM      9  C   UNL     1       2.497   8.443  18.152  0.00  0.00    +0.000 A 
ATOM     10  N   UNL     1       3.286   7.757  17.210  0.00  0.00    +0.000 N 
ATOM     11  C   UNL     1       4.214   6.833  17.883  0.00  0.00    +0.000 C 
ATOM     12  H   UNL     1       3.779   8.368  16.561  0.00  0.00    +0.000 HD
ENDROOT
BRANCH   1  18
ATOM     13  C   UNL     1       4.468   3.695  19.259  0.00  0.00    +0.000 A 
ATOM     14  C   UNL     1       4.404   2.295  19.205  0.00  0.00    +0.000 A 
ATOM     15  C   UNL     1       3.458   1.656  18.401  0.00  0.00    +0.000 A 
ATOM     16  C   UNL     1       2.585   2.410  17.626  0.00  0.00    +0.000 A 
ATOM     17  C   UNL     1       2.638   3.805  17.677  0.00  0.00    +0.000 A 
ATOM     18  C   UNL     1       3.569   4.463  18.491  0.00  0.00    +0.000 A 
BRANCH  13  20
ATOM     19  C   UNL     1       6.689   4.540  19.306  0.00  0.00    +0.000 C 
ATOM     20  O   UNL     1       5.438   4.371  19.970  0.00  0.00    +0.000 OA
ENDBRANCH  13  20
ENDBRANCH   1  18
BRANCH  11  21
ATOM     21  C   UNL     1       5.391   6.400  16.913  0.00  0.00    +0.000 C 
BRANCH  21  22
ATOM     22  O   UNL     1       4.902   5.997  15.626  0.00  0.00    +0.000 OA
ATOM     23  C   UNL     1       5.486   4.777  15.187  0.00  0.00    +0.000 C 
ENDBRANCH  21  22
BRANCH  21  24
ATOM     24  O   UNL     1       6.293   7.511  16.689  0.00  0.00    +0.000 OA
ATOM     25  C   UNL     1       7.483   7.476  17.460  0.00  0.00    +0.000 C 
ENDBRANCH  21  24
ENDBRANCH  11  21
TORSDOF 5
ENDMDL
MODEL 5
REMARK VINA RESULT:      -6.5      1.379      2.196
REMARK  Name = 
REMARK  8 active torsions:
REMARK  status: ('A' for Active; 'I' for Inactive)
REMARK    1  A    between atoms: C_1  and  O_2
REMARK    2  A    between atoms: O_2  and  C_3
REMARK    3  A    between atoms: C_8  and  N_9
REMARK    4  A    between atoms: C_19  and  C_20
REMARK    5  A    between atoms: C_20  and  O_21
REMARK    6  A    between atoms: C_20  and  O_23
REMARK    7  A    between atoms: O_21  and  C_22
REMARK    8  A    between atoms: O_23  and  C_24
REMARK                            x       y       z     vdW  Elec       q    Type
REMARK                         _______ _______ _______ _____ _____    ______ ____
ROOT
ATOM      1  N   UNL     1       3.294   6.018  18.432  0.00  0.00    +0.000 N 
ATOM      2  C   UNL     1       2.921   7.269  17.920  0.00  0.00    +0.000 C 
ATOM      3  O   UNL     1       3.312   7.767  16.866  0.00  0.00    +0.000 OA
ATOM      4  C   UNL     1       2.050   8.097  18.807  0.00  0.00    +0.000 A 
ATOM      5  C   UNL     1       1.529   9.316  18.358  0.00  0.00    +0.000 A 
ATOM      6  C   UNL     1       0.812  10.128  19.237  0.00  0.00    +0.000 A 
ATOM      7  C   UNL     1       0.634   9.733  20.563  0.00  0.00    +0.000 A 
ATOM      8  C   UNL     1       1.163   8.519  21.012  0.00  0.00    +0.000 A 
ATOM      9  C   UNL     1       1.846   7.675  20.131  0.00  0.00    +0.000 A 
ATOM     10  N   UNL     1       2.440   6.487  20.597  0.00  0.00    +0.000 N 
ATOM     11  C   UNL     1       2.500   5.480  19.526  0.00  0.00    +0.000 C 
ATOM     12  H   UNL     1       2.004   6.109  21.436  0.00  0.00    +0.000 HD
ENDROOT
BRANCH   1  18
ATOM     13  C   UNL     1       4.325   4.377  16.874  0.00  0.00    +0.000 A 
ATOM     14  C   UNL     1       5.488   3.908  16.245  0.00  0.00    +0.000 A 
ATOM     15  C   UNL     1       6.744   4.392  16.617  0.00  0.00    +0.000 A 
ATOM     16  C   UNL     1       6.851   5.330  17.636  0.00  0.00    +0.000 A 
ATOM     17  C   UNL     1       5.698   5.807  18.265  0.00  0.00    +0.000 A 
ATOM     18  C   UNL     1       4.428   5.345  17.893  0.00  0.00    +0.000 A 
BRANCH  13  20
ATOM     19  C   UNL     1       2.831   2.538  17.056  0.00  0.00    +0.000 C 
ATOM     20  O   UNL     1       3.073   3.868  16.602  0.00  0.00    +0.000 OA
ENDBRANCH  13  20
ENDBRANCH   1  18
BRANCH  11  21
ATOM     21  C   UNL     1       2.733   4.029  20.120  0.00  0.00    +0.000 C 
BRANCH  21  22
ATOM     22  O   UNL     1       4.127   3.750  20.316  0.00  0.00    +0.000 OA
ATOM     23  C   UNL     1       4.441   2.382  20.085  0.00  0.00    +0.000 C 
ENDBRANCH  21  22
BRANCH  21  24
ATOM     24  O   UNL     1       2.095   3.905  21.413  0.00  0.00    +0.000 OA
ATOM     25  C   UNL     1       1.326   2.726  21.587  0.00  0.00    +0.000 C 
ENDBRANCH  21  24
ENDBRANCH  11  21
TORSDOF 5
ENDMDL
MODEL 6
REMARK VINA RESULT:      -6.5      0.607      1.314
REMARK  Name = 
REMARK  8 active torsions:
REMARK  status: ('A' for Active; 'I' for Inactive)
REMARK    1  A    between atoms: C_1  and  O_2
REMARK    2  A    between atoms: O_2  and  C_3
REMARK    3  A    between atoms: C_8  and  N_9
REMARK    4  A    between atoms: C_19  and  C_20
REMARK    5  A    between atoms: C_20  and  O_21
REMARK    6  A    between atoms: C_20  and  O_23
REMARK    7  A    between atoms: O_21  and  C_22
REMARK    8  A    between atoms: O_23  and  C_24
REMARK                            x       y       z     vdW  Elec       q    Type
REMARK                         _______ _______ _______ _____ _____    ______ ____
ROOT
ATOM      1  N   UNL     1       3.761   5.831  17.855  0.00  0.00    +0.000 N 
ATOM      2  C   UNL     1       3.300   7.136  17.635  0.00  0.00    +0.000 C 
ATOM      3  O   UNL     1       3.635   7.878  16.714  0.00  0.00    +0.000 OA
ATOM      4  C   UNL     1       2.400   7.691  18.691  0.00  0.00    +0.000 A 
ATOM      5  C   UNL     1       1.794   8.941  18.527  0.00  0.00    +0.000 A 
ATOM      6  C   UNL     1       1.049   9.492  19.570  0.00  0.00    +0.000 A 
ATOM      7  C   UNL     1       0.927   8.805  20.777  0.00  0.00    +0.000 A 
ATOM      8  C   UNL     1       1.540   7.559  20.943  0.00  0.00    +0.000 A 
ATOM      9  C   UNL     1       2.254   6.976  19.891  0.00  0.00    +0.000 A 
ATOM     10  N   UNL     1       2.930   5.756  20.079  0.00  0.00    +0.000 N 
ATOM     11  C   UNL     1       3.028   5.015  18.811  0.00  0.00    +0.000 C 
ATOM     12  H   UNL     1       2.538   5.175  20.817  0.00  0.00    +0.000 HD
ENDROOT
BRANCH   1  18
ATOM     13  C   UNL     1       6.176   5.237  17.802  0.00  0.00    +0.000 A 
ATOM     14  C   UNL     1       7.222   4.583  17.133  0.00  0.00    +0.000 A 
ATOM     15  C   UNL     1       7.032   4.061  15.852  0.00  0.00    +0.000 A 
ATOM     16  C   UNL     1       5.804   4.209  15.219  0.00  0.00    +0.000 A 
ATOM     17  C   UNL     1       4.755   4.854  15.878  0.00  0.00    +0.000 A 
ATOM     18  C   UNL     1       4.922   5.369  17.171  0.00  0.00    +0.000 A 
BRANCH  13  20
ATOM     19  C   UNL     1       7.646   5.763  19.593  0.00  0.00    +0.000 C 
ATOM     20  O   UNL     1       6.338   5.843  19.030  0.00  0.00    +0.000 OA
ENDBRANCH  13  20
ENDBRANCH   1  18
BRANCH  11  21
ATOM     21  C   UNL     1       3.364   3.487  19.067  0.00  0.00    +0.000 C 
BRANCH  21  22
ATOM     22  O   UNL     1       3.598   2.779  17.841  0.00  0.00    +0.000 OA
ATOM     23  C   UNL     1       2.427   2.127  17.365  0.00  0.00    +0.000 C 
ENDBRANCH  21  22
BRANCH  21  24
ATOM     24  O   UNL     1       4.571   3.363  19.858  0.00  0.00    +0.000 OA
ATOM     25  C   UNL     1       4.772   2.084  20.438  0.00  0.00    +0.000 C 
ENDBRANCH  21  24
ENDBRANCH  11  21
TORSDOF 5
ENDMDL
MODEL 7
REMARK VINA RESULT:      -6.5      1.577      4.280
REMARK  Name = 
REMARK  8 active torsions:
REMARK  status: ('A' for Active; 'I' for Inactive)
REMARK    1  A    between atoms: C_1  and  O_2
REMARK    2  A    between atoms: O_2  and  C_3
REMARK    3  A    between atoms: C_8  and  N_9
REMARK    4  A    between atoms: C_19  and  C_20
REMARK    5  A    between atoms: C_20  and  O_21
REMARK    6  A    between atoms: C_20  and  O_23
REMARK    7  A    between atoms: O_21  and  C_22
REMARK    8  A    between atoms: O_23  and  C_24
REMARK                            x       y       z     vdW  Elec       q    Type
REMARK                         _______ _______ _______ _____ _____    ______ ____
ROOT
ATOM      1  N   UNL     1       3.500   5.374  19.004  0.00  0.00    +0.000 N 
ATOM      2  C   UNL     1       2.586   6.020  19.849  0.00  0.00    +0.000 C 
ATOM      3  O   UNL     1       2.001   5.516  20.806  0.00  0.00    +0.000 OA
ATOM      4  C   UNL     1       2.226   7.418  19.464  0.00  0.00    +0.000 A 
ATOM      5  C   UNL     1       1.407   8.197  20.289  0.00  0.00    +0.000 A 
ATOM      6  C   UNL     1       0.990   9.457  19.861  0.00  0.00    +0.000 A 
ATOM      7  C   UNL     1       1.374   9.928  18.605  0.00  0.00    +0.000 A 
ATOM      8  C   UNL     1       2.185   9.146  17.778  0.00  0.00    +0.000 A 
ATOM      9  C   UNL     1       2.646   7.899  18.213  0.00  0.00    +0.000 A 
ATOM     10  N   UNL     1       3.403   7.079  17.355  0.00  0.00    +0.000 N 
ATOM     11  C   UNL     1       4.305   6.210  18.127  0.00  0.00    +0.000 C 
ATOM     12  H   UNL     1       3.910   7.591  16.636  0.00  0.00    +0.000 HD
ENDROOT
BRANCH   1  18
ATOM     13  C   UNL     1       3.030   3.147  18.001  0.00  0.00    +0.000 A 
ATOM     14  C   UNL     1       3.329   1.777  17.962  0.00  0.00    +0.000 A 
ATOM     15  C   UNL     1       4.172   1.205  18.917  0.00  0.00    +0.000 A 
ATOM     16  C   UNL     1       4.704   1.991  19.931  0.00  0.00    +0.000 A 
ATOM     17  C   UNL     1       4.417   3.357  19.975  0.00  0.00    +0.000 A 
ATOM     18  C   UNL     1       3.586   3.952  19.016  0.00  0.00    +0.000 A 
BRANCH  13  20
ATOM     19  C   UNL     1       0.829   3.974  17.654  0.00  0.00    +0.000 C 
ATOM     20  O   UNL     1       2.137   3.741  17.134  0.00  0.00    +0.000 OA
ENDBRANCH  13  20
ENDBRANCH   1  18
BRANCH  11  21
ATOM     21  C   UNL     1       5.458   5.625  17.210  0.00  0.00    +0.000 C 
BRANCH  21  22
ATOM     22  O   UNL     1       4.936   5.008  16.024  0.00  0.00    +0.000 OA
ATOM     23  C   UNL     1       5.858   4.096  15.441  0.00  0.00    +0.000 C 
ENDBRANCH  21  22
BRANCH  21  24
ATOM     24  O   UNL     1       6.343   6.685  16.776  0.00  0.00    +0.000 OA
ATOM     25  C   UNL     1       7.447   6.928  17.632  0.00  0.00    +0.000 C 
ENDBRANCH  21  24
ENDBRANCH  11  21
TORSDOF 5
ENDMDL
MODEL 8
REMARK VINA RESULT:      -6.3      1.682      5.683
REMARK  Name = 
REMARK  8 active torsions:
REMARK  status: ('A' for Active; 'I' for Inactive)
REMARK    1  A    between atoms: C_1  and  O_2
REMARK    2  A    between atoms: O_2  and  C_3
REMARK    3  A    between atoms: C_8  and  N_9
REMARK    4  A    between atoms: C_19  and  C_20
REMARK    5  A    between atoms: C_20  and  O_21
REMARK    6  A    between atoms: C_20  and  O_23
REMARK    7  A    between atoms: O_21  and  C_22
REMARK    8  A    between atoms: O_23  and  C_24
REMARK                            x       y       z     vdW  Elec       q    Type
REMARK                         _______ _______ _______ _____ _____    ______ ____
ROOT
ATOM      1  N   UNL     1       3.289   4.251  18.026  0.00  0.00    +0.000 N 
ATOM      2  C   UNL     1       3.984   3.438  17.119  0.00  0.00    +0.000 C 
ATOM      3  O   UNL     1       3.876   2.219  17.007  0.00  0.00    +0.000 OA
ATOM      4  C   UNL     1       5.023   4.129  16.298  0.00  0.00    +0.000 A 
ATOM      5  C   UNL     1       5.705   3.443  15.286  0.00  0.00    +0.000 A 
ATOM      6  C   UNL     1       6.749   4.070  14.606  0.00  0.00    +0.000 A 
ATOM      7  C   UNL     1       7.122   5.370  14.949  0.00  0.00    +0.000 A 
ATOM      8  C   UNL     1       6.446   6.051  15.965  0.00  0.00    +0.000 A 
ATOM      9  C   UNL     1       5.370   5.450  16.626  0.00  0.00    +0.000 A 
ATOM     10  N   UNL     1       4.734   6.106  17.696  0.00  0.00    +0.000 N 
ATOM     11  C   UNL     1       3.327   5.688  17.801  0.00  0.00    +0.000 C 
ATOM     12  H   UNL     1       4.816   7.120  17.667  0.00  0.00    +0.000 HD
ENDROOT
BRANCH   1  18
ATOM     13  C   UNL     1       3.281   3.164  20.263  0.00  0.00    +0.000 A 
ATOM     14  C   UNL     1       2.543   2.784  21.394  0.00  0.00    +0.000 A 
ATOM     15  C   UNL     1       1.150   2.888  21.405  0.00  0.00    +0.000 A 
ATOM     16  C   UNL     1       0.482   3.351  20.278  0.00  0.00    +0.000 A 
ATOM     17  C   UNL     1       1.208   3.738  19.149  0.00  0.00    +0.000 A 
ATOM     18  C   UNL     1       2.607   3.656  19.126  0.00  0.00    +0.000 A 
BRANCH  13  20
ATOM     19  C   UNL     1       5.138   1.700  20.496  0.00  0.00    +0.000 C 
ATOM     20  O   UNL     1       4.647   2.999  20.173  0.00  0.00    +0.000 OA
ENDBRANCH  13  20
ENDBRANCH   1  18
BRANCH  11  21
ATOM     21  C   UNL     1       2.490   6.713  18.675  0.00  0.00    +0.000 C 
BRANCH  21  22
ATOM     22  O   UNL     1       2.796   6.598  20.072  0.00  0.00    +0.000 OA
ATOM     23  C   UNL     1       1.678   6.904  20.895  0.00  0.00    +0.000 C 
ENDBRANCH  21  22
BRANCH  21  24
ATOM     24  O   UNL     1       2.799   8.073  18.289  0.00  0.00    +0.000 OA
ATOM     25  C   UNL     1       1.701   8.812  17.779  0.00  0.00    +0.000 C 
ENDBRANCH  21  24
ENDBRANCH  11  21
TORSDOF 5
ENDMDL
MODEL 9
REMARK VINA RESULT:      -6.2      2.160      6.346
REMARK  Name = 
REMARK  8 active torsions:
REMARK  status: ('A' for Active; 'I' for Inactive)
REMARK    1  A    between atoms: C_1  and  O_2
REMARK    2  A    between atoms: O_2  and  C_3
REMARK    3  A    between atoms: C_8  and  N_9
REMARK    4  A    between atoms: C_19  and  C_20
REMARK    5  A    between atoms: C_20  and  O_21
REMARK    6  A    between atoms: C_20  and  O_23
REMARK    7  A    between atoms: O_21  and  C_22
REMARK    8  A    between atoms: O_23  and  C_24
REMARK                            x       y       z     vdW  Elec       q    Type
REMARK                         _______ _______ _______ _____ _____    ______ ____
ROOT
ATOM      1  N   UNL     1       5.211   5.107  16.791  0.00  0.00    +0.000 N 
ATOM      2  C   UNL     1       4.710   4.415  15.679  0.00  0.00    +0.000 C 
ATOM      3  O   UNL     1       3.671   3.759  15.641  0.00  0.00    +0.000 OA
ATOM      4  C   UNL     1       5.594   4.401  14.475  0.00  0.00    +0.000 A 
ATOM      5  C   UNL     1       5.154   3.833  13.274  0.00  0.00    +0.000 A 
ATOM      6  C   UNL     1       6.031   3.727  12.195  0.00  0.00    +0.000 A 
ATOM      7  C   UNL     1       7.348   4.171  12.322  0.00  0.00    +0.000 A 
ATOM      8  C   UNL     1       7.789   4.730  13.525  0.00  0.00    +0.000 A 
ATOM      9  C   UNL     1       6.908   4.881  14.600  0.00  0.00    +0.000 A 
ATOM     10  N   UNL     1       7.367   5.378  15.834  0.00  0.00    +0.000 N 
ATOM     11  C   UNL     1       6.283   6.063  16.556  0.00  0.00    +0.000 C 
ATOM     12  H   UNL     1       8.192   5.970  15.760  0.00  0.00    +0.000 HD
ENDROOT
BRANCH   1  18
ATOM     13  C   UNL     1       3.726   5.668  18.706  0.00  0.00    +0.000 A 
ATOM     14  C   UNL     1       3.095   5.237  19.883  0.00  0.00    +0.000 A 
ATOM     15  C   UNL     1       3.402   3.995  20.443  0.00  0.00    +0.000 A 
ATOM     16  C   UNL     1       4.360   3.185  19.846  0.00  0.00    +0.000 A 
ATOM     17  C   UNL     1       4.990   3.602  18.671  0.00  0.00    +0.000 A 
ATOM     18  C   UNL     1       4.682   4.837  18.086  0.00  0.00    +0.000 A 
BRANCH  13  20
ATOM     19  C   UNL     1       2.290   7.551  18.509  0.00  0.00    +0.000 C 
ATOM     20  O   UNL     1       3.521   6.919  18.163  0.00  0.00    +0.000 OA
ENDBRANCH  13  20
ENDBRANCH   1  18
BRANCH  11  21
ATOM     21  C   UNL     1       6.859   6.999  17.698  0.00  0.00    +0.000 C 
BRANCH  21  22
ATOM     22  O   UNL     1       8.027   6.436  18.312  0.00  0.00    +0.000 OA
ATOM     23  C   UNL     1       7.723   5.755  19.523  0.00  0.00    +0.000 C 
ENDBRANCH  21  22
BRANCH  21  24
ATOM     24  O   UNL     1       7.252   8.280  17.149  0.00  0.00    +0.000 OA
ATOM     25  C   UNL     1       8.180   9.006  17.937  0.00  0.00    +0.000 C 
ENDBRANCH  21  24
ENDBRANCH  11  21
TORSDOF 5
ENDMDL
