MODEL 1
REMARK VINA RESULT:      -9.3      0.000      0.000
REMARK  Name = 
REMARK  8 active torsions:
REMARK  status: ('A' for Active; 'I' for Inactive)
REMARK    1  A    between atoms: C_2  and  C_3
REMARK    2  A    between atoms: C_3  and  O_4
REMARK    3  A    between atoms: O_4  and  C_5
REMARK    4  A    between atoms: C_9  and  C_10
REMARK    5  A    between atoms: C_14  and  N_15
REMARK    6  A    between atoms: N_15  and  C_16
REMARK    7  A    between atoms: C_19  and  C_20
REMARK    8  A    between atoms: N_32  and  C_33
REMARK                            x       y       z     vdW  Elec       q    Type
REMARK                         _______ _______ _______ _____ _____    ______ ____
ROOT
ATOM      1  C   UNL     1       2.271   7.492  19.049  0.00  0.00    +0.000 A 
ATOM      2  N   UNL     1       2.211   7.533  20.393  0.00  0.00    +0.000 NA
ATOM      3  C   UNL     1       1.559   8.593  20.884  0.00  0.00    +0.000 A 
ATOM      4  C   UNL     1       0.986   9.584  20.132  0.00  0.00    +0.000 A 
ATOM      5  C   UNL     1       1.083   9.477  18.774  0.00  0.00    +0.000 A 
ATOM      6  N   UNL     1       1.739   8.429  18.235  0.00  0.00    +0.000 NA
ATOM      7  C   UNL     1       0.360  10.583  21.015  0.00  0.00    +0.000 C 
ATOM      8  O   UNL     1       0.400   9.983  22.333  0.00  0.00    +0.000 OA
ATOM      9  C   UNL     1       1.382   8.916  22.329  0.00  0.00    +0.000 C 
ENDROOT
BRANCH   1  14
ATOM     10  C   UNL     1       4.955   5.347  17.402  0.00  0.00    +0.000 A 
ATOM     11  C   UNL     1       4.231   4.185  17.127  0.00  0.00    +0.000 A 
ATOM     12  C   UNL     1       2.896   4.080  17.502  0.00  0.00    +0.000 A 
ATOM     13  C   UNL     1       2.267   5.151  18.137  0.00  0.00    +0.000 A 
ATOM     14  C   UNL     1       2.952   6.351  18.405  0.00  0.00    +0.000 A 
ATOM     15  C   UNL     1       4.312   6.424  18.023  0.00  0.00    +0.000 A 
BRANCH  10  16
ATOM     16  O   UNL     1       6.256   5.327  16.991  0.00  0.00    +0.000 OA
BRANCH  16  17
ATOM     17  C   UNL     1       6.652   4.184  16.227  0.00  0.00    +0.000 C 
BRANCH  17  19
ATOM     18  O   UNL     1       6.794   5.578  14.251  0.00  0.00    +0.000 OA
ATOM     19  C   UNL     1       6.532   4.476  14.727  0.00  0.00    +0.000 C 
ATOM     20  N   UNL     1       6.120   3.400  13.965  0.00  0.00    +0.000 N 
ATOM     21  H   UNL     1       5.938   2.546  14.486  0.00  0.00    +0.000 HD
BRANCH  20  22
ATOM     22  C   UNL     1       5.987   3.451  12.505  0.00  0.00    +0.000 C 
ATOM     23  C   UNL     1       5.954   2.061  11.819  0.00  0.00    +0.000 C 
ATOM     24  C   UNL     1       4.896   2.646  10.861  0.00  0.00    +0.000 C 
ATOM     25  C   UNL     1       4.540   3.639  11.987  0.00  0.00    +0.000 C 
ENDBRANCH  20  22
ENDBRANCH  17  19
ENDBRANCH  16  17
ENDBRANCH  10  16
ENDBRANCH   1  14
BRANCH   5  26
ATOM     26  N   UNL     1       0.586  10.483  17.914  0.00  0.00    +0.000 N 
ATOM     27  H   UNL     1       1.037  11.373  18.100  0.00  0.00    +0.000 HD
BRANCH  26  28
ATOM     28  C   UNL     1      -0.806  10.739  17.785  0.00  0.00    +0.000 A 
ATOM     29  C   UNL     1      -1.697   9.723  17.420  0.00  0.00    +0.000 A 
ATOM     30  C   UNL     1      -3.073   9.946  17.407  0.00  0.00    +0.000 A 
ATOM     31  C   UNL     1      -3.592  11.186  17.791  0.00  0.00    +0.000 A 
ATOM     32  C   UNL     1      -2.706  12.205  18.161  0.00  0.00    +0.000 A 
ATOM     33  C   UNL     1      -1.324  11.975  18.181  0.00  0.00    +0.000 A 
BRANCH  31  34
ATOM     34  C   UNL     1      -5.029  11.359  17.855  0.00  0.00    +0.000 A 
ATOM     35  C   UNL     1      -5.999  10.633  18.588  0.00  0.00    +0.000 A 
ATOM     36  N   UNL     1      -7.238  11.086  18.400  0.00  0.00    +0.000 NA
ATOM     37  N   UNL     1      -7.069  12.105  17.540  0.00  0.00    +0.000 N 
ATOM     38  C   UNL     1      -5.766  12.310  17.184  0.00  0.00    +0.000 A 
ATOM     39  H   UNL     1      -7.889  12.618  17.238  0.00  0.00    +0.000 HD
ENDBRANCH  31  34
ENDBRANCH  26  28
ENDBRANCH   5  26
TORSDOF 8
ENDMDL
MODEL 2
REMARK VINA RESULT:      -9.3      3.966      6.454
REMARK  Name = 
REMARK  8 active torsions:
REMARK  status: ('A' for Active; 'I' for Inactive)
REMARK    1  A    between atoms: C_2  and  C_3
REMARK    2  A    between atoms: C_3  and  O_4
REMARK    3  A    between atoms: O_4  and  C_5
REMARK    4  A    between atoms: C_9  and  C_10
REMARK    5  A    between atoms: C_14  and  N_15
REMARK    6  A    between atoms: N_15  and  C_16
REMARK    7  A    between atoms: C_19  and  C_20
REMARK    8  A    between atoms: N_32  and  C_33
REMARK                            x       y       z     vdW  Elec       q    Type
REMARK                         _______ _______ _______ _____ _____    ______ ____
ROOT
ATOM      1  C   UNL     1       3.880   4.822  18.027  0.00  0.00    +0.000 A 
ATOM      2  N   UNL     1       3.207   3.665  17.882  0.00  0.00    +0.000 NA
ATOM      3  C   UNL     1       2.168   3.525  18.712  0.00  0.00    +0.000 A 
ATOM      4  C   UNL     1       1.778   4.442  19.651  0.00  0.00    +0.000 A 
ATOM      5  C   UNL     1       2.506   5.594  19.742  0.00  0.00    +0.000 A 
ATOM      6  N   UNL     1       3.568   5.776  18.930  0.00  0.00    +0.000 NA
ATOM      7  C   UNL     1       0.597   3.945  20.378  0.00  0.00    +0.000 C 
ATOM      8  O   UNL     1       0.177   2.774  19.635  0.00  0.00    +0.000 OA
ATOM      9  C   UNL     1       1.279   2.330  18.803  0.00  0.00    +0.000 C 
ENDROOT
BRANCH   1  14
ATOM     10  C   UNL     1       7.083   6.329  16.618  0.00  0.00    +0.000 A 
ATOM     11  C   UNL     1       7.206   5.618  15.422  0.00  0.00    +0.000 A 
ATOM     12  C   UNL     1       6.282   4.633  15.091  0.00  0.00    +0.000 A 
ATOM     13  C   UNL     1       5.212   4.368  15.944  0.00  0.00    +0.000 A 
ATOM     14  C   UNL     1       5.034   5.085  17.143  0.00  0.00    +0.000 A 
ATOM     15  C   UNL     1       5.996   6.072  17.460  0.00  0.00    +0.000 A 
BRANCH  10  16
ATOM     16  O   UNL     1       8.053   7.264  16.834  0.00  0.00    +0.000 OA
BRANCH  16  17
ATOM     17  C   UNL     1       8.182   7.731  18.181  0.00  0.00    +0.000 C 
BRANCH  17  19
ATOM     18  O   UNL     1       7.810   9.993  17.397  0.00  0.00    +0.000 OA
ATOM     19  C   UNL     1       8.368   9.253  18.203  0.00  0.00    +0.000 C 
ATOM     20  N   UNL     1       9.198   9.713  19.207  0.00  0.00    +0.000 N 
ATOM     21  H   UNL     1       9.593   8.993  19.806  0.00  0.00    +0.000 HD
BRANCH  20  22
ATOM     22  C   UNL     1       9.472  11.136  19.435  0.00  0.00    +0.000 C 
ATOM     23  C   UNL     1      10.243  11.434  20.747  0.00  0.00    +0.000 C 
ATOM     24  C   UNL     1      11.009  12.516  19.959  0.00  0.00    +0.000 C 
ATOM     25  C   UNL     1      10.711  11.691  18.690  0.00  0.00    +0.000 C 
ENDBRANCH  20  22
ENDBRANCH  17  19
ENDBRANCH  16  17
ENDBRANCH  10  16
ENDBRANCH   1  14
BRANCH   5  26
ATOM     26  N   UNL     1       2.228   6.571  20.725  0.00  0.00    +0.000 N 
ATOM     27  H   UNL     1       1.827   6.146  21.554  0.00  0.00    +0.000 HD
BRANCH  26  28
ATOM     28  C   UNL     1       1.456   7.728  20.435  0.00  0.00    +0.000 A 
ATOM     29  C   UNL     1       0.585   8.274  21.386  0.00  0.00    +0.000 A 
ATOM     30  C   UNL     1      -0.083   9.473  21.142  0.00  0.00    +0.000 A 
ATOM     31  C   UNL     1       0.128  10.171  19.950  0.00  0.00    +0.000 A 
ATOM     32  C   UNL     1       1.001   9.633  18.996  0.00  0.00    +0.000 A 
ATOM     33  C   UNL     1       1.678   8.432  19.248  0.00  0.00    +0.000 A 
BRANCH  31  34
ATOM     34  C   UNL     1      -0.510  11.459  19.765  0.00  0.00    +0.000 A 
ATOM     35  C   UNL     1      -1.693  11.977  20.344  0.00  0.00    +0.000 A 
ATOM     36  N   UNL     1      -1.971  13.215  19.934  0.00  0.00    +0.000 NA
ATOM     37  N   UNL     1      -0.970  13.494  19.085  0.00  0.00    +0.000 N 
ATOM     38  C   UNL     1      -0.068  12.476  18.949  0.00  0.00    +0.000 A 
ATOM     39  H   UNL     1      -0.963  14.400  18.631  0.00  0.00    +0.000 HD
ENDBRANCH  31  34
ENDBRANCH  26  28
ENDBRANCH   5  26
TORSDOF 8
ENDMDL
MODEL 3
REMARK VINA RESULT:      -9.2      0.589      1.155
REMARK  Name = 
REMARK  8 active torsions:
REMARK  status: ('A' for Active; 'I' for Inactive)
REMARK    1  A    between atoms: C_2  and  C_3
REMARK    2  A    between atoms: C_3  and  O_4
REMARK    3  A    between atoms: O_4  and  C_5
REMARK    4  A    between atoms: C_9  and  C_10
REMARK    5  A    between atoms: C_14  and  N_15
REMARK    6  A    between atoms: N_15  and  C_16
REMARK    7  A    between atoms: C_19  and  C_20
REMARK    8  A    between atoms: N_32  and  C_33
REMARK                            x       y       z     vdW  Elec       q    Type
REMARK                         _______ _______ _______ _____ _____    ______ ____
ROOT
ATOM      1  C   UNL     1       2.211   7.711  18.998  0.00  0.00    +0.000 A 
ATOM      2  N   UNL     1       2.232   7.709  20.344  0.00  0.00    +0.000 NA
ATOM      3  C   UNL     1       1.512   8.685  20.908  0.00  0.00    +0.000 A 
ATOM      4  C   UNL     1       0.798   9.634  20.226  0.00  0.00    +0.000 A 
ATOM      5  C   UNL     1       0.820   9.574  18.862  0.00  0.00    +0.000 A 
ATOM      6  N   UNL     1       1.540   8.612  18.249  0.00  0.00    +0.000 NA
ATOM      7  C   UNL     1       0.134  10.542  21.178  0.00  0.00    +0.000 C 
ATOM      8  O   UNL     1       0.316   9.913  22.470  0.00  0.00    +0.000 OA
ATOM      9  C   UNL     1       1.395   8.949  22.372  0.00  0.00    +0.000 C 
ENDROOT
BRANCH   1  14
ATOM     10  C   UNL     1       4.805   5.976  16.813  0.00  0.00    +0.000 A 
ATOM     11  C   UNL     1       4.349   4.657  16.859  0.00  0.00    +0.000 A 
ATOM     12  C   UNL     1       3.234   4.323  17.619  0.00  0.00    +0.000 A 
ATOM     13  C   UNL     1       2.550   5.314  18.322  0.00  0.00    +0.000 A 
ATOM     14  C   UNL     1       2.959   6.661  18.277  0.00  0.00    +0.000 A 
ATOM     15  C   UNL     1       4.103   6.969  17.506  0.00  0.00    +0.000 A 
BRANCH  10  16
ATOM     16  O   UNL     1       5.911   6.177  16.039  0.00  0.00    +0.000 OA
BRANCH  16  17
ATOM     17  C   UNL     1       6.719   5.022  15.793  0.00  0.00    +0.000 C 
BRANCH  17  19
ATOM     18  O   UNL     1       7.806   5.340  13.651  0.00  0.00    +0.000 OA
ATOM     19  C   UNL     1       6.898   4.808  14.285  0.00  0.00    +0.000 C 
ATOM     20  N   UNL     1       5.967   3.964  13.712  0.00  0.00    +0.000 N 
ATOM     21  H   UNL     1       5.270   3.591  14.351  0.00  0.00    +0.000 HD
BRANCH  20  22
ATOM     22  C   UNL     1       5.986   3.588  12.294  0.00  0.00    +0.000 C 
ATOM     23  C   UNL     1       6.309   2.093  12.036  0.00  0.00    +0.000 C 
ATOM     24  C   UNL     1       5.267   2.144  10.901  0.00  0.00    +0.000 C 
ATOM     25  C   UNL     1       4.597   3.299  11.676  0.00  0.00    +0.000 C 
ENDBRANCH  20  22
ENDBRANCH  17  19
ENDBRANCH  16  17
ENDBRANCH  10  16
ENDBRANCH   1  14
BRANCH   5  26
ATOM     26  N   UNL     1       0.174  10.548  18.067  0.00  0.00    +0.000 N 
ATOM     27  H   UNL     1       0.621  11.453  18.169  0.00  0.00    +0.000 HD
BRANCH  26  28
ATOM     28  C   UNL     1      -1.229  10.766  18.140  0.00  0.00    +0.000 A 
ATOM     29  C   UNL     1      -1.753  11.894  18.783  0.00  0.00    +0.000 A 
ATOM     30  C   UNL     1      -3.120  12.166  18.754  0.00  0.00    +0.000 A 
ATOM     31  C   UNL     1      -3.993  11.330  18.053  0.00  0.00    +0.000 A 
ATOM     32  C   UNL     1      -3.475  10.202  17.404  0.00  0.00    +0.000 A 
ATOM     33  C   UNL     1      -2.099   9.936  17.428  0.00  0.00    +0.000 A 
BRANCH  31  34
ATOM     34  C   UNL     1      -5.394  11.688  17.964  0.00  0.00    +0.000 A 
ATOM     35  C   UNL     1      -6.025  12.700  17.200  0.00  0.00    +0.000 A 
ATOM     36  N   UNL     1      -7.346  12.731  17.373  0.00  0.00    +0.000 NA
ATOM     37  N   UNL     1      -7.569  11.741  18.252  0.00  0.00    +0.000 N 
ATOM     38  C   UNL     1      -6.433  11.085  18.636  0.00  0.00    +0.000 A 
ATOM     39  H   UNL     1      -8.522  11.566  18.548  0.00  0.00    +0.000 HD
ENDBRANCH  31  34
ENDBRANCH  26  28
ENDBRANCH   5  26
TORSDOF 8
ENDMDL
MODEL 4
REMARK VINA RESULT:      -9.2      2.824     10.288
REMARK  Name = 
REMARK  8 active torsions:
REMARK  status: ('A' for Active; 'I' for Inactive)
REMARK    1  A    between atoms: C_2  and  C_3
REMARK    2  A    between atoms: C_3  and  O_4
REMARK    3  A    between atoms: O_4  and  C_5
REMARK    4  A    between atoms: C_9  and  C_10
REMARK    5  A    between atoms: C_14  and  N_15
REMARK    6  A    between atoms: N_15  and  C_16
REMARK    7  A    between atoms: C_19  and  C_20
REMARK    8  A    between atoms: N_32  and  C_33
REMARK                            x       y       z     vdW  Elec       q    Type
REMARK                         _______ _______ _______ _____ _____    ______ ____
ROOT
ATOM      1  C   UNL     1       2.455   6.335  19.851  0.00  0.00    +0.000 A 
ATOM      2  N   UNL     1       1.569   5.553  20.496  0.00  0.00    +0.000 NA
ATOM      3  C   UNL     1       2.037   4.342  20.821  0.00  0.00    +0.000 A 
ATOM      4  C   UNL     1       3.297   3.883  20.542  0.00  0.00    +0.000 A 
ATOM      5  C   UNL     1       4.143   4.731  19.887  0.00  0.00    +0.000 A 
ATOM      6  N   UNL     1       3.711   5.959  19.532  0.00  0.00    +0.000 NA
ATOM      7  C   UNL     1       3.451   2.507  21.048  0.00  0.00    +0.000 C 
ATOM      8  O   UNL     1       2.270   2.280  21.856  0.00  0.00    +0.000 OA
ATOM      9  C   UNL     1       1.263   3.259  21.494  0.00  0.00    +0.000 C 
ENDROOT
BRANCH   1  14
ATOM     10  C   UNL     1       1.087   9.885  20.042  0.00  0.00    +0.000 A 
ATOM     11  C   UNL     1       1.211  10.288  18.711  0.00  0.00    +0.000 A 
ATOM     12  C   UNL     1       1.767   9.433  17.765  0.00  0.00    +0.000 A 
ATOM     13  C   UNL     1       2.181   8.156  18.141  0.00  0.00    +0.000 A 
ATOM     14  C   UNL     1       2.044   7.701  19.466  0.00  0.00    +0.000 A 
ATOM     15  C   UNL     1       1.487   8.596  20.409  0.00  0.00    +0.000 A 
BRANCH  10  16
ATOM     16  O   UNL     1       0.533  10.814  20.876  0.00  0.00    +0.000 OA
BRANCH  16  17
ATOM     17  C   UNL     1      -0.895  10.808  20.956  0.00  0.00    +0.000 C 
BRANCH  17  19
ATOM     18  O   UNL     1      -1.378  12.873  19.785  0.00  0.00    +0.000 OA
ATOM     19  C   UNL     1      -1.497  11.651  19.826  0.00  0.00    +0.000 C 
ATOM     20  N   UNL     1      -2.166  10.922  18.862  0.00  0.00    +0.000 N 
ATOM     21  H   UNL     1      -2.188   9.918  19.016  0.00  0.00    +0.000 HD
BRANCH  20  22
ATOM     22  C   UNL     1      -2.773  11.528  17.672  0.00  0.00    +0.000 C 
ATOM     23  C   UNL     1      -2.705  10.644  16.400  0.00  0.00    +0.000 C 
ATOM     24  C   UNL     1      -4.121  11.154  16.064  0.00  0.00    +0.000 C 
ATOM     25  C   UNL     1      -4.312  11.385  17.578  0.00  0.00    +0.000 C 
ENDBRANCH  20  22
ENDBRANCH  17  19
ENDBRANCH  16  17
ENDBRANCH  10  16
ENDBRANCH   1  14
BRANCH   5  26
ATOM     26  N   UNL     1       5.439   4.326  19.491  0.00  0.00    +0.000 N 
ATOM     27  H   UNL     1       6.148   4.901  19.934  0.00  0.00    +0.000 HD
BRANCH  26  28
ATOM     28  C   UNL     1       5.799   4.200  18.122  0.00  0.00    +0.000 A 
ATOM     29  C   UNL     1       4.862   3.798  17.162  0.00  0.00    +0.000 A 
ATOM     30  C   UNL     1       5.186   3.786  15.806  0.00  0.00    +0.000 A 
ATOM     31  C   UNL     1       6.447   4.207  15.376  0.00  0.00    +0.000 A 
ATOM     32  C   UNL     1       7.387   4.615  16.330  0.00  0.00    +0.000 A 
ATOM     33  C   UNL     1       7.056   4.633  17.693  0.00  0.00    +0.000 A 
BRANCH  31  34
ATOM     34  C   UNL     1       6.722   4.271  13.954  0.00  0.00    +0.000 A 
ATOM     35  C   UNL     1       6.178   3.513  12.890  0.00  0.00    +0.000 A 
ATOM     36  N   UNL     1       6.675   3.858  11.702  0.00  0.00    +0.000 NA
ATOM     37  N   UNL     1       7.544   4.837  12.000  0.00  0.00    +0.000 N 
ATOM     38  C   UNL     1       7.609   5.123  13.335  0.00  0.00    +0.000 A 
ATOM     39  H   UNL     1       8.061   5.267  11.241  0.00  0.00    +0.000 HD
ENDBRANCH  31  34
ENDBRANCH  26  28
ENDBRANCH   5  26
TORSDOF 8
ENDMDL
MODEL 5
REMARK VINA RESULT:      -9.1      3.615     11.347
REMARK  Name = 
REMARK  8 active torsions:
REMARK  status: ('A' for Active; 'I' for Inactive)
REMARK    1  A    between atoms: C_2  and  C_3
REMARK    2  A    between atoms: C_3  and  O_4
REMARK    3  A    between atoms: O_4  and  C_5
REMARK    4  A    between atoms: C_9  and  C_10
REMARK    5  A    between atoms: C_14  and  N_15
REMARK    6  A    between atoms: N_15  and  C_16
REMARK    7  A    between atoms: C_19  and  C_20
REMARK    8  A    between atoms: N_32  and  C_33
REMARK                            x       y       z     vdW  Elec       q    Type
REMARK                         _______ _______ _______ _____ _____    ______ ____
ROOT
ATOM      1  C   UNL     1       2.393   6.279  19.942  0.00  0.00    +0.000 A 
ATOM      2  N   UNL     1       1.563   5.499  20.660  0.00  0.00    +0.000 NA
ATOM      3  C   UNL     1       2.038   4.274  20.912  0.00  0.00    +0.000 A 
ATOM      4  C   UNL     1       3.253   3.799  20.498  0.00  0.00    +0.000 A 
ATOM      5  C   UNL     1       4.045   4.645  19.775  0.00  0.00    +0.000 A 
ATOM      6  N   UNL     1       3.603   5.887  19.489  0.00  0.00    +0.000 NA
ATOM      7  C   UNL     1       3.432   2.411  20.961  0.00  0.00    +0.000 C 
ATOM      8  O   UNL     1       2.335   2.189  21.880  0.00  0.00    +0.000 OA
ATOM      9  C   UNL     1       1.316   3.192  21.642  0.00  0.00    +0.000 C 
ENDROOT
BRANCH   1  14
ATOM     10  C   UNL     1       1.059   9.827  20.325  0.00  0.00    +0.000 A 
ATOM     11  C   UNL     1       1.118  10.275  19.004  0.00  0.00    +0.000 A 
ATOM     12  C   UNL     1       1.618   9.451  18.002  0.00  0.00    +0.000 A 
ATOM     13  C   UNL     1       2.043   8.160  18.312  0.00  0.00    +0.000 A 
ATOM     14  C   UNL     1       1.971   7.659  19.626  0.00  0.00    +0.000 A 
ATOM     15  C   UNL     1       1.469   8.523  20.626  0.00  0.00    +0.000 A 
BRANCH  10  16
ATOM     16  O   UNL     1       0.555  10.728  21.218  0.00  0.00    +0.000 OA
BRANCH  16  17
ATOM     17  C   UNL     1      -0.777  11.183  20.960  0.00  0.00    +0.000 C 
BRANCH  17  19
ATOM     18  O   UNL     1      -1.008  11.268  23.370  0.00  0.00    +0.000 OA
ATOM     19  C   UNL     1      -1.477  11.557  22.272  0.00  0.00    +0.000 C 
ATOM     20  N   UNL     1      -2.661  12.250  22.112  0.00  0.00    +0.000 N 
ATOM     21  H   UNL     1      -2.934  12.425  21.149  0.00  0.00    +0.000 HD
BRANCH  20  22
ATOM     22  C   UNL     1      -3.463  12.744  23.237  0.00  0.00    +0.000 C 
ATOM     23  C   UNL     1      -3.220  14.235  23.588  0.00  0.00    +0.000 C 
ATOM     24  C   UNL     1      -4.734  14.338  23.858  0.00  0.00    +0.000 C 
ATOM     25  C   UNL     1      -4.909  13.161  22.876  0.00  0.00    +0.000 C 
ENDBRANCH  20  22
ENDBRANCH  17  19
ENDBRANCH  16  17
ENDBRANCH  10  16
ENDBRANCH   1  14
BRANCH   5  26
ATOM     26  N   UNL     1       5.285   4.226  19.242  0.00  0.00    +0.000 N 
ATOM     27  H   UNL     1       6.057   4.635  19.760  0.00  0.00    +0.000 HD
BRANCH  26  28
ATOM     28  C   UNL     1       5.591   4.360  17.861  0.00  0.00    +0.000 A 
ATOM     29  C   UNL     1       6.876   4.721  17.436  0.00  0.00    +0.000 A 
ATOM     30  C   UNL     1       7.205   4.739  16.082  0.00  0.00    +0.000 A 
ATOM     31  C   UNL     1       6.263   4.366  15.120  0.00  0.00    +0.000 A 
ATOM     32  C   UNL     1       4.977   3.999  15.538  0.00  0.00    +0.000 A 
ATOM     33  C   UNL     1       4.652   3.975  16.901  0.00  0.00    +0.000 A 
BRANCH  31  34
ATOM     34  C   UNL     1       6.661   4.306  13.728  0.00  0.00    +0.000 A 
ATOM     35  C   UNL     1       7.597   5.096  13.018  0.00  0.00    +0.000 A 
ATOM     36  N   UNL     1       7.704   4.745  11.737  0.00  0.00    +0.000 NA
ATOM     37  N   UNL     1       6.832   3.730  11.618  0.00  0.00    +0.000 N 
ATOM     38  C   UNL     1       6.183   3.428  12.782  0.00  0.00    +0.000 A 
ATOM     39  H   UNL     1       6.731   3.288  10.711  0.00  0.00    +0.000 HD
ENDBRANCH  31  34
ENDBRANCH  26  28
ENDBRANCH   5  26
TORSDOF 8
ENDMDL
MODEL 6
REMARK VINA RESULT:      -8.9      3.233     10.939
REMARK  Name = 
REMARK  8 active torsions:
REMARK  status: ('A' for Active; 'I' for Inactive)
REMARK    1  A    between atoms: C_2  and  C_3
REMARK    2  A    between atoms: C_3  and  O_4
REMARK    3  A    between atoms: O_4  and  C_5
REMARK    4  A    between atoms: C_9  and  C_10
REMARK    5  A    between atoms: C_14  and  N_15
REMARK    6  A    between atoms: N_15  and  C_16
REMARK    7  A    between atoms: C_19  and  C_20
REMARK    8  A    between atoms: N_32  and  C_33
REMARK                            x       y       z     vdW  Elec       q    Type
REMARK                         _______ _______ _______ _____ _____    ______ ____
ROOT
ATOM      1  C   UNL     1       2.362   6.287  19.924  0.00  0.00    +0.000 A 
ATOM      2  N   UNL     1       1.532   5.502  20.636  0.00  0.00    +0.000 NA
ATOM      3  C   UNL     1       2.014   4.281  20.893  0.00  0.00    +0.000 A 
ATOM      4  C   UNL     1       3.236   3.814  20.490  0.00  0.00    +0.000 A 
ATOM      5  C   UNL     1       4.027   4.665  19.772  0.00  0.00    +0.000 A 
ATOM      6  N   UNL     1       3.579   5.904  19.482  0.00  0.00    +0.000 NA
ATOM      7  C   UNL     1       3.421   2.428  20.954  0.00  0.00    +0.000 C 
ATOM      8  O   UNL     1       2.319   2.198  21.865  0.00  0.00    +0.000 OA
ATOM      9  C   UNL     1       1.294   3.193  21.618  0.00  0.00    +0.000 C 
ENDROOT
BRANCH   1  14
ATOM     10  C   UNL     1       0.790   9.744  20.226  0.00  0.00    +0.000 A 
ATOM     11  C   UNL     1       1.071  10.273  18.964  0.00  0.00    +0.000 A 
ATOM     12  C   UNL     1       1.794   9.532  18.035  0.00  0.00    +0.000 A 
ATOM     13  C   UNL     1       2.222   8.245  18.355  0.00  0.00    +0.000 A 
ATOM     14  C   UNL     1       1.933   7.664  19.604  0.00  0.00    +0.000 A 
ATOM     15  C   UNL     1       1.207   8.444  20.533  0.00  0.00    +0.000 A 
BRANCH  10  16
ATOM     16  O   UNL     1       0.080  10.568  21.050  0.00  0.00    +0.000 OA
BRANCH  16  17
ATOM     17  C   UNL     1       0.395  11.961  20.964  0.00  0.00    +0.000 C 
BRANCH  17  19
ATOM     18  O   UNL     1      -0.836  13.507  19.563  0.00  0.00    +0.000 OA
ATOM     19  C   UNL     1      -0.841  12.763  20.540  0.00  0.00    +0.000 C 
ATOM     20  N   UNL     1      -1.952  12.566  21.338  0.00  0.00    +0.000 N 
ATOM     21  H   UNL     1      -1.819  11.922  22.113  0.00  0.00    +0.000 HD
BRANCH  20  22
ATOM     22  C   UNL     1      -3.250  13.199  21.080  0.00  0.00    +0.000 C 
ATOM     23  C   UNL     1      -4.077  12.522  19.956  0.00  0.00    +0.000 C 
ATOM     24  C   UNL     1      -5.326  12.792  20.820  0.00  0.00    +0.000 C 
ATOM     25  C   UNL     1      -4.386  12.777  22.043  0.00  0.00    +0.000 C 
ENDBRANCH  20  22
ENDBRANCH  17  19
ENDBRANCH  16  17
ENDBRANCH  10  16
ENDBRANCH   1  14
BRANCH   5  26
ATOM     26  N   UNL     1       5.275   4.255  19.250  0.00  0.00    +0.000 N 
ATOM     27  H   UNL     1       6.040   4.680  19.764  0.00  0.00    +0.000 HD
BRANCH  26  28
ATOM     28  C   UNL     1       5.585   4.375  17.868  0.00  0.00    +0.000 A 
ATOM     29  C   UNL     1       6.887   4.663  17.441  0.00  0.00    +0.000 A 
ATOM     30  C   UNL     1       7.213   4.666  16.085  0.00  0.00    +0.000 A 
ATOM     31  C   UNL     1       6.249   4.348  15.125  0.00  0.00    +0.000 A 
ATOM     32  C   UNL     1       4.946   4.054  15.546  0.00  0.00    +0.000 A 
ATOM     33  C   UNL     1       4.623   4.044  16.910  0.00  0.00    +0.000 A 
BRANCH  31  34
ATOM     34  C   UNL     1       6.640   4.269  13.732  0.00  0.00    +0.000 A 
ATOM     35  C   UNL     1       6.180   3.406  12.708  0.00  0.00    +0.000 A 
ATOM     36  N   UNL     1       6.774   3.630  11.536  0.00  0.00    +0.000 NA
ATOM     37  N   UNL     1       7.622   4.636  11.804  0.00  0.00    +0.000 N 
ATOM     38  C   UNL     1       7.580   5.055  13.105  0.00  0.00    +0.000 A 
ATOM     39  H   UNL     1       8.202   4.989  11.051  0.00  0.00    +0.000 HD
ENDBRANCH  31  34
ENDBRANCH  26  28
ENDBRANCH   5  26
TORSDOF 8
ENDMDL
MODEL 7
REMARK VINA RESULT:      -8.8      2.772     10.054
REMARK  Name = 
REMARK  8 active torsions:
REMARK  status: ('A' for Active; 'I' for Inactive)
REMARK    1  A    between atoms: C_2  and  C_3
REMARK    2  A    between atoms: C_3  and  O_4
REMARK    3  A    between atoms: O_4  and  C_5
REMARK    4  A    between atoms: C_9  and  C_10
REMARK    5  A    between atoms: C_14  and  N_15
REMARK    6  A    between atoms: N_15  and  C_16
REMARK    7  A    between atoms: C_19  and  C_20
REMARK    8  A    between atoms: N_32  and  C_33
REMARK                            x       y       z     vdW  Elec       q    Type
REMARK                         _______ _______ _______ _____ _____    ______ ____
ROOT
ATOM      1  C   UNL     1       2.059   6.665  20.203  0.00  0.00    +0.000 A 
ATOM      2  N   UNL     1       1.237   5.606  20.319  0.00  0.00    +0.000 NA
ATOM      3  C   UNL     1       1.830   4.423  20.122  0.00  0.00    +0.000 A 
ATOM      4  C   UNL     1       3.154   4.245  19.821  0.00  0.00    +0.000 A 
ATOM      5  C   UNL     1       3.930   5.364  19.721  0.00  0.00    +0.000 A 
ATOM      6  N   UNL     1       3.373   6.579  19.903  0.00  0.00    +0.000 NA
ATOM      7  C   UNL     1       3.445   2.808  19.674  0.00  0.00    +0.000 C 
ATOM      8  O   UNL     1       2.248   2.143  20.147  0.00  0.00    +0.000 OA
ATOM      9  C   UNL     1       1.154   3.094  20.142  0.00  0.00    +0.000 C 
ENDROOT
BRANCH   1  14
ATOM     10  C   UNL     1       0.869  10.228  19.570  0.00  0.00    +0.000 A 
ATOM     11  C   UNL     1       0.502  10.617  20.860  0.00  0.00    +0.000 A 
ATOM     12  C   UNL     1       0.604   9.724  21.921  0.00  0.00    +0.000 A 
ATOM     13  C   UNL     1       1.098   8.438  21.702  0.00  0.00    +0.000 A 
ATOM     14  C   UNL     1       1.507   8.018  20.422  0.00  0.00    +0.000 A 
ATOM     15  C   UNL     1       1.381   8.943  19.360  0.00  0.00    +0.000 A 
BRANCH  10  16
ATOM     16  O   UNL     1       0.718  11.190  18.613  0.00  0.00    +0.000 OA
BRANCH  16  17
ATOM     17  C   UNL     1      -0.327  12.141  18.843  0.00  0.00    +0.000 C 
BRANCH  17  19
ATOM     18  O   UNL     1      -2.741  11.940  18.814  0.00  0.00    +0.000 OA
ATOM     19  C   UNL     1      -1.666  11.598  18.329  0.00  0.00    +0.000 C 
ATOM     20  N   UNL     1      -1.557  10.710  17.276  0.00  0.00    +0.000 N 
ATOM     21  H   UNL     1      -0.607  10.515  16.970  0.00  0.00    +0.000 HD
BRANCH  20  22
ATOM     22  C   UNL     1      -2.716  10.111  16.605  0.00  0.00    +0.000 C 
ATOM     23  C   UNL     1      -3.762  11.139  16.100  0.00  0.00    +0.000 C 
ATOM     24  C   UNL     1      -3.933  10.238  14.860  0.00  0.00    +0.000 C 
ATOM     25  C   UNL     1      -2.493   9.745  15.118  0.00  0.00    +0.000 C 
ENDBRANCH  20  22
ENDBRANCH  17  19
ENDBRANCH  16  17
ENDBRANCH  10  16
ENDBRANCH   1  14
BRANCH   5  26
ATOM     26  N   UNL     1       5.291   5.291  19.346  0.00  0.00    +0.000 N 
ATOM     27  H   UNL     1       5.823   6.049  19.762  0.00  0.00    +0.000 HD
BRANCH  26  28
ATOM     28  C   UNL     1       5.690   5.202  17.984  0.00  0.00    +0.000 A 
ATOM     29  C   UNL     1       6.809   4.450  17.606  0.00  0.00    +0.000 A 
ATOM     30  C   UNL     1       7.130   4.269  16.262  0.00  0.00    +0.000 A 
ATOM     31  C   UNL     1       6.319   4.811  15.261  0.00  0.00    +0.000 A 
ATOM     32  C   UNL     1       5.195   5.560  15.632  0.00  0.00    +0.000 A 
ATOM     33  C   UNL     1       4.871   5.734  16.985  0.00  0.00    +0.000 A 
BRANCH  31  34
ATOM     34  C   UNL     1       6.626   4.529  13.873  0.00  0.00    +0.000 A 
ATOM     35  C   UNL     1       7.598   5.110  13.023  0.00  0.00    +0.000 A 
ATOM     36  N   UNL     1       7.592   4.588  11.797  0.00  0.00    +0.000 NA
ATOM     37  N   UNL     1       6.612   3.671  11.854  0.00  0.00    +0.000 N 
ATOM     38  C   UNL     1       6.003   3.596  13.075  0.00  0.00    +0.000 A 
ATOM     39  H   UNL     1       6.411   3.131  11.020  0.00  0.00    +0.000 HD
ENDBRANCH  31  34
ENDBRANCH  26  28
ENDBRANCH   5  26
TORSDOF 8
ENDMDL
MODEL 8
REMARK VINA RESULT:      -8.8      2.645     10.519
REMARK  Name = 
REMARK  8 active torsions:
REMARK  status: ('A' for Active; 'I' for Inactive)
REMARK    1  A    between atoms: C_2  and  C_3
REMARK    2  A    between atoms: C_3  and  O_4
REMARK    3  A    between atoms: O_4  and  C_5
REMARK    4  A    between atoms: C_9  and  C_10
REMARK    5  A    between atoms: C_14  and  N_15
REMARK    6  A    between atoms: N_15  and  C_16
REMARK    7  A    between atoms: C_19  and  C_20
REMARK    8  A    between atoms: N_32  and  C_33
REMARK                            x       y       z     vdW  Elec       q    Type
REMARK                         _______ _______ _______ _____ _____    ______ ____
ROOT
ATOM      1  C   UNL     1       1.994   6.657  20.267  0.00  0.00    +0.000 A 
ATOM      2  N   UNL     1       1.138   5.641  20.486  0.00  0.00    +0.000 NA
ATOM      3  C   UNL     1       1.681   4.425  20.359  0.00  0.00    +0.000 A 
ATOM      4  C   UNL     1       2.987   4.175  20.033  0.00  0.00    +0.000 A 
ATOM      5  C   UNL     1       3.800   5.252  19.827  0.00  0.00    +0.000 A 
ATOM      6  N   UNL     1       3.293   6.498  19.935  0.00  0.00    +0.000 NA
ATOM      7  C   UNL     1       3.221   2.721  19.985  0.00  0.00    +0.000 C 
ATOM      8  O   UNL     1       2.017   2.138  20.541  0.00  0.00    +0.000 OA
ATOM      9  C   UNL     1       0.958   3.128  20.499  0.00  0.00    +0.000 C 
ENDROOT
BRANCH   1  14
ATOM     10  C   UNL     1       0.807  10.170  19.396  0.00  0.00    +0.000 A 
ATOM     11  C   UNL     1       0.604  10.704  20.671  0.00  0.00    +0.000 A 
ATOM     12  C   UNL     1       0.814   9.924  21.802  0.00  0.00    +0.000 A 
ATOM     13  C   UNL     1       1.252   8.607  21.667  0.00  0.00    +0.000 A 
ATOM     14  C   UNL     1       1.499   8.042  20.402  0.00  0.00    +0.000 A 
ATOM     15  C   UNL     1       1.265   8.855  19.268  0.00  0.00    +0.000 A 
BRANCH  10  16
ATOM     16  O   UNL     1       0.563  11.031  18.365  0.00  0.00    +0.000 OA
BRANCH  16  17
ATOM     17  C   UNL     1      -0.525  11.941  18.556  0.00  0.00    +0.000 C 
BRANCH  17  19
ATOM     18  O   UNL     1      -1.857  10.363  17.289  0.00  0.00    +0.000 OA
ATOM     19  C   UNL     1      -1.836  11.317  18.063  0.00  0.00    +0.000 C 
ATOM     20  N   UNL     1      -2.977  11.907  18.570  0.00  0.00    +0.000 N 
ATOM     21  H   UNL     1      -2.817  12.686  19.202  0.00  0.00    +0.000 HD
BRANCH  20  22
ATOM     22  C   UNL     1      -4.332  11.433  18.265  0.00  0.00    +0.000 C 
ATOM     23  C   UNL     1      -5.463  12.303  18.871  0.00  0.00    +0.000 C 
ATOM     24  C   UNL     1      -6.243  12.063  17.563  0.00  0.00    +0.000 C 
ATOM     25  C   UNL     1      -4.875  11.857  16.879  0.00  0.00    +0.000 C 
ENDBRANCH  20  22
ENDBRANCH  17  19
ENDBRANCH  16  17
ENDBRANCH  10  16
ENDBRANCH   1  14
BRANCH   5  26
ATOM     26  N   UNL     1       5.144   5.100  19.417  0.00  0.00    +0.000 N 
ATOM     27  H   UNL     1       5.697   5.909  19.681  0.00  0.00    +0.000 HD
BRANCH  26  28
ATOM     28  C   UNL     1       5.487   4.780  18.075  0.00  0.00    +0.000 A 
ATOM     29  C   UNL     1       4.507   4.700  17.078  0.00  0.00    +0.000 A 
ATOM     30  C   UNL     1       4.858   4.501  15.743  0.00  0.00    +0.000 A 
ATOM     31  C   UNL     1       6.201   4.408  15.370  0.00  0.00    +0.000 A 
ATOM     32  C   UNL     1       7.186   4.491  16.362  0.00  0.00    +0.000 A 
ATOM     33  C   UNL     1       6.831   4.699  17.702  0.00  0.00    +0.000 A 
BRANCH  31  34
ATOM     34  C   UNL     1       6.537   4.294  13.965  0.00  0.00    +0.000 A 
ATOM     35  C   UNL     1       5.976   3.466  12.963  0.00  0.00    +0.000 A 
ATOM     36  N   UNL     1       6.545   3.639  11.770  0.00  0.00    +0.000 NA
ATOM     37  N   UNL     1       7.479   4.575  12.004  0.00  0.00    +0.000 N 
ATOM     38  C   UNL     1       7.514   5.001  13.302  0.00  0.00    +0.000 A 
ATOM     39  H   UNL     1       8.059   4.879  11.230  0.00  0.00    +0.000 HD
ENDBRANCH  31  34
ENDBRANCH  26  28
ENDBRANCH   5  26
TORSDOF 8
ENDMDL
MODEL 9
REMARK VINA RESULT:      -8.8      3.564     11.257
REMARK  Name = 
REMARK  8 active torsions:
REMARK  status: ('A' for Active; 'I' for Inactive)
REMARK    1  A    between atoms: C_2  and  C_3
REMARK    2  A    between atoms: C_3  and  O_4
REMARK    3  A    between atoms: O_4  and  C_5
REMARK    4  A    between atoms: C_9  and  C_10
REMARK    5  A    between atoms: C_14  and  N_15
REMARK    6  A    between atoms: N_15  and  C_16
REMARK    7  A    between atoms: C_19  and  C_20
REMARK    8  A    between atoms: N_32  and  C_33
REMARK                            x       y       z     vdW  Elec       q    Type
REMARK                         _______ _______ _______ _____ _____    ______ ____
ROOT
ATOM      1  C   UNL     1       2.331   6.490  19.884  0.00  0.00    +0.000 A 
ATOM      2  N   UNL     1       1.437   5.638  20.419  0.00  0.00    +0.000 NA
ATOM      3  C   UNL     1       1.912   4.406  20.638  0.00  0.00    +0.000 A 
ATOM      4  C   UNL     1       3.186   3.991  20.359  0.00  0.00    +0.000 A 
ATOM      5  C   UNL     1       4.041   4.910  19.819  0.00  0.00    +0.000 A 
ATOM      6  N   UNL     1       3.603   6.162  19.573  0.00  0.00    +0.000 NA
ATOM      7  C   UNL     1       3.344   2.575  20.732  0.00  0.00    +0.000 C 
ATOM      8  O   UNL     1       2.141   2.255  21.472  0.00  0.00    +0.000 OA
ATOM      9  C   UNL     1       1.132   3.253  21.175  0.00  0.00    +0.000 C 
ENDROOT
BRANCH   1  14
ATOM     10  C   UNL     1       1.150  10.071  20.426  0.00  0.00    +0.000 A 
ATOM     11  C   UNL     1       1.063  10.523  19.108  0.00  0.00    +0.000 A 
ATOM     12  C   UNL     1       1.419   9.690  18.053  0.00  0.00    +0.000 A 
ATOM     13  C   UNL     1       1.842   8.386  18.309  0.00  0.00    +0.000 A 
ATOM     14  C   UNL     1       1.913   7.882  19.622  0.00  0.00    +0.000 A 
ATOM     15  C   UNL     1       1.557   8.756  20.675  0.00  0.00    +0.000 A 
BRANCH  10  16
ATOM     16  O   UNL     1       0.780  10.982  21.373  0.00  0.00    +0.000 OA
BRANCH  16  17
ATOM     17  C   UNL     1      -0.345  10.621  22.181  0.00  0.00    +0.000 C 
BRANCH  17  19
ATOM     18  O   UNL     1      -0.560  12.707  23.394  0.00  0.00    +0.000 OA
ATOM     19  C   UNL     1      -1.085  11.876  22.657  0.00  0.00    +0.000 C 
ATOM     20  N   UNL     1      -2.376  11.995  22.179  0.00  0.00    +0.000 N 
ATOM     21  H   UNL     1      -2.685  11.238  21.576  0.00  0.00    +0.000 HD
BRANCH  20  22
ATOM     22  C   UNL     1      -3.240  13.143  22.473  0.00  0.00    +0.000 C 
ATOM     23  C   UNL     1      -4.747  12.891  22.208  0.00  0.00    +0.000 C 
ATOM     24  C   UNL     1      -5.029  13.721  23.477  0.00  0.00    +0.000 C 
ATOM     25  C   UNL     1      -3.624  13.308  23.963  0.00  0.00    +0.000 C 
ENDBRANCH  20  22
ENDBRANCH  17  19
ENDBRANCH  16  17
ENDBRANCH  10  16
ENDBRANCH   1  14
BRANCH   5  26
ATOM     26  N   UNL     1       5.355   4.561  19.430  0.00  0.00    +0.000 N 
ATOM     27  H   UNL     1       6.032   5.205  19.826  0.00  0.00    +0.000 HD
BRANCH  26  28
ATOM     28  C   UNL     1       5.707   4.371  18.067  0.00  0.00    +0.000 A 
ATOM     29  C   UNL     1       4.740   4.042  17.109  0.00  0.00    +0.000 A 
ATOM     30  C   UNL     1       5.067   3.970  15.756  0.00  0.00    +0.000 A 
ATOM     31  C   UNL     1       6.365   4.256  15.325  0.00  0.00    +0.000 A 
ATOM     32  C   UNL     1       7.336   4.590  16.277  0.00  0.00    +0.000 A 
ATOM     33  C   UNL     1       7.003   4.670  17.637  0.00  0.00    +0.000 A 
BRANCH  31  34
ATOM     34  C   UNL     1       6.652   4.263  13.904  0.00  0.00    +0.000 A 
ATOM     35  C   UNL     1       7.567   5.053  13.167  0.00  0.00    +0.000 A 
ATOM     36  N   UNL     1       7.558   4.775  11.864  0.00  0.00    +0.000 NA
ATOM     37  N   UNL     1       6.632   3.808  11.758  0.00  0.00    +0.000 N 
ATOM     38  C   UNL     1       6.061   3.464  12.951  0.00  0.00    +0.000 A 
ATOM     39  H   UNL     1       6.440   3.426  10.839  0.00  0.00    +0.000 HD
ENDBRANCH  31  34
ENDBRANCH  26  28
ENDBRANCH   5  26
TORSDOF 8
ENDMDL
