MODEL 1
REMARK VINA RESULT:      -7.5      0.000      0.000
REMARK  Name = 
REMARK  4 active torsions:
REMARK  status: ('A' for Active; 'I' for Inactive)
REMARK    1  A    between atoms: C_1  and  O_2
REMARK    2  A    between atoms: O_2  and  C_3
REMARK    3  A    between atoms: C_19  and  O_20
REMARK    4  A    between atoms: O_20  and  C_21
REMARK                            x       y       z     vdW  Elec       q    Type
REMARK                         _______ _______ _______ _____ _____    ______ ____
ROOT
ATOM      1  C   UNL     1       6.317   5.025  16.266  0.00  0.00    +0.000 A 
ATOM      2  C   UNL     1       5.192   4.237  16.561  0.00  0.00    +0.000 A 
ATOM      3  C   UNL     1       4.077   4.738  17.213  0.00  0.00    +0.000 A 
ATOM      4  N   UNL     1       3.029   3.929  17.385  0.00  0.00    +0.000 NA
ATOM      5  C   UNL     1       1.964   4.454  17.991  0.00  0.00    +0.000 A 
ATOM      6  N   UNL     1       1.856   5.706  18.434  0.00  0.00    +0.000 NA
ATOM      7  C   UNL     1       2.915   6.517  18.247  0.00  0.00    +0.000 A 
ATOM      8  N   UNL     1       2.812   7.870  18.654  0.00  0.00    +0.000 N 
ATOM      9  C   UNL     1       1.790   8.355  19.486  0.00  0.00    +0.000 A 
ATOM     10  C   UNL     1       1.467   7.693  20.669  0.00  0.00    +0.000 A 
ATOM     11  C   UNL     1       0.425   8.163  21.459  0.00  0.00    +0.000 A 
ATOM     12  C   UNL     1      -0.261   9.297  21.053  0.00  0.00    +0.000 A 
ATOM     13  C   UNL     1       0.146   9.922  19.886  0.00  0.00    +0.000 A 
ATOM     14  N   UNL     1       1.163   9.488  19.105  0.00  0.00    +0.000 NA
ATOM     15  C   UNL     1       4.095   6.066  17.637  0.00  0.00    +0.000 A 
ATOM     16  C   UNL     1       5.263   6.838  17.442  0.00  0.00    +0.000 A 
ATOM     17  C   UNL     1       6.372   6.335  16.751  0.00  0.00    +0.000 A 
ATOM     18  H   UNL     1       2.867   8.487  17.849  0.00  0.00    +0.000 HD
ENDROOT
BRANCH   1  20
ATOM     19  C   UNL     1       7.285   4.746  14.124  0.00  0.00    +0.000 C 
ATOM     20  O   UNL     1       7.359   4.516  15.534  0.00  0.00    +0.000 OA
ENDBRANCH   1  20
BRANCH  17  21
ATOM     21  O   UNL     1       7.361   7.269  16.641  0.00  0.00    +0.000 OA
ATOM     22  C   UNL     1       7.881   7.901  17.799  0.00  0.00    +0.000 C 
ENDBRANCH  17  21
TORSDOF 2
ENDMDL
MODEL 2
REMARK VINA RESULT:      -7.2      3.371      4.712
REMARK  Name = 
REMARK  4 active torsions:
REMARK  status: ('A' for Active; 'I' for Inactive)
REMARK    1  A    between atoms: C_1  and  O_2
REMARK    2  A    between atoms: O_2  and  C_3
REMARK    3  A    between atoms: C_19  and  O_20
REMARK    4  A    between atoms: O_20  and  C_21
REMARK                            x       y       z     vdW  Elec       q    Type
REMARK                         _______ _______ _______ _____ _____    ______ ____
ROOT
ATOM      1  C   UNL     1       6.985   4.709  13.969  0.00  0.00    +0.000 A 
ATOM      2  C   UNL     1       7.568   5.090  15.190  0.00  0.00    +0.000 A 
ATOM      3  C   UNL     1       6.939   4.904  16.410  0.00  0.00    +0.000 A 
ATOM      4  N   UNL     1       7.605   5.233  17.520  0.00  0.00    +0.000 NA
ATOM      5  C   UNL     1       6.980   5.014  18.677  0.00  0.00    +0.000 A 
ATOM      6  N   UNL     1       5.759   4.498  18.819  0.00  0.00    +0.000 NA
ATOM      7  C   UNL     1       5.100   4.160  17.694  0.00  0.00    +0.000 A 
ATOM      8  N   UNL     1       3.825   3.556  17.813  0.00  0.00    +0.000 N 
ATOM      9  C   UNL     1       3.082   3.536  19.004  0.00  0.00    +0.000 A 
ATOM     10  C   UNL     1       2.896   4.703  19.741  0.00  0.00    +0.000 A 
ATOM     11  C   UNL     1       2.194   4.657  20.939  0.00  0.00    +0.000 A 
ATOM     12  C   UNL     1       1.681   3.443  21.366  0.00  0.00    +0.000 A 
ATOM     13  C   UNL     1       1.874   2.333  20.558  0.00  0.00    +0.000 A 
ATOM     14  N   UNL     1       2.546   2.356  19.382  0.00  0.00    +0.000 NA
ATOM     15  C   UNL     1       5.655   4.363  16.422  0.00  0.00    +0.000 A 
ATOM     16  C   UNL     1       5.014   4.077  15.194  0.00  0.00    +0.000 A 
ATOM     17  C   UNL     1       5.670   4.234  13.967  0.00  0.00    +0.000 A 
ATOM     18  H   UNL     1       3.849   2.606  17.454  0.00  0.00    +0.000 HD
ENDROOT
BRANCH   1  20
ATOM     19  C   UNL     1       8.580   5.931  12.719  0.00  0.00    +0.000 C 
ATOM     20  O   UNL     1       7.679   4.822  12.793  0.00  0.00    +0.000 OA
ENDBRANCH   1  20
BRANCH  17  21
ATOM     21  O   UNL     1       4.878   3.852  12.923  0.00  0.00    +0.000 OA
ATOM     22  C   UNL     1       5.315   2.850  12.021  0.00  0.00    +0.000 C 
ENDBRANCH  17  21
TORSDOF 2
ENDMDL
MODEL 3
REMARK VINA RESULT:      -7.1      3.058      4.483
REMARK  Name = 
REMARK  4 active torsions:
REMARK  status: ('A' for Active; 'I' for Inactive)
REMARK    1  A    between atoms: C_1  and  O_2
REMARK    2  A    between atoms: O_2  and  C_3
REMARK    3  A    between atoms: C_19  and  O_20
REMARK    4  A    between atoms: O_20  and  C_21
REMARK                            x       y       z     vdW  Elec       q    Type
REMARK                         _______ _______ _______ _____ _____    ______ ____
ROOT
ATOM      1  C   UNL     1       3.443   4.123  19.569  0.00  0.00    +0.000 A 
ATOM      2  C   UNL     1       3.599   5.062  18.535  0.00  0.00    +0.000 A 
ATOM      3  C   UNL     1       3.059   6.336  18.593  0.00  0.00    +0.000 A 
ATOM      4  N   UNL     1       3.322   7.180  17.593  0.00  0.00    +0.000 NA
ATOM      5  C   UNL     1       2.810   8.406  17.697  0.00  0.00    +0.000 A 
ATOM      6  N   UNL     1       2.064   8.858  18.705  0.00  0.00    +0.000 NA
ATOM      7  C   UNL     1       1.812   8.002  19.714  0.00  0.00    +0.000 A 
ATOM      8  N   UNL     1       1.072   8.468  20.828  0.00  0.00    +0.000 N 
ATOM      9  C   UNL     1       0.349   9.672  20.831  0.00  0.00    +0.000 A 
ATOM     10  C   UNL     1      -0.518   9.980  19.785  0.00  0.00    +0.000 A 
ATOM     11  C   UNL     1      -1.193  11.193  19.784  0.00  0.00    +0.000 A 
ATOM     12  C   UNL     1      -0.996  12.067  20.841  0.00  0.00    +0.000 A 
ATOM     13  C   UNL     1      -0.149  11.673  21.864  0.00  0.00    +0.000 A 
ATOM     14  N   UNL     1       0.512  10.492  21.892  0.00  0.00    +0.000 NA
ATOM     15  C   UNL     1       2.287   6.682  19.701  0.00  0.00    +0.000 A 
ATOM     16  C   UNL     1       2.032   5.711  20.696  0.00  0.00    +0.000 A 
ATOM     17  C   UNL     1       2.611   4.436  20.648  0.00  0.00    +0.000 A 
ATOM     18  H   UNL     1       1.647   8.457  21.665  0.00  0.00    +0.000 HD
ENDROOT
BRANCH   1  20
ATOM     19  C   UNL     1       3.524   1.974  18.580  0.00  0.00    +0.000 C 
ATOM     20  O   UNL     1       4.073   2.907  19.515  0.00  0.00    +0.000 OA
ENDBRANCH   1  20
BRANCH  17  21
ATOM     21  O   UNL     1       2.265   3.686  21.735  0.00  0.00    +0.000 OA
ATOM     22  C   UNL     1       1.351   2.611  21.601  0.00  0.00    +0.000 C 
ENDBRANCH  17  21
TORSDOF 2
ENDMDL
MODEL 4
REMARK VINA RESULT:      -7.0      1.294      1.379
REMARK  Name = 
REMARK  4 active torsions:
REMARK  status: ('A' for Active; 'I' for Inactive)
REMARK    1  A    between atoms: C_1  and  O_2
REMARK    2  A    between atoms: O_2  and  C_3
REMARK    3  A    between atoms: C_19  and  O_20
REMARK    4  A    between atoms: O_20  and  C_21
REMARK                            x       y       z     vdW  Elec       q    Type
REMARK                         _______ _______ _______ _____ _____    ______ ____
ROOT
ATOM      1  C   UNL     1       5.495   4.714  17.253  0.00  0.00    +0.000 A 
ATOM      2  C   UNL     1       4.582   4.014  18.060  0.00  0.00    +0.000 A 
ATOM      3  C   UNL     1       3.578   4.645  18.775  0.00  0.00    +0.000 A 
ATOM      4  N   UNL     1       2.716   3.887  19.457  0.00  0.00    +0.000 NA
ATOM      5  C   UNL     1       1.745   4.528  20.109  0.00  0.00    +0.000 A 
ATOM      6  N   UNL     1       1.562   5.847  20.137  0.00  0.00    +0.000 NA
ATOM      7  C   UNL     1       2.431   6.603  19.438  0.00  0.00    +0.000 A 
ATOM      8  N   UNL     1       2.231   8.004  19.400  0.00  0.00    +0.000 N 
ATOM      9  C   UNL     1       1.357   8.688  20.261  0.00  0.00    +0.000 A 
ATOM     10  C   UNL     1       1.394   8.460  21.634  0.00  0.00    +0.000 A 
ATOM     11  C   UNL     1       0.494   9.113  22.466  0.00  0.00    +0.000 A 
ATOM     12  C   UNL     1      -0.415   9.994  21.904  0.00  0.00    +0.000 A 
ATOM     13  C   UNL     1      -0.364  10.199  20.535  0.00  0.00    +0.000 A 
ATOM     14  N   UNL     1       0.510   9.581  19.705  0.00  0.00    +0.000 NA
ATOM     15  C   UNL     1       3.501   6.037  18.729  0.00  0.00    +0.000 A 
ATOM     16  C   UNL     1       4.479   6.759  18.008  0.00  0.00    +0.000 A 
ATOM     17  C   UNL     1       5.470   6.113  17.259  0.00  0.00    +0.000 A 
ATOM     18  H   UNL     1       2.022   8.306  18.453  0.00  0.00    +0.000 HD
ENDROOT
BRANCH   1  20
ATOM     19  C   UNL     1       6.000   3.761  15.147  0.00  0.00    +0.000 C 
ATOM     20  O   UNL     1       6.413   4.045  16.487  0.00  0.00    +0.000 OA
ENDBRANCH   1  20
BRANCH  17  21
ATOM     21  O   UNL     1       6.271   7.007  16.609  0.00  0.00    +0.000 OA
ATOM     22  C   UNL     1       7.390   7.575  17.266  0.00  0.00    +0.000 C 
ENDBRANCH  17  21
TORSDOF 2
ENDMDL
MODEL 5
REMARK VINA RESULT:      -6.8      3.409      7.271
REMARK  Name = 
REMARK  4 active torsions:
REMARK  status: ('A' for Active; 'I' for Inactive)
REMARK    1  A    between atoms: C_1  and  O_2
REMARK    2  A    between atoms: O_2  and  C_3
REMARK    3  A    between atoms: C_19  and  O_20
REMARK    4  A    between atoms: O_20  and  C_21
REMARK                            x       y       z     vdW  Elec       q    Type
REMARK                         _______ _______ _______ _____ _____    ______ ____
ROOT
ATOM      1  C   UNL     1       3.291   4.528  19.905  0.00  0.00    +0.000 A 
ATOM      2  C   UNL     1       3.451   5.799  19.327  0.00  0.00    +0.000 A 
ATOM      3  C   UNL     1       4.022   5.988  18.080  0.00  0.00    +0.000 A 
ATOM      4  N   UNL     1       4.066   7.228  17.586  0.00  0.00    +0.000 NA
ATOM      5  C   UNL     1       4.596   7.367  16.371  0.00  0.00    +0.000 A 
ATOM      6  N   UNL     1       5.081   6.384  15.613  0.00  0.00    +0.000 NA
ATOM      7  C   UNL     1       5.024   5.136  16.116  0.00  0.00    +0.000 A 
ATOM      8  N   UNL     1       5.477   4.062  15.312  0.00  0.00    +0.000 N 
ATOM      9  C   UNL     1       6.235   4.232  14.142  0.00  0.00    +0.000 A 
ATOM     10  C   UNL     1       7.354   5.061  14.139  0.00  0.00    +0.000 A 
ATOM     11  C   UNL     1       8.067   5.251  12.962  0.00  0.00    +0.000 A 
ATOM     12  C   UNL     1       7.651   4.594  11.816  0.00  0.00    +0.000 A 
ATOM     13  C   UNL     1       6.552   3.755  11.908  0.00  0.00    +0.000 A 
ATOM     14  N   UNL     1       5.847   3.547  13.046  0.00  0.00    +0.000 NA
ATOM     15  C   UNL     1       4.502   4.875  17.391  0.00  0.00    +0.000 A 
ATOM     16  C   UNL     1       4.445   3.604  18.008  0.00  0.00    +0.000 A 
ATOM     17  C   UNL     1       3.835   3.416  19.254  0.00  0.00    +0.000 A 
ATOM     18  H   UNL     1       4.707   3.438  15.087  0.00  0.00    +0.000 HD
ENDROOT
BRANCH   1  20
ATOM     19  C   UNL     1       1.358   3.736  21.016  0.00  0.00    +0.000 C 
ATOM     20  O   UNL     1       2.635   4.376  21.098  0.00  0.00    +0.000 OA
ENDBRANCH   1  20
BRANCH  17  21
ATOM     21  O   UNL     1       3.854   2.104  19.630  0.00  0.00    +0.000 OA
ATOM     22  C   UNL     1       3.673   1.080  18.666  0.00  0.00    +0.000 C 
ENDBRANCH  17  21
TORSDOF 2
ENDMDL
MODEL 6
REMARK VINA RESULT:      -6.7      4.247      7.283
REMARK  Name = 
REMARK  4 active torsions:
REMARK  status: ('A' for Active; 'I' for Inactive)
REMARK    1  A    between atoms: C_1  and  O_2
REMARK    2  A    between atoms: O_2  and  C_3
REMARK    3  A    between atoms: C_19  and  O_20
REMARK    4  A    between atoms: O_20  and  C_21
REMARK                            x       y       z     vdW  Elec       q    Type
REMARK                         _______ _______ _______ _____ _____    ______ ____
ROOT
ATOM      1  C   UNL     1       0.598  11.080  20.526  0.00  0.00    +0.000 A 
ATOM      2  C   UNL     1       1.067  10.770  19.238  0.00  0.00    +0.000 A 
ATOM      3  C   UNL     1       1.566   9.522  18.904  0.00  0.00    +0.000 A 
ATOM      4  N   UNL     1       1.922   9.304  17.635  0.00  0.00    +0.000 NA
ATOM      5  C   UNL     1       2.371   8.082  17.344  0.00  0.00    +0.000 A 
ATOM      6  N   UNL     1       2.493   7.070  18.202  0.00  0.00    +0.000 NA
ATOM      7  C   UNL     1       2.123   7.298  19.477  0.00  0.00    +0.000 A 
ATOM      8  N   UNL     1       2.185   6.227  20.401  0.00  0.00    +0.000 N 
ATOM      9  C   UNL     1       2.864   5.023  20.151  0.00  0.00    +0.000 A 
ATOM     10  C   UNL     1       4.169   5.035  19.665  0.00  0.00    +0.000 A 
ATOM     11  C   UNL     1       4.811   3.836  19.384  0.00  0.00    +0.000 A 
ATOM     12  C   UNL     1       4.134   2.648  19.610  0.00  0.00    +0.000 A 
ATOM     13  C   UNL     1       2.852   2.717  20.132  0.00  0.00    +0.000 A 
ATOM     14  N   UNL     1       2.211   3.873  20.423  0.00  0.00    +0.000 NA
ATOM     15  C   UNL     1       1.652   8.550  19.899  0.00  0.00    +0.000 A 
ATOM     16  C   UNL     1       1.285   8.883  21.223  0.00  0.00    +0.000 A 
ATOM     17  C   UNL     1       0.747  10.135  21.546  0.00  0.00    +0.000 A 
ATOM     18  H   UNL     1       1.254   5.988  20.730  0.00  0.00    +0.000 HD
ENDROOT
BRANCH   1  20
ATOM     19  C   UNL     1      -1.314  12.457  20.307  0.00  0.00    +0.000 C 
ATOM     20  O   UNL     1       0.023  12.296  20.791  0.00  0.00    +0.000 OA
ENDBRANCH   1  20
BRANCH  17  21
ATOM     21  O   UNL     1       0.421  10.215  22.869  0.00  0.00    +0.000 OA
ATOM     22  C   UNL     1      -0.936  10.188  23.275  0.00  0.00    +0.000 C 
ENDBRANCH  17  21
TORSDOF 2
ENDMDL
MODEL 7
REMARK VINA RESULT:      -6.6      3.086      6.724
REMARK  Name = 
REMARK  4 active torsions:
REMARK  status: ('A' for Active; 'I' for Inactive)
REMARK    1  A    between atoms: C_1  and  O_2
REMARK    2  A    between atoms: O_2  and  C_3
REMARK    3  A    between atoms: C_19  and  O_20
REMARK    4  A    between atoms: O_20  and  C_21
REMARK                            x       y       z     vdW  Elec       q    Type
REMARK                         _______ _______ _______ _____ _____    ______ ____
ROOT
ATOM      1  C   UNL     1       1.602   7.395  20.349  0.00  0.00    +0.000 A 
ATOM      2  C   UNL     1       1.931   6.034  20.466  0.00  0.00    +0.000 A 
ATOM      3  C   UNL     1       2.776   5.388  19.578  0.00  0.00    +0.000 A 
ATOM      4  N   UNL     1       3.084   4.111  19.814  0.00  0.00    +0.000 NA
ATOM      5  C   UNL     1       3.923   3.531  18.954  0.00  0.00    +0.000 A 
ATOM      6  N   UNL     1       4.474   4.113  17.890  0.00  0.00    +0.000 NA
ATOM      7  C   UNL     1       4.164   5.404  17.665  0.00  0.00    +0.000 A 
ATOM      8  N   UNL     1       4.779   6.068  16.576  0.00  0.00    +0.000 N 
ATOM      9  C   UNL     1       5.473   5.403  15.552  0.00  0.00    +0.000 A 
ATOM     10  C   UNL     1       4.906   4.304  14.911  0.00  0.00    +0.000 A 
ATOM     11  C   UNL     1       5.624   3.632  13.931  0.00  0.00    +0.000 A 
ATOM     12  C   UNL     1       6.891   4.087  13.602  0.00  0.00    +0.000 A 
ATOM     13  C   UNL     1       7.370   5.211  14.255  0.00  0.00    +0.000 A 
ATOM     14  N   UNL     1       6.685   5.887  15.208  0.00  0.00    +0.000 NA
ATOM     15  C   UNL     1       3.280   6.108  18.496  0.00  0.00    +0.000 A 
ATOM     16  C   UNL     1       2.869   7.448  18.306  0.00  0.00    +0.000 A 
ATOM     17  C   UNL     1       2.044   8.104  19.228  0.00  0.00    +0.000 A 
ATOM     18  H   UNL     1       5.376   6.819  16.910  0.00  0.00    +0.000 HD
ENDROOT
BRANCH   1  20
ATOM     19  C   UNL     1       1.521   9.013  22.074  0.00  0.00    +0.000 C 
ATOM     20  O   UNL     1       0.840   8.018  21.303  0.00  0.00    +0.000 OA
ENDBRANCH   1  20
BRANCH  17  21
ATOM     21  O   UNL     1       1.820   9.401  18.866  0.00  0.00    +0.000 OA
ATOM     22  C   UNL     1       0.633   9.758  18.179  0.00  0.00    +0.000 C 
ENDBRANCH  17  21
TORSDOF 2
ENDMDL
MODEL 8
REMARK VINA RESULT:      -6.5      2.867      4.652
REMARK  Name = 
REMARK  4 active torsions:
REMARK  status: ('A' for Active; 'I' for Inactive)
REMARK    1  A    between atoms: C_1  and  O_2
REMARK    2  A    between atoms: O_2  and  C_3
REMARK    3  A    between atoms: C_19  and  O_20
REMARK    4  A    between atoms: O_20  and  C_21
REMARK                            x       y       z     vdW  Elec       q    Type
REMARK                         _______ _______ _______ _____ _____    ______ ____
ROOT
ATOM      1  C   UNL     1       3.143   5.227  19.089  0.00  0.00    +0.000 A 
ATOM      2  C   UNL     1       3.161   6.272  18.150  0.00  0.00    +0.000 A 
ATOM      3  C   UNL     1       2.557   7.497  18.381  0.00  0.00    +0.000 A 
ATOM      4  N   UNL     1       2.689   8.451  17.457  0.00  0.00    +0.000 NA
ATOM      5  C   UNL     1       2.120   9.626  17.727  0.00  0.00    +0.000 A 
ATOM      6  N   UNL     1       1.436   9.927  18.831  0.00  0.00    +0.000 NA
ATOM      7  C   UNL     1       1.316   8.960  19.762  0.00  0.00    +0.000 A 
ATOM      8  N   UNL     1       0.646   9.265  20.971  0.00  0.00    +0.000 N 
ATOM      9  C   UNL     1      -0.140  10.414  21.156  0.00  0.00    +0.000 A 
ATOM     10  C   UNL     1      -1.106  10.769  20.217  0.00  0.00    +0.000 A 
ATOM     11  C   UNL     1      -1.845  11.931  20.394  0.00  0.00    +0.000 A 
ATOM     12  C   UNL     1      -1.611  12.706  21.518  0.00  0.00    +0.000 A 
ATOM     13  C   UNL     1      -0.661  12.267  22.427  0.00  0.00    +0.000 A 
ATOM     14  N   UNL     1       0.065  11.133  22.280  0.00  0.00    +0.000 NA
ATOM     15  C   UNL     1       1.861   7.681  19.575  0.00  0.00    +0.000 A 
ATOM     16  C   UNL     1       1.744   6.602  20.480  0.00  0.00    +0.000 A 
ATOM     17  C   UNL     1       2.387   5.378  20.255  0.00  0.00    +0.000 A 
ATOM     18  H   UNL     1       1.289   9.208  21.756  0.00  0.00    +0.000 HD
ENDROOT
BRANCH   1  20
ATOM     19  C   UNL     1       4.127   3.788  17.488  0.00  0.00    +0.000 C 
ATOM     20  O   UNL     1       3.834   4.065  18.861  0.00  0.00    +0.000 OA
ENDBRANCH   1  20
BRANCH  17  21
ATOM     21  O   UNL     1       2.174   4.503  21.281  0.00  0.00    +0.000 OA
ATOM     22  C   UNL     1       1.357   3.361  21.090  0.00  0.00    +0.000 C 
ENDBRANCH  17  21
TORSDOF 2
ENDMDL
MODEL 9
REMARK VINA RESULT:      -6.5      3.127      6.803
REMARK  Name = 
REMARK  4 active torsions:
REMARK  status: ('A' for Active; 'I' for Inactive)
REMARK    1  A    between atoms: C_1  and  O_2
REMARK    2  A    between atoms: O_2  and  C_3
REMARK    3  A    between atoms: C_19  and  O_20
REMARK    4  A    between atoms: O_20  and  C_21
REMARK                            x       y       z     vdW  Elec       q    Type
REMARK                         _______ _______ _______ _____ _____    ______ ____
ROOT
ATOM      1  C   UNL     1       0.724   8.847  20.380  0.00  0.00    +0.000 A 
ATOM      2  C   UNL     1       1.058   7.568  20.857  0.00  0.00    +0.000 A 
ATOM      3  C   UNL     1       1.985   6.754  20.228  0.00  0.00    +0.000 A 
ATOM      4  N   UNL     1       2.287   5.584  20.797  0.00  0.00    +0.000 NA
ATOM      5  C   UNL     1       3.205   4.840  20.180  0.00  0.00    +0.000 A 
ATOM      6  N   UNL     1       3.842   5.161  19.054  0.00  0.00    +0.000 NA
ATOM      7  C   UNL     1       3.538   6.347  18.493  0.00  0.00    +0.000 A 
ATOM      8  N   UNL     1       4.239   6.744  17.328  0.00  0.00    +0.000 N 
ATOM      9  C   UNL     1       5.029   5.873  16.562  0.00  0.00    +0.000 A 
ATOM     10  C   UNL     1       4.534   4.631  16.167  0.00  0.00    +0.000 A 
ATOM     11  C   UNL     1       5.345   3.765  15.446  0.00  0.00    +0.000 A 
ATOM     12  C   UNL     1       6.630   4.167  15.121  0.00  0.00    +0.000 A 
ATOM     13  C   UNL     1       7.036   5.432  15.514  0.00  0.00    +0.000 A 
ATOM     14  N   UNL     1       6.261   6.298  16.210  0.00  0.00    +0.000 NA
ATOM     15  C   UNL     1       2.575   7.203  19.047  0.00  0.00    +0.000 A 
ATOM     16  C   UNL     1       2.167   8.441  18.500  0.00  0.00    +0.000 A 
ATOM     17  C   UNL     1       1.255   9.274  19.159  0.00  0.00    +0.000 A 
ATOM     18  H   UNL     1       4.795   7.573  17.516  0.00  0.00    +0.000 HD
ENDROOT
BRANCH   1  20
ATOM     19  C   UNL     1       0.104   9.709  22.495  0.00  0.00    +0.000 C 
ATOM     20  O   UNL     1      -0.127   9.660  21.084  0.00  0.00    +0.000 OA
ENDBRANCH   1  20
BRANCH  17  21
ATOM     21  O   UNL     1       1.049  10.435  18.472  0.00  0.00    +0.000 OA
ATOM     22  C   UNL     1       1.477  11.674  19.012  0.00  0.00    +0.000 C 
ENDBRANCH  17  21
TORSDOF 2
ENDMDL
