MODEL 1
REMARK VINA RESULT:      -7.5      0.000      0.000
REMARK  Name = 
REMARK  9 active torsions:
REMARK  status: ('A' for Active; 'I' for Inactive)
REMARK    1  A    between atoms: C_1  and  C_2
REMARK    2  A    between atoms: C_2  and  C_3
REMARK    3  A    between atoms: C_3  and  C_4
REMARK    4  A    between atoms: C_4  and  N_5
REMARK    5  A    between atoms: N_5  and  C_6
REMARK    6  A    between atoms: C_7  and  C_9
REMARK    7  A    between atoms: C_9  and  C_10
REMARK    8  A    between atoms: C_14  and  O_15
REMARK    9  A    between atoms: C_22  and  C_23
REMARK                            x       y       z     vdW  Elec       q    Type
REMARK                         _______ _______ _______ _____ _____    ______ ____
ROOT
ATOM      1  C   UNL     1       2.281   6.257  20.018  0.00  0.00    +0.000 C 
ATOM      2  C   UNL     1       1.576   7.337  20.864  0.00  0.00    +0.000 C 
ATOM      3  C   UNL     1       1.259   8.613  20.130  0.00  0.00    +0.000 A 
ATOM      4  C   UNL     1       0.503   9.585  20.813  0.00  0.00    +0.000 A 
ATOM      5  C   UNL     1       0.189  10.789  20.198  0.00  0.00    +0.000 A 
ATOM      6  C   UNL     1       0.593  11.036  18.899  0.00  0.00    +0.000 A 
ATOM      7  C   UNL     1       1.353  10.083  18.218  0.00  0.00    +0.000 A 
ATOM      8  C   UNL     1       1.736   8.875  18.832  0.00  0.00    +0.000 A 
ATOM      9  C   UNL     1       2.597   7.841  18.106  0.00  0.00    +0.000 C 
ATOM     10  C   UNL     1       3.514   8.455  17.027  0.00  0.00    +0.000 C 
ATOM     11  C   UNL     1       4.346   7.396  16.309  0.00  0.00    +0.000 C 
ATOM     12  C   UNL     1       5.188   6.590  17.298  0.00  0.00    +0.000 C 
ATOM     13  C   UNL     1       6.252   7.567  17.901  0.00  0.00    +0.000 C 
ATOM     14  C   UNL     1       4.286   5.926  18.367  0.00  0.00    +0.000 C 
ATOM     15  C   UNL     1       5.327   5.076  19.119  0.00  0.00    +0.000 C 
ATOM     16  C   UNL     1       6.300   4.571  18.028  0.00  0.00    +0.000 C 
ATOM     17  C   UNL     1       5.903   5.328  16.733  0.00  0.00    +0.000 C 
ATOM     18  C   UNL     1       5.068   4.420  15.824  0.00  0.00    +0.000 C 
ATOM     19  C   UNL     1       6.047   3.928  14.789  0.00  0.00    +0.000 C 
ATOM     20  C   UNL     1       7.107   4.977  14.811  0.00  0.00    +0.000 C 
ATOM     21  O   UNL     1       7.945   5.147  13.941  0.00  0.00    +0.000 OA
ATOM     22  O   UNL     1       7.048   5.695  15.965  0.00  0.00    +0.000 OA
ATOM     23  C   UNL     1       3.378   6.921  19.126  0.00  0.00    +0.000 C 
ENDROOT
BRANCH   5  24
ATOM     24  O   UNL     1      -0.515  11.758  20.847  0.00  0.00    +0.000 OA
ATOM     25  H   UNL     1       0.115  12.412  21.190  0.00  0.00    +0.000 HD
ENDBRANCH   5  24
BRANCH   1  26
ATOM     26  C   UNL     1       2.675   5.068  20.913  0.00  0.00    +0.000 C 
BRANCH  26  29
ATOM     27  N   UNL     1       2.716   2.613  20.481  0.00  0.00    +0.000 N 
ATOM     28  C   UNL     1       4.169   2.651  20.436  0.00  0.00    +0.000 C 
ATOM     29  C   UNL     1       1.942   3.763  20.614  0.00  0.00    +0.000 C 
ATOM     30  O   UNL     1       0.714   3.736  20.500  0.00  0.00    +0.000 OA
BRANCH  27  31
ATOM     31  C   UNL     1       2.041   1.402  19.999  0.00  0.00    +0.000 C 
BRANCH  31  32
ATOM     32  C   UNL     1       1.527   1.483  18.559  0.00  0.00    +0.000 C 
BRANCH  32  34
ATOM     33  C   UNL     1       1.937   3.561  17.210  0.00  0.00    +0.000 C 
ATOM     34  C   UNL     1       2.490   2.202  17.613  0.00  0.00    +0.000 C 
ENDBRANCH  32  34
ENDBRANCH  31  32
ENDBRANCH  27  31
ENDBRANCH  26  29
ENDBRANCH   1  26
TORSDOF 6
ENDMDL
MODEL 2
REMARK VINA RESULT:      -7.1      7.397     10.519
REMARK  Name = 
REMARK  9 active torsions:
REMARK  status: ('A' for Active; 'I' for Inactive)
REMARK    1  A    between atoms: C_1  and  C_2
REMARK    2  A    between atoms: C_2  and  C_3
REMARK    3  A    between atoms: C_3  and  C_4
REMARK    4  A    between atoms: C_4  and  N_5
REMARK    5  A    between atoms: N_5  and  C_6
REMARK    6  A    between atoms: C_7  and  C_9
REMARK    7  A    between atoms: C_9  and  C_10
REMARK    8  A    between atoms: C_14  and  O_15
REMARK    9  A    between atoms: C_22  and  C_23
REMARK                            x       y       z     vdW  Elec       q    Type
REMARK                         _______ _______ _______ _____ _____    ______ ____
ROOT
ATOM      1  C   UNL     1       8.239  13.383  21.750  0.00  0.00    +0.000 C 
ATOM      2  C   UNL     1       8.829  13.115  23.150  0.00  0.00    +0.000 C 
ATOM      3  C   UNL     1       7.815  13.030  24.261  0.00  0.00    +0.000 A 
ATOM      4  C   UNL     1       8.280  12.661  25.537  0.00  0.00    +0.000 A 
ATOM      5  C   UNL     1       7.400  12.577  26.607  0.00  0.00    +0.000 A 
ATOM      6  C   UNL     1       6.053  12.828  26.425  0.00  0.00    +0.000 A 
ATOM      7  C   UNL     1       5.584  13.206  25.165  0.00  0.00    +0.000 A 
ATOM      8  C   UNL     1       6.458  13.354  24.071  0.00  0.00    +0.000 A 
ATOM      9  C   UNL     1       5.960  13.801  22.697  0.00  0.00    +0.000 C 
ATOM     10  C   UNL     1       4.686  14.670  22.759  0.00  0.00    +0.000 C 
ATOM     11  C   UNL     1       4.203  15.084  21.371  0.00  0.00    +0.000 C 
ATOM     12  C   UNL     1       5.296  15.831  20.606  0.00  0.00    +0.000 C 
ATOM     13  C   UNL     1       5.532  17.188  21.348  0.00  0.00    +0.000 C 
ATOM     14  C   UNL     1       6.572  14.961  20.491  0.00  0.00    +0.000 C 
ATOM     15  C   UNL     1       7.431  15.851  19.573  0.00  0.00    +0.000 C 
ATOM     16  C   UNL     1       6.434  16.484  18.575  0.00  0.00    +0.000 C 
ATOM     17  C   UNL     1       5.023  16.104  19.098  0.00  0.00    +0.000 C 
ATOM     18  C   UNL     1       4.455  14.935  18.285  0.00  0.00    +0.000 C 
ATOM     19  C   UNL     1       3.508  15.587  17.310  0.00  0.00    +0.000 C 
ATOM     20  C   UNL     1       3.167  16.872  17.988  0.00  0.00    +0.000 C 
ATOM     21  O   UNL     1       2.217  17.583  17.707  0.00  0.00    +0.000 OA
ATOM     22  O   UNL     1       4.094  17.174  18.936  0.00  0.00    +0.000 OA
ATOM     23  C   UNL     1       7.117  14.465  21.849  0.00  0.00    +0.000 C 
ENDROOT
BRANCH   5  24
ATOM     24  O   UNL     1       7.829  12.252  27.858  0.00  0.00    +0.000 OA
ATOM     25  H   UNL     1       8.369  12.985  28.194  0.00  0.00    +0.000 HD
ENDBRANCH   5  24
BRANCH   1  26
ATOM     26  C   UNL     1       9.377  13.590  20.735  0.00  0.00    +0.000 C 
BRANCH  26  29
ATOM     27  N   UNL     1       9.498  12.088  18.748  0.00  0.00    +0.000 N 
ATOM     28  C   UNL     1       8.502  12.907  18.075  0.00  0.00    +0.000 C 
ATOM     29  C   UNL     1       9.887  12.316  20.066  0.00  0.00    +0.000 C 
ATOM     30  O   UNL     1      10.616  11.528  20.673  0.00  0.00    +0.000 OA
BRANCH  27  31
ATOM     31  C   UNL     1       9.817  10.776  18.172  0.00  0.00    +0.000 C 
BRANCH  31  32
ATOM     32  C   UNL     1       8.959   9.620  18.691  0.00  0.00    +0.000 C 
BRANCH  32  34
ATOM     33  C   UNL     1       7.834   7.549  17.826  0.00  0.00    +0.000 C 
ATOM     34  C   UNL     1       8.013   9.047  17.635  0.00  0.00    +0.000 C 
ENDBRANCH  32  34
ENDBRANCH  31  32
ENDBRANCH  27  31
ENDBRANCH  26  29
ENDBRANCH   1  26
TORSDOF 6
ENDMDL
MODEL 3
REMARK VINA RESULT:      -6.9      4.755     10.534
REMARK  Name = 
REMARK  9 active torsions:
REMARK  status: ('A' for Active; 'I' for Inactive)
REMARK    1  A    between atoms: C_1  and  C_2
REMARK    2  A    between atoms: C_2  and  C_3
REMARK    3  A    between atoms: C_3  and  C_4
REMARK    4  A    between atoms: C_4  and  N_5
REMARK    5  A    between atoms: N_5  and  C_6
REMARK    6  A    between atoms: C_7  and  C_9
REMARK    7  A    between atoms: C_9  and  C_10
REMARK    8  A    between atoms: C_14  and  O_15
REMARK    9  A    between atoms: C_22  and  C_23
REMARK                            x       y       z     vdW  Elec       q    Type
REMARK                         _______ _______ _______ _____ _____    ______ ____
ROOT
ATOM      1  C   UNL     1      -1.372  10.894  18.631  0.00  0.00    +0.000 C 
ATOM      2  C   UNL     1      -0.292  10.127  17.840  0.00  0.00    +0.000 C 
ATOM      3  C   UNL     1       0.586   9.230  18.672  0.00  0.00    +0.000 A 
ATOM      4  C   UNL     1       1.505   8.408  17.991  0.00  0.00    +0.000 A 
ATOM      5  C   UNL     1       2.353   7.568  18.700  0.00  0.00    +0.000 A 
ATOM      6  C   UNL     1       2.286   7.509  20.079  0.00  0.00    +0.000 A 
ATOM      7  C   UNL     1       1.386   8.329  20.764  0.00  0.00    +0.000 A 
ATOM      8  C   UNL     1       0.550   9.232  20.080  0.00  0.00    +0.000 A 
ATOM      9  C   UNL     1      -0.413  10.157  20.822  0.00  0.00    +0.000 C 
ATOM     10  C   UNL     1       0.049  10.504  22.253  0.00  0.00    +0.000 C 
ATOM     11  C   UNL     1      -0.943  11.413  22.974  0.00  0.00    +0.000 C 
ATOM     12  C   UNL     1      -1.182  12.703  22.188  0.00  0.00    +0.000 C 
ATOM     13  C   UNL     1       0.158  13.509  22.207  0.00  0.00    +0.000 C 
ATOM     14  C   UNL     1      -1.690  12.384  20.760  0.00  0.00    +0.000 C 
ATOM     15  C   UNL     1      -1.994  13.805  20.250  0.00  0.00    +0.000 C 
ATOM     16  C   UNL     1      -2.554  14.562  21.477  0.00  0.00    +0.000 C 
ATOM     17  C   UNL     1      -2.343  13.613  22.686  0.00  0.00    +0.000 C 
ATOM     18  C   UNL     1      -3.658  12.909  23.041  0.00  0.00    +0.000 C 
ATOM     19  C   UNL     1      -4.186  13.683  24.221  0.00  0.00    +0.000 C 
ATOM     20  C   UNL     1      -2.955  14.310  24.785  0.00  0.00    +0.000 C 
ATOM     21  O   UNL     1      -2.859  14.784  25.905  0.00  0.00    +0.000 OA
ATOM     22  O   UNL     1      -1.960  14.328  23.859  0.00  0.00    +0.000 OA
ATOM     23  C   UNL     1      -0.764  11.437  19.963  0.00  0.00    +0.000 C 
ENDROOT
BRANCH   5  24
ATOM     24  O   UNL     1       3.271   6.785  18.067  0.00  0.00    +0.000 OA
ATOM     25  H   UNL     1       3.318   7.064  17.139  0.00  0.00    +0.000 HD
ENDBRANCH   5  24
BRANCH   1  26
ATOM     26  C   UNL     1      -2.103  11.877  17.697  0.00  0.00    +0.000 C 
BRANCH  26  29
ATOM     27  N   UNL     1      -4.586  11.725  17.844  0.00  0.00    +0.000 N 
ATOM     28  C   UNL     1      -4.544  12.375  19.144  0.00  0.00    +0.000 C 
ATOM     29  C   UNL     1      -3.434  11.375  17.144  0.00  0.00    +0.000 C 
ATOM     30  O   UNL     1      -3.479  10.692  16.118  0.00  0.00    +0.000 OA
BRANCH  27  31
ATOM     31  C   UNL     1      -5.841  11.083  17.433  0.00  0.00    +0.000 C 
BRANCH  31  32
ATOM     32  C   UNL     1      -6.901  10.982  18.533  0.00  0.00    +0.000 C 
BRANCH  32  34
ATOM     33  C   UNL     1      -7.584   9.715  20.591  0.00  0.00    +0.000 C 
ATOM     34  C   UNL     1      -6.931   9.616  19.220  0.00  0.00    +0.000 C 
ENDBRANCH  32  34
ENDBRANCH  31  32
ENDBRANCH  27  31
ENDBRANCH  26  29
ENDBRANCH   1  26
TORSDOF 6
ENDMDL
MODEL 4
REMARK VINA RESULT:      -6.7      9.039     10.106
REMARK  Name = 
REMARK  9 active torsions:
REMARK  status: ('A' for Active; 'I' for Inactive)
REMARK    1  A    between atoms: C_1  and  C_2
REMARK    2  A    between atoms: C_2  and  C_3
REMARK    3  A    between atoms: C_3  and  C_4
REMARK    4  A    between atoms: C_4  and  N_5
REMARK    5  A    between atoms: N_5  and  C_6
REMARK    6  A    between atoms: C_7  and  C_9
REMARK    7  A    between atoms: C_9  and  C_10
REMARK    8  A    between atoms: C_14  and  O_15
REMARK    9  A    between atoms: C_22  and  C_23
REMARK                            x       y       z     vdW  Elec       q    Type
REMARK                         _______ _______ _______ _____ _____    ______ ____
ROOT
ATOM      1  C   UNL     1       5.421  15.674  21.597  0.00  0.00    +0.000 C 
ATOM      2  C   UNL     1       4.265  16.673  21.380  0.00  0.00    +0.000 C 
ATOM      3  C   UNL     1       3.657  16.652  20.002  0.00  0.00    +0.000 A 
ATOM      4  C   UNL     1       2.518  17.449  19.783  0.00  0.00    +0.000 A 
ATOM      5  C   UNL     1       1.917  17.485  18.532  0.00  0.00    +0.000 A 
ATOM      6  C   UNL     1       2.416  16.718  17.495  0.00  0.00    +0.000 A 
ATOM      7  C   UNL     1       3.553  15.934  17.700  0.00  0.00    +0.000 A 
ATOM      8  C   UNL     1       4.219  15.916  18.941  0.00  0.00    +0.000 A 
ATOM      9  C   UNL     1       5.483  15.088  19.164  0.00  0.00    +0.000 C 
ATOM     10  C   UNL     1       6.298  14.852  17.875  0.00  0.00    +0.000 C 
ATOM     11  C   UNL     1       7.544  14.007  18.127  0.00  0.00    +0.000 C 
ATOM     12  C   UNL     1       8.439  14.645  19.190  0.00  0.00    +0.000 C 
ATOM     13  C   UNL     1       8.998  15.975  18.583  0.00  0.00    +0.000 C 
ATOM     14  C   UNL     1       7.656  14.851  20.510  0.00  0.00    +0.000 C 
ATOM     15  C   UNL     1       8.789  15.344  21.430  0.00  0.00    +0.000 C 
ATOM     16  C   UNL     1      10.037  14.537  21.001  0.00  0.00    +0.000 C 
ATOM     17  C   UNL     1       9.620  13.777  19.715  0.00  0.00    +0.000 C 
ATOM     18  C   UNL     1       9.299  12.315  20.044  0.00  0.00    +0.000 C 
ATOM     19  C   UNL     1      10.539  11.562  19.637  0.00  0.00    +0.000 C 
ATOM     20  C   UNL     1      11.163  12.469  18.631  0.00  0.00    +0.000 C 
ATOM     21  O   UNL     1      12.022  12.142  17.828  0.00  0.00    +0.000 OA
ATOM     22  O   UNL     1      10.680  13.733  18.761  0.00  0.00    +0.000 OA
ATOM     23  C   UNL     1       6.356  15.671  20.346  0.00  0.00    +0.000 C 
ENDROOT
BRANCH   5  24
ATOM     24  O   UNL     1       0.832  18.271  18.285  0.00  0.00    +0.000 OA
ATOM     25  H   UNL     1       0.443  18.525  19.137  0.00  0.00    +0.000 HD
ENDBRANCH   5  24
BRANCH   1  26
ATOM     26  C   UNL     1       6.046  15.892  22.986  0.00  0.00    +0.000 C 
BRANCH  26  29
ATOM     27  N   UNL     1       6.650  14.677  25.077  0.00  0.00    +0.000 N 
ATOM     28  C   UNL     1       7.880  15.448  25.163  0.00  0.00    +0.000 C 
ATOM     29  C   UNL     1       5.775  14.783  23.999  0.00  0.00    +0.000 C 
ATOM     30  O   UNL     1       4.817  14.018  23.863  0.00  0.00    +0.000 OA
BRANCH  27  31
ATOM     31  C   UNL     1       6.514  13.495  25.938  0.00  0.00    +0.000 C 
BRANCH  31  32
ATOM     32  C   UNL     1       7.560  12.403  25.700  0.00  0.00    +0.000 C 
BRANCH  32  34
ATOM     33  C   UNL     1       8.035  11.737  23.326  0.00  0.00    +0.000 C 
ATOM     34  C   UNL     1       7.192  11.452  24.560  0.00  0.00    +0.000 C 
ENDBRANCH  32  34
ENDBRANCH  31  32
ENDBRANCH  27  31
ENDBRANCH  26  29
ENDBRANCH   1  26
TORSDOF 6
ENDMDL
MODEL 5
REMARK VINA RESULT:      -6.7      8.735      9.630
REMARK  Name = 
REMARK  9 active torsions:
REMARK  status: ('A' for Active; 'I' for Inactive)
REMARK    1  A    between atoms: C_1  and  C_2
REMARK    2  A    between atoms: C_2  and  C_3
REMARK    3  A    between atoms: C_3  and  C_4
REMARK    4  A    between atoms: C_4  and  N_5
REMARK    5  A    between atoms: N_5  and  C_6
REMARK    6  A    between atoms: C_7  and  C_9
REMARK    7  A    between atoms: C_9  and  C_10
REMARK    8  A    between atoms: C_14  and  O_15
REMARK    9  A    between atoms: C_22  and  C_23
REMARK                            x       y       z     vdW  Elec       q    Type
REMARK                         _______ _______ _______ _____ _____    ______ ____
ROOT
ATOM      1  C   UNL     1       5.862  14.758  21.595  0.00  0.00    +0.000 C 
ATOM      2  C   UNL     1       4.639  15.685  21.747  0.00  0.00    +0.000 C 
ATOM      3  C   UNL     1       3.926  16.012  20.460  0.00  0.00    +0.000 A 
ATOM      4  C   UNL     1       2.730  16.749  20.550  0.00  0.00    +0.000 A 
ATOM      5  C   UNL     1       2.031  17.094  19.402  0.00  0.00    +0.000 A 
ATOM      6  C   UNL     1       2.488  16.696  18.159  0.00  0.00    +0.000 A 
ATOM      7  C   UNL     1       3.680  15.975  18.059  0.00  0.00    +0.000 A 
ATOM      8  C   UNL     1       4.442  15.655  19.200  0.00  0.00    +0.000 A 
ATOM      9  C   UNL     1       5.765  14.897  19.098  0.00  0.00    +0.000 C 
ATOM     10  C   UNL     1       6.488  15.103  17.749  0.00  0.00    +0.000 C 
ATOM     11  C   UNL     1       7.795  14.318  17.671  0.00  0.00    +0.000 C 
ATOM     12  C   UNL     1       8.734  14.693  18.818  0.00  0.00    +0.000 C 
ATOM     13  C   UNL     1       9.167  16.180  18.591  0.00  0.00    +0.000 C 
ATOM     14  C   UNL     1       8.047  14.453  20.185  0.00  0.00    +0.000 C 
ATOM     15  C   UNL     1       9.220  14.748  21.140  0.00  0.00    +0.000 C 
ATOM     16  C   UNL     1      10.473  14.195  20.422  0.00  0.00    +0.000 C 
ATOM     17  C   UNL     1      10.000  13.805  18.997  0.00  0.00    +0.000 C 
ATOM     18  C   UNL     1       9.788  12.290  18.906  0.00  0.00    +0.000 C 
ATOM     19  C   UNL     1      11.032  11.781  18.225  0.00  0.00    +0.000 C 
ATOM     20  C   UNL     1      11.523  12.983  17.491  0.00  0.00    +0.000 C 
ATOM     21  O   UNL     1      12.333  12.965  16.578  0.00  0.00    +0.000 OA
ATOM     22  O   UNL     1      10.982  14.116  18.010  0.00  0.00    +0.000 OA
ATOM     23  C   UNL     1       6.694  15.184  20.344  0.00  0.00    +0.000 C 
ENDROOT
BRANCH   5  24
ATOM     24  O   UNL     1       0.888  17.832  19.459  0.00  0.00    +0.000 OA
ATOM     25  H   UNL     1       0.295  17.423  20.109  0.00  0.00    +0.000 HD
ENDBRANCH   5  24
BRANCH   1  26
ATOM     26  C   UNL     1       6.582  14.618  22.948  0.00  0.00    +0.000 C 
BRANCH  26  29
ATOM     27  N   UNL     1       6.589  12.336  23.951  0.00  0.00    +0.000 N 
ATOM     28  C   UNL     1       7.634  11.936  23.022  0.00  0.00    +0.000 C 
ATOM     29  C   UNL     1       5.978  13.587  23.898  0.00  0.00    +0.000 C 
ATOM     30  O   UNL     1       4.994  13.859  24.590  0.00  0.00    +0.000 OA
BRANCH  27  31
ATOM     31  C   UNL     1       5.897  11.283  24.706  0.00  0.00    +0.000 C 
BRANCH  31  32
ATOM     32  C   UNL     1       6.289  11.189  26.183  0.00  0.00    +0.000 C 
BRANCH  32  34
ATOM     33  C   UNL     1       4.454  12.068  27.654  0.00  0.00    +0.000 C 
ATOM     34  C   UNL     1       5.120  10.819  27.097  0.00  0.00    +0.000 C 
ENDBRANCH  32  34
ENDBRANCH  31  32
ENDBRANCH  27  31
ENDBRANCH  26  29
ENDBRANCH   1  26
TORSDOF 6
ENDMDL
MODEL 6
REMARK VINA RESULT:      -6.7      8.189     11.754
REMARK  Name = 
REMARK  9 active torsions:
REMARK  status: ('A' for Active; 'I' for Inactive)
REMARK    1  A    between atoms: C_1  and  C_2
REMARK    2  A    between atoms: C_2  and  C_3
REMARK    3  A    between atoms: C_3  and  C_4
REMARK    4  A    between atoms: C_4  and  N_5
REMARK    5  A    between atoms: N_5  and  C_6
REMARK    6  A    between atoms: C_7  and  C_9
REMARK    7  A    between atoms: C_9  and  C_10
REMARK    8  A    between atoms: C_14  and  O_15
REMARK    9  A    between atoms: C_22  and  C_23
REMARK                            x       y       z     vdW  Elec       q    Type
REMARK                         _______ _______ _______ _____ _____    ______ ____
ROOT
ATOM      1  C   UNL     1       7.472  14.818  19.339  0.00  0.00    +0.000 C 
ATOM      2  C   UNL     1       8.446  14.924  18.148  0.00  0.00    +0.000 C 
ATOM      3  C   UNL     1       9.566  13.917  18.152  0.00  0.00    +0.000 A 
ATOM      4  C   UNL     1      10.411  13.881  17.026  0.00  0.00    +0.000 A 
ATOM      5  C   UNL     1      11.470  12.986  16.973  0.00  0.00    +0.000 A 
ATOM      6  C   UNL     1      11.691  12.102  18.013  0.00  0.00    +0.000 A 
ATOM      7  C   UNL     1      10.866  12.138  19.139  0.00  0.00    +0.000 A 
ATOM      8  C   UNL     1       9.816  13.071  19.249  0.00  0.00    +0.000 A 
ATOM      9  C   UNL     1       8.929  13.141  20.491  0.00  0.00    +0.000 C 
ATOM     10  C   UNL     1       9.632  12.651  21.775  0.00  0.00    +0.000 C 
ATOM     11  C   UNL     1       8.715  12.715  22.994  0.00  0.00    +0.000 C 
ATOM     12  C   UNL     1       8.182  14.133  23.210  0.00  0.00    +0.000 C 
ATOM     13  C   UNL     1       9.404  15.028  23.604  0.00  0.00    +0.000 C 
ATOM     14  C   UNL     1       7.433  14.632  21.950  0.00  0.00    +0.000 C 
ATOM     15  C   UNL     1       6.880  15.972  22.470  0.00  0.00    +0.000 C 
ATOM     16  C   UNL     1       6.503  15.708  23.946  0.00  0.00    +0.000 C 
ATOM     17  C   UNL     1       7.055  14.295  24.271  0.00  0.00    +0.000 C 
ATOM     18  C   UNL     1       5.924  13.262  24.230  0.00  0.00    +0.000 C 
ATOM     19  C   UNL     1       5.565  13.045  25.677  0.00  0.00    +0.000 C 
ATOM     20  C   UNL     1       6.810  13.452  26.392  0.00  0.00    +0.000 C 
ATOM     21  O   UNL     1       7.079  13.170  27.548  0.00  0.00    +0.000 OA
ATOM     22  O   UNL     1       7.589  14.228  25.593  0.00  0.00    +0.000 OA
ATOM     23  C   UNL     1       8.275  14.570  20.655  0.00  0.00    +0.000 C 
ENDROOT
BRANCH   5  24
ATOM     24  O   UNL     1      12.321  12.952  15.909  0.00  0.00    +0.000 OA
ATOM     25  H   UNL     1      11.873  12.496  15.178  0.00  0.00    +0.000 HD
ENDBRANCH   5  24
BRANCH   1  26
ATOM     26  C   UNL     1       6.466  15.982  19.295  0.00  0.00    +0.000 C 
BRANCH  26  29
ATOM     27  N   UNL     1       3.993  16.246  19.121  0.00  0.00    +0.000 N 
ATOM     28  C   UNL     1       3.985  16.958  20.389  0.00  0.00    +0.000 C 
ATOM     29  C   UNL     1       5.147  15.671  18.593  0.00  0.00    +0.000 C 
ATOM     30  O   UNL     1       5.113  14.944  17.598  0.00  0.00    +0.000 OA
BRANCH  27  31
ATOM     31  C   UNL     1       2.708  15.792  18.576  0.00  0.00    +0.000 C 
BRANCH  31  32
ATOM     32  C   UNL     1       1.865  14.947  19.535  0.00  0.00    +0.000 C 
BRANCH  32  34
ATOM     33  C   UNL     1       1.131  12.650  18.836  0.00  0.00    +0.000 C 
ATOM     34  C   UNL     1       2.227  13.462  19.509  0.00  0.00    +0.000 C 
ENDBRANCH  32  34
ENDBRANCH  31  32
ENDBRANCH  27  31
ENDBRANCH  26  29
ENDBRANCH   1  26
TORSDOF 6
ENDMDL
MODEL 7
REMARK VINA RESULT:      -6.6      7.508     10.771
REMARK  Name = 
REMARK  9 active torsions:
REMARK  status: ('A' for Active; 'I' for Inactive)
REMARK    1  A    between atoms: C_1  and  C_2
REMARK    2  A    between atoms: C_2  and  C_3
REMARK    3  A    between atoms: C_3  and  C_4
REMARK    4  A    between atoms: C_4  and  N_5
REMARK    5  A    between atoms: N_5  and  C_6
REMARK    6  A    between atoms: C_7  and  C_9
REMARK    7  A    between atoms: C_9  and  C_10
REMARK    8  A    between atoms: C_14  and  O_15
REMARK    9  A    between atoms: C_22  and  C_23
REMARK                            x       y       z     vdW  Elec       q    Type
REMARK                         _______ _______ _______ _____ _____    ______ ____
ROOT
ATOM      1  C   UNL     1       8.190  13.715  21.657  0.00  0.00    +0.000 C 
ATOM      2  C   UNL     1       8.812  13.411  23.036  0.00  0.00    +0.000 C 
ATOM      3  C   UNL     1       7.818  13.204  24.149  0.00  0.00    +0.000 A 
ATOM      4  C   UNL     1       8.319  12.799  25.400  0.00  0.00    +0.000 A 
ATOM      5  C   UNL     1       7.458  12.604  26.471  0.00  0.00    +0.000 A 
ATOM      6  C   UNL     1       6.096  12.780  26.313  0.00  0.00    +0.000 A 
ATOM      7  C   UNL     1       5.590  13.194  25.079  0.00  0.00    +0.000 A 
ATOM      8  C   UNL     1       6.442  13.454  23.987  0.00  0.00    +0.000 A 
ATOM      9  C   UNL     1       5.901  13.939  22.643  0.00  0.00    +0.000 C 
ATOM     10  C   UNL     1       4.576  14.723  22.762  0.00  0.00    +0.000 C 
ATOM     11  C   UNL     1       4.053  15.178  21.402  0.00  0.00    +0.000 C 
ATOM     12  C   UNL     1       5.089  16.031  20.668  0.00  0.00    +0.000 C 
ATOM     13  C   UNL     1       5.249  17.360  21.479  0.00  0.00    +0.000 C 
ATOM     14  C   UNL     1       6.415  15.250  20.497  0.00  0.00    +0.000 C 
ATOM     15  C   UNL     1       7.207  16.238  19.621  0.00  0.00    +0.000 C 
ATOM     16  C   UNL     1       6.161  16.860  18.666  0.00  0.00    +0.000 C 
ATOM     17  C   UNL     1       4.783  16.365  19.179  0.00  0.00    +0.000 C 
ATOM     18  C   UNL     1       4.279  15.208  18.310  0.00  0.00    +0.000 C 
ATOM     19  C   UNL     1       3.282  15.849  17.379  0.00  0.00    +0.000 C 
ATOM     20  C   UNL     1       2.870  17.073  18.126  0.00  0.00    +0.000 C 
ATOM     21  O   UNL     1       1.874  17.737  17.891  0.00  0.00    +0.000 OA
ATOM     22  O   UNL     1       3.787  17.382  19.081  0.00  0.00    +0.000 OA
ATOM     23  C   UNL     1       7.005  14.718  21.823  0.00  0.00    +0.000 C 
ENDROOT
BRANCH   5  24
ATOM     24  O   UNL     1       7.921  12.241  27.700  0.00  0.00    +0.000 OA
ATOM     25  H   UNL     1       8.523  12.935  28.014  0.00  0.00    +0.000 HD
ENDBRANCH   5  24
BRANCH   1  26
ATOM     26  C   UNL     1       9.302  14.045  20.645  0.00  0.00    +0.000 C 
BRANCH  26  29
ATOM     27  N   UNL     1      10.190  12.074  19.404  0.00  0.00    +0.000 N 
ATOM     28  C   UNL     1      11.175  11.864  20.453  0.00  0.00    +0.000 C 
ATOM     29  C   UNL     1       9.324  13.165  19.398  0.00  0.00    +0.000 C 
ATOM     30  O   UNL     1       8.600  13.414  18.432  0.00  0.00    +0.000 OA
BRANCH  27  31
ATOM     31  C   UNL     1      10.361  11.347  18.140  0.00  0.00    +0.000 C 
BRANCH  31  32
ATOM     32  C   UNL     1       9.128  10.570  17.674  0.00  0.00    +0.000 C 
BRANCH  32  34
ATOM     33  C   UNL     1       8.017   8.325  17.851  0.00  0.00    +0.000 C 
ATOM     34  C   UNL     1       8.746   9.423  18.611  0.00  0.00    +0.000 C 
ENDBRANCH  32  34
ENDBRANCH  31  32
ENDBRANCH  27  31
ENDBRANCH  26  29
ENDBRANCH   1  26
TORSDOF 6
ENDMDL
MODEL 8
REMARK VINA RESULT:      -6.6      1.216      1.620
REMARK  Name = 
REMARK  9 active torsions:
REMARK  status: ('A' for Active; 'I' for Inactive)
REMARK    1  A    between atoms: C_1  and  C_2
REMARK    2  A    between atoms: C_2  and  C_3
REMARK    3  A    between atoms: C_3  and  C_4
REMARK    4  A    between atoms: C_4  and  N_5
REMARK    5  A    between atoms: N_5  and  C_6
REMARK    6  A    between atoms: C_7  and  C_9
REMARK    7  A    between atoms: C_9  and  C_10
REMARK    8  A    between atoms: C_14  and  O_15
REMARK    9  A    between atoms: C_22  and  C_23
REMARK                            x       y       z     vdW  Elec       q    Type
REMARK                         _______ _______ _______ _____ _____    ______ ____
ROOT
ATOM      1  C   UNL     1       3.516   5.226  19.546  0.00  0.00    +0.000 C 
ATOM      2  C   UNL     1       2.775   6.094  20.583  0.00  0.00    +0.000 C 
ATOM      3  C   UNL     1       2.152   7.351  20.032  0.00  0.00    +0.000 A 
ATOM      4  C   UNL     1       1.356   8.117  20.904  0.00  0.00    +0.000 A 
ATOM      5  C   UNL     1       0.765   9.293  20.463  0.00  0.00    +0.000 A 
ATOM      6  C   UNL     1       0.930   9.710  19.155  0.00  0.00    +0.000 A 
ATOM      7  C   UNL     1       1.728   8.962  18.286  0.00  0.00    +0.000 A 
ATOM      8  C   UNL     1       2.387   7.794  18.717  0.00  0.00    +0.000 A 
ATOM      9  C   UNL     1       3.289   6.989  17.783  0.00  0.00    +0.000 C 
ATOM     10  C   UNL     1       3.928   7.838  16.664  0.00  0.00    +0.000 C 
ATOM     11  C   UNL     1       4.808   7.002  15.738  0.00  0.00    +0.000 C 
ATOM     12  C   UNL     1       5.904   6.279  16.522  0.00  0.00    +0.000 C 
ATOM     13  C   UNL     1       6.871   7.376  17.079  0.00  0.00    +0.000 C 
ATOM     14  C   UNL     1       5.286   5.384  17.624  0.00  0.00    +0.000 C 
ATOM     15  C   UNL     1       6.550   4.672  18.143  0.00  0.00    +0.000 C 
ATOM     16  C   UNL     1       7.423   4.434  16.888  0.00  0.00    +0.000 C 
ATOM     17  C   UNL     1       6.725   5.211  15.741  0.00  0.00    +0.000 C 
ATOM     18  C   UNL     1       5.925   4.246  14.859  0.00  0.00    +0.000 C 
ATOM     19  C   UNL     1       6.810   4.018  13.661  0.00  0.00    +0.000 C 
ATOM     20  C   UNL     1       7.678   5.231  13.654  0.00  0.00    +0.000 C 
ATOM     21  O   UNL     1       8.342   5.614  12.704  0.00  0.00    +0.000 OA
ATOM     22  O   UNL     1       7.671   5.832  14.873  0.00  0.00    +0.000 OA
ATOM     23  C   UNL     1       4.349   6.140  18.593  0.00  0.00    +0.000 C 
ENDROOT
BRANCH   5  24
ATOM     24  O   UNL     1       0.015  10.068  21.294  0.00  0.00    +0.000 OA
ATOM     25  H   UNL     1       0.583  10.771  21.649  0.00  0.00    +0.000 HD
ENDBRANCH   5  24
BRANCH   1  26
ATOM     26  C   UNL     1       4.223   4.056  20.254  0.00  0.00    +0.000 C 
BRANCH  26  29
ATOM     27  N   UNL     1       3.213   2.028  19.215  0.00  0.00    +0.000 N 
ATOM     28  C   UNL     1       3.612   2.509  17.901  0.00  0.00    +0.000 C 
ATOM     29  C   UNL     1       3.397   2.778  20.374  0.00  0.00    +0.000 C 
ATOM     30  O   UNL     1       2.921   2.429  21.456  0.00  0.00    +0.000 OA
BRANCH  27  31
ATOM     31  C   UNL     1       2.259   0.914  19.282  0.00  0.00    +0.000 C 
BRANCH  31  32
ATOM     32  C   UNL     1       0.811   1.287  18.954  0.00  0.00    +0.000 C 
BRANCH  32  34
ATOM     33  C   UNL     1       0.217   3.525  19.926  0.00  0.00    +0.000 C 
ATOM     34  C   UNL     1       0.621   2.776  18.665  0.00  0.00    +0.000 C 
ENDBRANCH  32  34
ENDBRANCH  31  32
ENDBRANCH  27  31
ENDBRANCH  26  29
ENDBRANCH   1  26
TORSDOF 6
ENDMDL
MODEL 9
REMARK VINA RESULT:      -6.6      7.781      9.425
REMARK  Name = 
REMARK  9 active torsions:
REMARK  status: ('A' for Active; 'I' for Inactive)
REMARK    1  A    between atoms: C_1  and  C_2
REMARK    2  A    between atoms: C_2  and  C_3
REMARK    3  A    between atoms: C_3  and  C_4
REMARK    4  A    between atoms: C_4  and  N_5
REMARK    5  A    between atoms: N_5  and  C_6
REMARK    6  A    between atoms: C_7  and  C_9
REMARK    7  A    between atoms: C_9  and  C_10
REMARK    8  A    between atoms: C_14  and  O_15
REMARK    9  A    between atoms: C_22  and  C_23
REMARK                            x       y       z     vdW  Elec       q    Type
REMARK                         _______ _______ _______ _____ _____    ______ ____
ROOT
ATOM      1  C   UNL     1      -1.369  12.444  20.324  0.00  0.00    +0.000 C 
ATOM      2  C   UNL     1      -2.231  11.833  21.448  0.00  0.00    +0.000 C 
ATOM      3  C   UNL     1      -2.482  12.743  22.622  0.00  0.00    +0.000 A 
ATOM      4  C   UNL     1      -3.366  12.288  23.618  0.00  0.00    +0.000 A 
ATOM      5  C   UNL     1      -3.631  13.073  24.733  0.00  0.00    +0.000 A 
ATOM      6  C   UNL     1      -3.050  14.321  24.862  0.00  0.00    +0.000 A 
ATOM      7  C   UNL     1      -2.162  14.775  23.885  0.00  0.00    +0.000 A 
ATOM      8  C   UNL     1      -1.830  13.982  22.770  0.00  0.00    +0.000 A 
ATOM      9  C   UNL     1      -0.834  14.457  21.713  0.00  0.00    +0.000 C 
ATOM     10  C   UNL     1       0.209  15.456  22.257  0.00  0.00    +0.000 C 
ATOM     11  C   UNL     1       1.177  15.925  21.174  0.00  0.00    +0.000 C 
ATOM     12  C   UNL     1       1.893  14.742  20.522  0.00  0.00    +0.000 C 
ATOM     13  C   UNL     1       2.820  14.108  21.612  0.00  0.00    +0.000 C 
ATOM     14  C   UNL     1       0.869  13.745  19.928  0.00  0.00    +0.000 C 
ATOM     15  C   UNL     1       1.818  12.762  19.218  0.00  0.00    +0.000 C 
ATOM     16  C   UNL     1       2.959  13.640  18.653  0.00  0.00    +0.000 C 
ATOM     17  C   UNL     1       2.730  15.054  19.247  0.00  0.00    +0.000 C 
ATOM     18  C   UNL     1       2.072  15.966  18.206  0.00  0.00    +0.000 C 
ATOM     19  C   UNL     1       3.211  16.789  17.660  0.00  0.00    +0.000 C 
ATOM     20  C   UNL     1       4.217  16.734  18.760  0.00  0.00    +0.000 C 
ATOM     21  O   UNL     1       5.167  17.489  18.881  0.00  0.00    +0.000 OA
ATOM     22  O   UNL     1       3.961  15.688  19.591  0.00  0.00    +0.000 OA
ATOM     23  C   UNL     1      -0.178  13.239  20.947  0.00  0.00    +0.000 C 
ENDROOT
BRANCH   5  24
ATOM     24  O   UNL     1      -4.458  12.643  25.726  0.00  0.00    +0.000 OA
ATOM     25  H   UNL     1      -5.084  12.006  25.345  0.00  0.00    +0.000 HD
ENDBRANCH   5  24
BRANCH   1  26
ATOM     26  C   UNL     1      -1.067  11.375  19.259  0.00  0.00    +0.000 C 
BRANCH  26  29
ATOM     27  N   UNL     1      -2.517  10.945  17.277  0.00  0.00    +0.000 N 
ATOM     28  C   UNL     1      -3.002   9.726  17.903  0.00  0.00    +0.000 C 
ATOM     29  C   UNL     1      -1.514  11.729  17.843  0.00  0.00    +0.000 C 
ATOM     30  O   UNL     1      -1.006  12.673  17.234  0.00  0.00    +0.000 OA
BRANCH  27  31
ATOM     31  C   UNL     1      -2.807  11.153  15.853  0.00  0.00    +0.000 C 
BRANCH  31  32
ATOM     32  C   UNL     1      -3.364   9.927  15.125  0.00  0.00    +0.000 C 
BRANCH  32  34
ATOM     33  C   UNL     1      -4.184   9.852  12.753  0.00  0.00    +0.000 C 
ATOM     34  C   UNL     1      -2.957   9.861  13.653  0.00  0.00    +0.000 C 
ENDBRANCH  32  34
ENDBRANCH  31  32
ENDBRANCH  27  31
ENDBRANCH  26  29
ENDBRANCH   1  26
TORSDOF 6
ENDMDL
