MODEL 1
REMARK VINA RESULT:      -8.3      0.000      0.000
REMARK  Name = 
REMARK  3 active torsions:
REMARK  status: ('A' for Active; 'I' for Inactive)
REMARK    1  A    between atoms: C_1  and  N_2
REMARK    2  A    between atoms: C_7  and  C_8
REMARK    3  A    between atoms: C_15  and  O_16
REMARK                            x       y       z     vdW  Elec       q    Type
REMARK                         _______ _______ _______ _____ _____    ______ ____
ROOT
ATOM      1  C   UNL     1       4.152   4.279  19.033  0.00  0.00    +0.000 C 
ATOM      2  C   UNL     1       4.101   4.343  17.508  0.00  0.00    +0.000 C 
ATOM      3  C   UNL     1       4.400   5.772  17.100  0.00  0.00    +0.000 C 
ATOM      4  C   UNL     1       5.706   6.168  17.706  0.00  0.00    +0.000 A 
ATOM      5  C   UNL     1       6.456   7.187  17.105  0.00  0.00    +0.000 A 
ATOM      6  C   UNL     1       7.704   7.529  17.609  0.00  0.00    +0.000 A 
ATOM      7  C   UNL     1       8.209   6.867  18.729  0.00  0.00    +0.000 A 
ATOM      8  C   UNL     1       7.454   5.865  19.343  0.00  0.00    +0.000 A 
ATOM      9  C   UNL     1       6.195   5.509  18.848  0.00  0.00    +0.000 A 
ATOM     10  O   UNL     1       5.516   4.484  19.470  0.00  0.00    +0.000 OA
ENDROOT
BRANCH   1  17
ATOM     11  C   UNL     1       2.467   4.074  21.604  0.00  0.00    +0.000 C 
ATOM     12  N   UNL     1       2.346   3.094  20.530  0.00  0.00    +0.000 NA
ATOM     13  C   UNL     1       1.091   3.238  19.797  0.00  0.00    +0.000 C 
ATOM     14  C   UNL     1       0.903   2.256  18.638  0.00  0.00    +0.000 C 
ATOM     15  C   UNL     1       2.163   1.886  17.863  0.00  0.00    +0.000 C 
ATOM     16  C   UNL     1       3.390   1.780  18.755  0.00  0.00    +0.000 C 
ATOM     17  C   UNL     1       3.569   2.979  19.700  0.00  0.00    +0.000 C 
ENDBRANCH   1  17
BRANCH   8  18
ATOM     18  O   UNL     1       7.953   5.213  20.442  0.00  0.00    +0.000 OA
ATOM     19  H   UNL     1       7.348   4.493  20.675  0.00  0.00    +0.000 HD
ENDBRANCH   8  18
TORSDOF 2
ENDMDL
MODEL 2
REMARK VINA RESULT:      -7.8      2.247      5.637
REMARK  Name = 
REMARK  3 active torsions:
REMARK  status: ('A' for Active; 'I' for Inactive)
REMARK    1  A    between atoms: C_1  and  N_2
REMARK    2  A    between atoms: C_7  and  C_8
REMARK    3  A    between atoms: C_15  and  O_16
REMARK                            x       y       z     vdW  Elec       q    Type
REMARK                         _______ _______ _______ _____ _____    ______ ____
ROOT
ATOM      1  C   UNL     1       5.020   4.439  17.763  0.00  0.00    +0.000 C 
ATOM      2  C   UNL     1       4.249   5.721  18.068  0.00  0.00    +0.000 C 
ATOM      3  C   UNL     1       2.803   5.340  18.306  0.00  0.00    +0.000 C 
ATOM      4  C   UNL     1       2.762   4.307  19.384  0.00  0.00    +0.000 A 
ATOM      5  C   UNL     1       1.595   4.162  20.145  0.00  0.00    +0.000 A 
ATOM      6  C   UNL     1       1.553   3.256  21.197  0.00  0.00    +0.000 A 
ATOM      7  C   UNL     1       2.672   2.474  21.489  0.00  0.00    +0.000 A 
ATOM      8  C   UNL     1       3.830   2.602  20.718  0.00  0.00    +0.000 A 
ATOM      9  C   UNL     1       3.887   3.510  19.654  0.00  0.00    +0.000 A 
ATOM     10  O   UNL     1       5.070   3.622  18.957  0.00  0.00    +0.000 OA
ENDROOT
BRANCH   1  17
ATOM     11  C   UNL     1       5.817   5.607  15.026  0.00  0.00    +0.000 C 
ATOM     12  N   UNL     1       6.707   5.683  16.179  0.00  0.00    +0.000 NA
ATOM     13  C   UNL     1       6.797   7.040  16.711  0.00  0.00    +0.000 C 
ATOM     14  C   UNL     1       7.698   7.196  17.939  0.00  0.00    +0.000 C 
ATOM     15  C   UNL     1       7.704   6.026  18.917  0.00  0.00    +0.000 C 
ATOM     16  C   UNL     1       7.597   4.678  18.220  0.00  0.00    +0.000 C 
ATOM     17  C   UNL     1       6.470   4.613  17.177  0.00  0.00    +0.000 C 
ENDBRANCH   1  17
BRANCH   8  18
ATOM     18  O   UNL     1       4.930   1.835  21.007  0.00  0.00    +0.000 OA
ATOM     19  H   UNL     1       4.697   0.903  20.887  0.00  0.00    +0.000 HD
ENDBRANCH   8  18
TORSDOF 2
ENDMDL
MODEL 3
REMARK VINA RESULT:      -7.6      2.401      6.004
REMARK  Name = 
REMARK  3 active torsions:
REMARK  status: ('A' for Active; 'I' for Inactive)
REMARK    1  A    between atoms: C_1  and  N_2
REMARK    2  A    between atoms: C_7  and  C_8
REMARK    3  A    between atoms: C_15  and  O_16
REMARK                            x       y       z     vdW  Elec       q    Type
REMARK                         _______ _______ _______ _____ _____    ______ ____
ROOT
ATOM      1  C   UNL     1       5.219   4.536  17.239  0.00  0.00    +0.000 C 
ATOM      2  C   UNL     1       4.584   5.618  18.109  0.00  0.00    +0.000 C 
ATOM      3  C   UNL     1       3.085   5.554  17.898  0.00  0.00    +0.000 C 
ATOM      4  C   UNL     1       2.630   4.161  18.191  0.00  0.00    +0.000 A 
ATOM      5  C   UNL     1       1.302   3.944  18.577  0.00  0.00    +0.000 A 
ATOM      6  C   UNL     1       0.871   2.669  18.919  0.00  0.00    +0.000 A 
ATOM      7  C   UNL     1       1.760   1.594  18.863  0.00  0.00    +0.000 A 
ATOM      8  C   UNL     1       3.080   1.804  18.458  0.00  0.00    +0.000 A 
ATOM      9  C   UNL     1       3.529   3.084  18.110  0.00  0.00    +0.000 A 
ATOM     10  O   UNL     1       4.853   3.236  17.759  0.00  0.00    +0.000 OA
ENDROOT
BRANCH   1  17
ATOM     11  C   UNL     1       6.769   5.493  14.754  0.00  0.00    +0.000 C 
ATOM     12  N   UNL     1       7.329   5.607  16.097  0.00  0.00    +0.000 NA
ATOM     13  C   UNL     1       7.352   6.990  16.564  0.00  0.00    +0.000 C 
ATOM     14  C   UNL     1       7.908   7.186  17.977  0.00  0.00    +0.000 C 
ATOM     15  C   UNL     1       7.591   6.082  18.980  0.00  0.00    +0.000 C 
ATOM     16  C   UNL     1       7.595   4.698  18.349  0.00  0.00    +0.000 C 
ATOM     17  C   UNL     1       6.778   4.613  17.049  0.00  0.00    +0.000 C 
ENDBRANCH   1  17
BRANCH   8  18
ATOM     18  O   UNL     1       3.954   0.748  18.407  0.00  0.00    +0.000 OA
ATOM     19  H   UNL     1       4.210   0.515  19.311  0.00  0.00    +0.000 HD
ENDBRANCH   8  18
TORSDOF 2
ENDMDL
MODEL 4
REMARK VINA RESULT:      -7.6      2.259      5.968
REMARK  Name = 
REMARK  3 active torsions:
REMARK  status: ('A' for Active; 'I' for Inactive)
REMARK    1  A    between atoms: C_1  and  N_2
REMARK    2  A    between atoms: C_7  and  C_8
REMARK    3  A    between atoms: C_15  and  O_16
REMARK                            x       y       z     vdW  Elec       q    Type
REMARK                         _______ _______ _______ _____ _____    ______ ____
ROOT
ATOM      1  C   UNL     1       4.722   4.986  17.999  0.00  0.00    +0.000 C 
ATOM      2  C   UNL     1       4.668   5.724  19.335  0.00  0.00    +0.000 C 
ATOM      3  C   UNL     1       3.209   5.904  19.699  0.00  0.00    +0.000 C 
ATOM      4  C   UNL     1       2.555   4.560  19.693  0.00  0.00    +0.000 A 
ATOM      5  C   UNL     1       1.405   4.358  20.466  0.00  0.00    +0.000 A 
ATOM      6  C   UNL     1       0.817   3.102  20.531  0.00  0.00    +0.000 A 
ATOM      7  C   UNL     1       1.363   2.038  19.810  0.00  0.00    +0.000 A 
ATOM      8  C   UNL     1       2.498   2.242  19.022  0.00  0.00    +0.000 A 
ATOM      9  C   UNL     1       3.102   3.503  18.946  0.00  0.00    +0.000 A 
ATOM     10  O   UNL     1       4.243   3.633  18.186  0.00  0.00    +0.000 OA
ENDROOT
BRANCH   1  17
ATOM     11  C   UNL     1       5.464   6.317  15.322  0.00  0.00    +0.000 C 
ATOM     12  N   UNL     1       6.459   6.084  16.363  0.00  0.00    +0.000 NA
ATOM     13  C   UNL     1       6.866   7.325  17.017  0.00  0.00    +0.000 C 
ATOM     14  C   UNL     1       7.894   7.158  18.139  0.00  0.00    +0.000 C 
ATOM     15  C   UNL     1       7.764   5.895  18.984  0.00  0.00    +0.000 C 
ATOM     16  C   UNL     1       7.327   4.688  18.170  0.00  0.00    +0.000 C 
ATOM     17  C   UNL     1       6.114   4.961  17.266  0.00  0.00    +0.000 C 
ENDBRANCH   1  17
BRANCH   8  18
ATOM     18  O   UNL     1       3.036   1.196  18.317  0.00  0.00    +0.000 OA
ATOM     19  H   UNL     1       3.584   1.553  17.604  0.00  0.00    +0.000 HD
ENDBRANCH   8  18
TORSDOF 2
ENDMDL
MODEL 5
REMARK VINA RESULT:      -7.5      2.335      5.293
REMARK  Name = 
REMARK  3 active torsions:
REMARK  status: ('A' for Active; 'I' for Inactive)
REMARK    1  A    between atoms: C_1  and  N_2
REMARK    2  A    between atoms: C_7  and  C_8
REMARK    3  A    between atoms: C_15  and  O_16
REMARK                            x       y       z     vdW  Elec       q    Type
REMARK                         _______ _______ _______ _____ _____    ______ ____
ROOT
ATOM      1  C   UNL     1       4.171   5.780  17.574  0.00  0.00    +0.000 C 
ATOM      2  C   UNL     1       3.432   6.822  18.411  0.00  0.00    +0.000 C 
ATOM      3  C   UNL     1       2.104   6.220  18.823  0.00  0.00    +0.000 C 
ATOM      4  C   UNL     1       2.372   4.926  19.518  0.00  0.00    +0.000 A 
ATOM      5  C   UNL     1       1.429   4.433  20.429  0.00  0.00    +0.000 A 
ATOM      6  C   UNL     1       1.683   3.267  21.139  0.00  0.00    +0.000 A 
ATOM      7  C   UNL     1       2.877   2.572  20.934  0.00  0.00    +0.000 A 
ATOM      8  C   UNL     1       3.810   3.050  20.011  0.00  0.00    +0.000 A 
ATOM      9  C   UNL     1       3.568   4.224  19.288  0.00  0.00    +0.000 A 
ATOM     10  O   UNL     1       4.544   4.669  18.423  0.00  0.00    +0.000 OA
ENDROOT
BRANCH   1  17
ATOM     11  C   UNL     1       7.064   6.057  18.595  0.00  0.00    +0.000 C 
ATOM     12  N   UNL     1       6.769   5.808  17.188  0.00  0.00    +0.000 NA
ATOM     13  C   UNL     1       7.109   4.444  16.792  0.00  0.00    +0.000 C 
ATOM     14  C   UNL     1       6.806   4.101  15.331  0.00  0.00    +0.000 C 
ATOM     15  C   UNL     1       5.559   4.745  14.737  0.00  0.00    +0.000 C 
ATOM     16  C   UNL     1       5.329   6.159  15.246  0.00  0.00    +0.000 C 
ATOM     17  C   UNL     1       5.428   6.285  16.775  0.00  0.00    +0.000 C 
ENDBRANCH   1  17
BRANCH   8  18
ATOM     18  O   UNL     1       4.984   2.369  19.813  0.00  0.00    +0.000 OA
ATOM     19  H   UNL     1       5.400   2.213  20.673  0.00  0.00    +0.000 HD
ENDBRANCH   8  18
TORSDOF 2
ENDMDL
MODEL 6
REMARK VINA RESULT:      -7.5      2.384      5.709
REMARK  Name = 
REMARK  3 active torsions:
REMARK  status: ('A' for Active; 'I' for Inactive)
REMARK    1  A    between atoms: C_1  and  N_2
REMARK    2  A    between atoms: C_7  and  C_8
REMARK    3  A    between atoms: C_15  and  O_16
REMARK                            x       y       z     vdW  Elec       q    Type
REMARK                         _______ _______ _______ _____ _____    ______ ____
ROOT
ATOM      1  C   UNL     1       4.770   4.676  17.901  0.00  0.00    +0.000 C 
ATOM      2  C   UNL     1       4.036   3.719  16.964  0.00  0.00    +0.000 C 
ATOM      3  C   UNL     1       3.562   2.542  17.792  0.00  0.00    +0.000 C 
ATOM      4  C   UNL     1       2.744   3.066  18.927  0.00  0.00    +0.000 A 
ATOM      5  C   UNL     1       1.786   2.234  19.519  0.00  0.00    +0.000 A 
ATOM      6  C   UNL     1       0.967   2.717  20.531  0.00  0.00    +0.000 A 
ATOM      7  C   UNL     1       1.108   4.035  20.972  0.00  0.00    +0.000 A 
ATOM      8  C   UNL     1       2.076   4.860  20.398  0.00  0.00    +0.000 A 
ATOM      9  C   UNL     1       2.910   4.387  19.378  0.00  0.00    +0.000 A 
ATOM     10  O   UNL     1       3.817   5.261  18.821  0.00  0.00    +0.000 OA
ENDROOT
BRANCH   1  17
ATOM     11  C   UNL     1       7.678   5.482  18.521  0.00  0.00    +0.000 C 
ATOM     12  N   UNL     1       7.095   5.676  17.198  0.00  0.00    +0.000 NA
ATOM     13  C   UNL     1       7.633   4.735  16.220  0.00  0.00    +0.000 C 
ATOM     14  C   UNL     1       7.051   4.865  14.810  0.00  0.00    +0.000 C 
ATOM     15  C   UNL     1       5.576   5.241  14.726  0.00  0.00    +0.000 C 
ATOM     16  C   UNL     1       5.158   6.220  15.812  0.00  0.00    +0.000 C 
ATOM     17  C   UNL     1       5.619   5.811  17.220  0.00  0.00    +0.000 C 
ENDBRANCH   1  17
BRANCH   8  18
ATOM     18  O   UNL     1       2.212   6.155  20.830  0.00  0.00    +0.000 OA
ATOM     19  H   UNL     1       2.991   6.543  20.406  0.00  0.00    +0.000 HD
ENDBRANCH   8  18
TORSDOF 2
ENDMDL
MODEL 7
REMARK VINA RESULT:      -7.2      0.841      1.234
REMARK  Name = 
REMARK  3 active torsions:
REMARK  status: ('A' for Active; 'I' for Inactive)
REMARK    1  A    between atoms: C_1  and  N_2
REMARK    2  A    between atoms: C_7  and  C_8
REMARK    3  A    between atoms: C_15  and  O_16
REMARK                            x       y       z     vdW  Elec       q    Type
REMARK                         _______ _______ _______ _____ _____    ______ ____
ROOT
ATOM      1  C   UNL     1       4.256   4.119  18.032  0.00  0.00    +0.000 C 
ATOM      2  C   UNL     1       4.499   4.365  16.544  0.00  0.00    +0.000 C 
ATOM      3  C   UNL     1       4.788   5.841  16.366  0.00  0.00    +0.000 C 
ATOM      4  C   UNL     1       5.927   6.207  17.262  0.00  0.00    +0.000 A 
ATOM      5  C   UNL     1       6.719   7.316  16.939  0.00  0.00    +0.000 A 
ATOM      6  C   UNL     1       7.823   7.639  17.717  0.00  0.00    +0.000 A 
ATOM      7  C   UNL     1       8.138   6.864  18.835  0.00  0.00    +0.000 A 
ATOM      8  C   UNL     1       7.338   5.770  19.171  0.00  0.00    +0.000 A 
ATOM      9  C   UNL     1       6.221   5.433  18.397  0.00  0.00    +0.000 A 
ATOM     10  O   UNL     1       5.495   4.318  18.753  0.00  0.00    +0.000 OA
ENDROOT
BRANCH   1  17
ATOM     11  C   UNL     1       4.787   2.460  20.573  0.00  0.00    +0.000 C 
ATOM     12  N   UNL     1       3.519   2.377  19.856  0.00  0.00    +0.000 NA
ATOM     13  C   UNL     1       2.435   3.029  20.586  0.00  0.00    +0.000 C 
ATOM     14  C   UNL     1       1.075   3.002  19.884  0.00  0.00    +0.000 C 
ATOM     15  C   UNL     1       1.104   3.118  18.364  0.00  0.00    +0.000 C 
ATOM     16  C   UNL     1       2.291   2.398  17.744  0.00  0.00    +0.000 C 
ATOM     17  C   UNL     1       3.632   2.728  18.420  0.00  0.00    +0.000 C 
ENDBRANCH   1  17
BRANCH   8  18
ATOM     18  O   UNL     1       7.650   5.008  20.268  0.00  0.00    +0.000 OA
ATOM     19  H   UNL     1       7.132   5.324  21.022  0.00  0.00    +0.000 HD
ENDBRANCH   8  18
TORSDOF 2
ENDMDL
MODEL 8
REMARK VINA RESULT:      -7.2      2.160      5.576
REMARK  Name = 
REMARK  3 active torsions:
REMARK  status: ('A' for Active; 'I' for Inactive)
REMARK    1  A    between atoms: C_1  and  N_2
REMARK    2  A    between atoms: C_7  and  C_8
REMARK    3  A    between atoms: C_15  and  O_16
REMARK                            x       y       z     vdW  Elec       q    Type
REMARK                         _______ _______ _______ _____ _____    ______ ____
ROOT
ATOM      1  C   UNL     1       5.198   4.000  17.696  0.00  0.00    +0.000 C 
ATOM      2  C   UNL     1       4.210   3.171  16.880  0.00  0.00    +0.000 C 
ATOM      3  C   UNL     1       3.335   2.411  17.855  0.00  0.00    +0.000 C 
ATOM      4  C   UNL     1       2.712   3.395  18.791  0.00  0.00    +0.000 A 
ATOM      5  C   UNL     1       1.509   3.065  19.427  0.00  0.00    +0.000 A 
ATOM      6  C   UNL     1       0.875   3.987  20.249  0.00  0.00    +0.000 A 
ATOM      7  C   UNL     1       1.446   5.244  20.457  0.00  0.00    +0.000 A 
ATOM      8  C   UNL     1       2.656   5.568  19.841  0.00  0.00    +0.000 A 
ATOM      9  C   UNL     1       3.308   4.649  19.010  0.00  0.00    +0.000 A 
ATOM     10  O   UNL     1       4.477   5.042  18.397  0.00  0.00    +0.000 OA
ENDROOT
BRANCH   1  17
ATOM     11  C   UNL     1       5.098   6.154  15.496  0.00  0.00    +0.000 C 
ATOM     12  N   UNL     1       6.262   5.997  16.360  0.00  0.00    +0.000 NA
ATOM     13  C   UNL     1       6.375   7.085  17.328  0.00  0.00    +0.000 C 
ATOM     14  C   UNL     1       7.563   6.977  18.287  0.00  0.00    +0.000 C 
ATOM     15  C   UNL     1       7.944   5.567  18.725  0.00  0.00    +0.000 C 
ATOM     16  C   UNL     1       7.769   4.541  17.617  0.00  0.00    +0.000 C 
ATOM     17  C   UNL     1       6.407   4.628  16.908  0.00  0.00    +0.000 C 
ENDBRANCH   1  17
BRANCH   8  18
ATOM     18  O   UNL     1       3.215   6.805  20.044  0.00  0.00    +0.000 OA
ATOM     19  H   UNL     1       2.564   7.370  20.485  0.00  0.00    +0.000 HD
ENDBRANCH   8  18
TORSDOF 2
ENDMDL
MODEL 9
REMARK VINA RESULT:      -7.1      1.292      1.865
REMARK  Name = 
REMARK  3 active torsions:
REMARK  status: ('A' for Active; 'I' for Inactive)
REMARK    1  A    between atoms: C_1  and  N_2
REMARK    2  A    between atoms: C_7  and  C_8
REMARK    3  A    between atoms: C_15  and  O_16
REMARK                            x       y       z     vdW  Elec       q    Type
REMARK                         _______ _______ _______ _____ _____    ______ ____
ROOT
ATOM      1  C   UNL     1       3.575   4.278  18.783  0.00  0.00    +0.000 C 
ATOM      2  C   UNL     1       2.899   5.133  17.714  0.00  0.00    +0.000 C 
ATOM      3  C   UNL     1       3.439   6.542  17.846  0.00  0.00    +0.000 C 
ATOM      4  C   UNL     1       4.929   6.482  17.759  0.00  0.00    +0.000 A 
ATOM      5  C   UNL     1       5.634   7.617  17.337  0.00  0.00    +0.000 A 
ATOM      6  C   UNL     1       7.013   7.568  17.183  0.00  0.00    +0.000 A 
ATOM      7  C   UNL     1       7.705   6.388  17.463  0.00  0.00    +0.000 A 
ATOM      8  C   UNL     1       7.007   5.262  17.904  0.00  0.00    +0.000 A 
ATOM      9  C   UNL     1       5.617   5.296  18.065  0.00  0.00    +0.000 A 
ATOM     10  O   UNL     1       4.980   4.140  18.461  0.00  0.00    +0.000 OA
ENDROOT
BRANCH   1  17
ATOM     11  C   UNL     1       4.769   1.969  20.439  0.00  0.00    +0.000 C 
ATOM     12  N   UNL     1       3.328   2.135  20.284  0.00  0.00    +0.000 NA
ATOM     13  C   UNL     1       2.696   2.603  21.514  0.00  0.00    +0.000 C 
ATOM     14  C   UNL     1       1.184   2.822  21.422  0.00  0.00    +0.000 C 
ATOM     15  C   UNL     1       0.663   3.346  20.088  0.00  0.00    +0.000 C 
ATOM     16  C   UNL     1       1.421   2.778  18.899  0.00  0.00    +0.000 C 
ATOM     17  C   UNL     1       2.949   2.859  19.047  0.00  0.00    +0.000 C 
ENDBRANCH   1  17
BRANCH   8  18
ATOM     18  O   UNL     1       7.687   4.102  18.176  0.00  0.00    +0.000 OA
ATOM     19  H   UNL     1       8.486   4.076  17.629  0.00  0.00    +0.000 HD
ENDBRANCH   8  18
TORSDOF 2
ENDMDL
