MODEL 1
REMARK VINA RESULT:      -8.0      0.000      0.000
REMARK  Name = 
REMARK  10 active torsions:
REMARK  status: ('A' for Active; 'I' for Inactive)
REMARK    1  A    between atoms: C_1  and  O_2
REMARK    2  A    between atoms: O_2  and  C_3
REMARK    3  A    between atoms: C_3  and  C_5
REMARK    4  A    between atoms: C_8  and  C_9
REMARK    5  A    between atoms: C_9  and  O_11
REMARK    6  A    between atoms: O_11  and  C_12
REMARK    7  A    between atoms: C_12  and  C_13
REMARK    8  A    between atoms: C_13  and  C_14
REMARK    9  A    between atoms: C_14  and  C_15
REMARK   10  A    between atoms: C_19  and  N_20
REMARK                            x       y       z     vdW  Elec       q    Type
REMARK                         _______ _______ _______ _____ _____    ______ ____
ROOT
ATOM      1  C   UNL     1       8.012   9.279  17.815  0.00  0.00    +0.000 C 
ENDROOT
BRANCH   1   2
ATOM      2  C   UNL     1       7.827   7.765  17.695  0.00  0.00    +0.000 C 
BRANCH   2   3
ATOM      3  O   UNL     1       6.705   7.448  16.853  0.00  0.00    +0.000 OA
BRANCH   3   4
ATOM      4  C   UNL     1       6.622   6.153  16.463  0.00  0.00    +0.000 C 
ATOM      5  O   UNL     1       7.433   5.558  15.773  0.00  0.00    +0.000 OA
BRANCH   4   9
ATOM      6  C   UNL     1       2.963   4.456  17.963  0.00  0.00    +0.000 A 
ATOM      7  C   UNL     1       3.281   5.805  18.172  0.00  0.00    +0.000 A 
ATOM      8  C   UNL     1       4.476   6.334  17.678  0.00  0.00    +0.000 A 
ATOM      9  C   UNL     1       5.369   5.525  16.965  0.00  0.00    +0.000 A 
ATOM     10  C   UNL     1       5.057   4.174  16.756  0.00  0.00    +0.000 A 
ATOM     11  C   UNL     1       3.859   3.643  17.254  0.00  0.00    +0.000 A 
BRANCH   6  12
ATOM     12  C   UNL     1       1.668   3.954  18.502  0.00  0.00    +0.000 C 
ATOM     13  O   UNL     1       0.998   3.097  17.946  0.00  0.00    +0.000 OA
BRANCH  12  15
ATOM     14  C   UNL     1       1.626   3.784  20.828  0.00  0.00    +0.000 C 
ATOM     15  O   UNL     1       1.358   4.573  19.666  0.00  0.00    +0.000 OA
ENDBRANCH  12  15
ENDBRANCH   6  12
ENDBRANCH   4   9
ENDBRANCH   3   4
ENDBRANCH   2   3
ENDBRANCH   1   2
BRANCH   1  16
ATOM     16  C   UNL     1       9.124   9.685  18.790  0.00  0.00    +0.000 C 
BRANCH  16  17
ATOM     17  C   UNL     1       9.631  11.059  18.514  0.00  0.00    +0.000 A 
ATOM     18  N   UNL     1       9.131  12.183  18.983  0.00  0.00    +0.000 NA
ATOM     19  C   UNL     1       9.813  13.186  18.344  0.00  0.00    +0.000 A 
ATOM     20  C   UNL     1       9.645  14.575  18.431  0.00  0.00    +0.000 A 
ATOM     21  C   UNL     1      10.402  15.410  17.599  0.00  0.00    +0.000 A 
ATOM     22  C   UNL     1      11.396  14.852  16.785  0.00  0.00    +0.000 A 
ATOM     23  C   UNL     1      11.605  13.466  16.704  0.00  0.00    +0.000 A 
ATOM     24  C   UNL     1      10.780  12.666  17.494  0.00  0.00    +0.000 A 
ATOM     25  N   UNL     1      10.685  11.309  17.668  0.00  0.00    +0.000 N 
ATOM     26  H   UNL     1      11.255  10.612  17.211  0.00  0.00    +0.000 HD
BRANCH  21  27
ATOM     27  N   UNL     1      10.316  16.802  17.748  0.00  0.00    +0.000 N 
ATOM     28  H   UNL     1       9.940  17.274  16.930  0.00  0.00    +0.000 HD
ATOM     29  H   UNL     1      11.173  17.233  18.080  0.00  0.00    +0.000 HD
ENDBRANCH  21  27
ENDBRANCH  16  17
ENDBRANCH   1  16
TORSDOF 9
ENDMDL
MODEL 2
REMARK VINA RESULT:      -7.9      5.354      8.051
REMARK  Name = 
REMARK  10 active torsions:
REMARK  status: ('A' for Active; 'I' for Inactive)
REMARK    1  A    between atoms: C_1  and  O_2
REMARK    2  A    between atoms: O_2  and  C_3
REMARK    3  A    between atoms: C_3  and  C_5
REMARK    4  A    between atoms: C_8  and  C_9
REMARK    5  A    between atoms: C_9  and  O_11
REMARK    6  A    between atoms: O_11  and  C_12
REMARK    7  A    between atoms: C_12  and  C_13
REMARK    8  A    between atoms: C_13  and  C_14
REMARK    9  A    between atoms: C_14  and  C_15
REMARK   10  A    between atoms: C_19  and  N_20
REMARK                            x       y       z     vdW  Elec       q    Type
REMARK                         _______ _______ _______ _____ _____    ______ ____
ROOT
ATOM      1  C   UNL     1       1.563   2.987  18.332  0.00  0.00    +0.000 C 
ENDROOT
BRANCH   1   2
ATOM      2  C   UNL     1       0.996   2.834  19.745  0.00  0.00    +0.000 C 
BRANCH   2   3
ATOM      3  O   UNL     1       0.735   4.119  20.336  0.00  0.00    +0.000 OA
BRANCH   3   4
ATOM      4  C   UNL     1       1.834   4.813  20.721  0.00  0.00    +0.000 C 
ATOM      5  O   UNL     1       2.692   4.425  21.498  0.00  0.00    +0.000 OA
BRANCH   4   9
ATOM      6  C   UNL     1       1.852   8.757  19.003  0.00  0.00    +0.000 A 
ATOM      7  C   UNL     1       1.256   8.506  20.247  0.00  0.00    +0.000 A 
ATOM      8  C   UNL     1       1.260   7.217  20.784  0.00  0.00    +0.000 A 
ATOM      9  C   UNL     1       1.862   6.160  20.090  0.00  0.00    +0.000 A 
ATOM     10  C   UNL     1       2.457   6.406  18.844  0.00  0.00    +0.000 A 
ATOM     11  C   UNL     1       2.451   7.699  18.304  0.00  0.00    +0.000 A 
BRANCH   6  12
ATOM     12  C   UNL     1       1.829  10.155  18.489  0.00  0.00    +0.000 C 
ATOM     13  O   UNL     1       2.249  10.471  17.385  0.00  0.00    +0.000 OA
BRANCH  12  15
ATOM     14  C   UNL     1       1.650  12.366  19.211  0.00  0.00    +0.000 C 
ATOM     15  O   UNL     1       1.288  10.996  19.402  0.00  0.00    +0.000 OA
ENDBRANCH  12  15
ENDBRANCH   6  12
ENDBRANCH   4   9
ENDBRANCH   3   4
ENDBRANCH   2   3
ENDBRANCH   1   2
BRANCH   1  16
ATOM     16  C   UNL     1       2.874   2.222  18.111  0.00  0.00    +0.000 C 
BRANCH  16  17
ATOM     17  C   UNL     1       4.044   3.140  18.014  0.00  0.00    +0.000 A 
ATOM     18  N   UNL     1       4.813   3.531  19.008  0.00  0.00    +0.000 NA
ATOM     19  C   UNL     1       5.647   4.482  18.479  0.00  0.00    +0.000 A 
ATOM     20  C   UNL     1       6.626   5.261  19.110  0.00  0.00    +0.000 A 
ATOM     21  C   UNL     1       7.294   6.249  18.376  0.00  0.00    +0.000 A 
ATOM     22  C   UNL     1       7.060   6.360  16.999  0.00  0.00    +0.000 A 
ATOM     23  C   UNL     1       6.106   5.570  16.338  0.00  0.00    +0.000 A 
ATOM     24  C   UNL     1       5.411   4.648  17.121  0.00  0.00    +0.000 A 
ATOM     25  N   UNL     1       4.427   3.737  16.837  0.00  0.00    +0.000 N 
ATOM     26  H   UNL     1       4.017   3.572  15.929  0.00  0.00    +0.000 HD
BRANCH  21  27
ATOM     27  N   UNL     1       8.344   6.965  18.969  0.00  0.00    +0.000 N 
ATOM     28  H   UNL     1       8.815   6.453  19.711  0.00  0.00    +0.000 HD
ATOM     29  H   UNL     1       8.091   7.906  19.252  0.00  0.00    +0.000 HD
ENDBRANCH  21  27
ENDBRANCH  16  17
ENDBRANCH   1  16
TORSDOF 9
ENDMDL
MODEL 3
REMARK VINA RESULT:      -7.9      6.532      9.559
REMARK  Name = 
REMARK  10 active torsions:
REMARK  status: ('A' for Active; 'I' for Inactive)
REMARK    1  A    between atoms: C_1  and  O_2
REMARK    2  A    between atoms: O_2  and  C_3
REMARK    3  A    between atoms: C_3  and  C_5
REMARK    4  A    between atoms: C_8  and  C_9
REMARK    5  A    between atoms: C_9  and  O_11
REMARK    6  A    between atoms: O_11  and  C_12
REMARK    7  A    between atoms: C_12  and  C_13
REMARK    8  A    between atoms: C_13  and  C_14
REMARK    9  A    between atoms: C_14  and  C_15
REMARK   10  A    between atoms: C_19  and  N_20
REMARK                            x       y       z     vdW  Elec       q    Type
REMARK                         _______ _______ _______ _____ _____    ______ ____
ROOT
ATOM      1  C   UNL     1       1.673   8.918  18.695  0.00  0.00    +0.000 C 
ENDROOT
BRANCH   1   2
ATOM      2  C   UNL     1       2.162   7.702  19.483  0.00  0.00    +0.000 C 
BRANCH   2   3
ATOM      3  O   UNL     1       2.189   6.527  18.654  0.00  0.00    +0.000 OA
BRANCH   3   4
ATOM      4  C   UNL     1       3.184   5.649  18.928  0.00  0.00    +0.000 C 
ATOM      5  O   UNL     1       3.366   5.079  19.991  0.00  0.00    +0.000 OA
BRANCH   4   9
ATOM      6  C   UNL     1       5.760   5.014  15.540  0.00  0.00    +0.000 A 
ATOM      7  C   UNL     1       5.251   3.939  16.281  0.00  0.00    +0.000 A 
ATOM      8  C   UNL     1       4.418   4.168  17.379  0.00  0.00    +0.000 A 
ATOM      9  C   UNL     1       4.079   5.475  17.751  0.00  0.00    +0.000 A 
ATOM     10  C   UNL     1       4.588   6.554  17.015  0.00  0.00    +0.000 A 
ATOM     11  C   UNL     1       5.426   6.323  15.915  0.00  0.00    +0.000 A 
BRANCH   6  12
ATOM     12  C   UNL     1       6.631   4.705  14.372  0.00  0.00    +0.000 C 
ATOM     13  O   UNL     1       7.665   5.308  14.128  0.00  0.00    +0.000 OA
BRANCH  12  15
ATOM     14  C   UNL     1       6.573   3.656  12.290  0.00  0.00    +0.000 C 
ATOM     15  O   UNL     1       6.116   3.685  13.644  0.00  0.00    +0.000 OA
ENDBRANCH  12  15
ENDBRANCH   6  12
ENDBRANCH   4   9
ENDBRANCH   3   4
ENDBRANCH   2   3
ENDBRANCH   1   2
BRANCH   1  16
ATOM     16  C   UNL     1       0.772   9.855  19.508  0.00  0.00    +0.000 C 
BRANCH  16  17
ATOM     17  C   UNL     1      -0.431  10.279  18.738  0.00  0.00    +0.000 A 
ATOM     18  N   UNL     1      -1.467  10.939  19.211  0.00  0.00    +0.000 NA
ATOM     19  C   UNL     1      -2.385  10.965  18.193  0.00  0.00    +0.000 A 
ATOM     20  C   UNL     1      -3.683  11.494  18.175  0.00  0.00    +0.000 A 
ATOM     21  C   UNL     1      -4.480  11.315  17.038  0.00  0.00    +0.000 A 
ATOM     22  C   UNL     1      -3.928  10.719  15.897  0.00  0.00    +0.000 A 
ATOM     23  C   UNL     1      -2.620  10.208  15.880  0.00  0.00    +0.000 A 
ATOM     24  C   UNL     1      -1.885  10.343  17.057  0.00  0.00    +0.000 A 
ATOM     25  N   UNL     1      -0.614   9.969  17.412  0.00  0.00    +0.000 N 
ATOM     26  H   UNL     1       0.052   9.498  16.817  0.00  0.00    +0.000 HD
BRANCH  21  27
ATOM     27  N   UNL     1      -5.742  11.926  16.971  0.00  0.00    +0.000 N 
ATOM     28  H   UNL     1      -6.359  11.666  17.736  0.00  0.00    +0.000 HD
ATOM     29  H   UNL     1      -6.192  11.836  16.066  0.00  0.00    +0.000 HD
ENDBRANCH  21  27
ENDBRANCH  16  17
ENDBRANCH   1  16
TORSDOF 9
ENDMDL
MODEL 4
REMARK VINA RESULT:      -7.7      1.324      1.418
REMARK  Name = 
REMARK  10 active torsions:
REMARK  status: ('A' for Active; 'I' for Inactive)
REMARK    1  A    between atoms: C_1  and  O_2
REMARK    2  A    between atoms: O_2  and  C_3
REMARK    3  A    between atoms: C_3  and  C_5
REMARK    4  A    between atoms: C_8  and  C_9
REMARK    5  A    between atoms: C_9  and  O_11
REMARK    6  A    between atoms: O_11  and  C_12
REMARK    7  A    between atoms: C_12  and  C_13
REMARK    8  A    between atoms: C_13  and  C_14
REMARK    9  A    between atoms: C_14  and  C_15
REMARK   10  A    between atoms: C_19  and  N_20
REMARK                            x       y       z     vdW  Elec       q    Type
REMARK                         _______ _______ _______ _____ _____    ______ ____
ROOT
ATOM      1  C   UNL     1       8.052   9.107  17.810  0.00  0.00    +0.000 C 
ENDROOT
BRANCH   1   2
ATOM      2  C   UNL     1       7.870   7.588  17.808  0.00  0.00    +0.000 C 
BRANCH   2   3
ATOM      3  O   UNL     1       7.228   7.149  16.598  0.00  0.00    +0.000 OA
BRANCH   3   4
ATOM      4  C   UNL     1       6.890   5.836  16.567  0.00  0.00    +0.000 C 
ATOM      5  O   UNL     1       7.364   4.991  15.825  0.00  0.00    +0.000 OA
BRANCH   4   9
ATOM      6  C   UNL     1       3.715   5.071  19.368  0.00  0.00    +0.000 A 
ATOM      7  C   UNL     1       3.616   6.093  18.414  0.00  0.00    +0.000 A 
ATOM      8  C   UNL     1       4.660   6.325  17.516  0.00  0.00    +0.000 A 
ATOM      9  C   UNL     1       5.818   5.538  17.555  0.00  0.00    +0.000 A 
ATOM     10  C   UNL     1       5.923   4.516  18.509  0.00  0.00    +0.000 A 
ATOM     11  C   UNL     1       4.876   4.285  19.412  0.00  0.00    +0.000 A 
BRANCH   6  12
ATOM     12  C   UNL     1       2.563   4.863  20.289  0.00  0.00    +0.000 C 
ATOM     13  O   UNL     1       1.664   5.678  20.433  0.00  0.00    +0.000 OA
BRANCH  12  15
ATOM     14  C   UNL     1       1.400   3.057  21.197  0.00  0.00    +0.000 C 
ATOM     15  O   UNL     1       2.662   3.670  20.922  0.00  0.00    +0.000 OA
ENDBRANCH  12  15
ENDBRANCH   6  12
ENDBRANCH   4   9
ENDBRANCH   3   4
ENDBRANCH   2   3
ENDBRANCH   1   2
BRANCH   1  16
ATOM     16  C   UNL     1       8.959   9.614  18.938  0.00  0.00    +0.000 C 
BRANCH  16  17
ATOM     17  C   UNL     1       9.565  10.936  18.614  0.00  0.00    +0.000 A 
ATOM     18  N   UNL     1       8.974  11.932  17.987  0.00  0.00    +0.000 NA
ATOM     19  C   UNL     1       9.953  12.868  17.775  0.00  0.00    +0.000 A 
ATOM     20  C   UNL     1       9.881  14.097  17.105  0.00  0.00    +0.000 A 
ATOM     21  C   UNL     1      11.050  14.849  16.927  0.00  0.00    +0.000 A 
ATOM     22  C   UNL     1      12.242  14.420  17.525  0.00  0.00    +0.000 A 
ATOM     23  C   UNL     1      12.332  13.208  18.227  0.00  0.00    +0.000 A 
ATOM     24  C   UNL     1      11.161  12.455  18.319  0.00  0.00    +0.000 A 
ATOM     25  N   UNL     1      10.872  11.247  18.901  0.00  0.00    +0.000 N 
ATOM     26  H   UNL     1      11.522  10.663  19.408  0.00  0.00    +0.000 HD
BRANCH  21  27
ATOM     27  N   UNL     1      10.974  16.124  16.348  0.00  0.00    +0.000 N 
ATOM     28  H   UNL     1      11.698  16.760  16.672  0.00  0.00    +0.000 HD
ATOM     29  H   UNL     1      10.049  16.541  16.392  0.00  0.00    +0.000 HD
ENDBRANCH  21  27
ENDBRANCH  16  17
ENDBRANCH   1  16
TORSDOF 9
ENDMDL
MODEL 5
REMARK VINA RESULT:      -7.6      6.074      7.993
REMARK  Name = 
REMARK  10 active torsions:
REMARK  status: ('A' for Active; 'I' for Inactive)
REMARK    1  A    between atoms: C_1  and  O_2
REMARK    2  A    between atoms: O_2  and  C_3
REMARK    3  A    between atoms: C_3  and  C_5
REMARK    4  A    between atoms: C_8  and  C_9
REMARK    5  A    between atoms: C_9  and  O_11
REMARK    6  A    between atoms: O_11  and  C_12
REMARK    7  A    between atoms: C_12  and  C_13
REMARK    8  A    between atoms: C_13  and  C_14
REMARK    9  A    between atoms: C_14  and  C_15
REMARK   10  A    between atoms: C_19  and  N_20
REMARK                            x       y       z     vdW  Elec       q    Type
REMARK                         _______ _______ _______ _____ _____    ______ ____
ROOT
ATOM      1  C   UNL     1       1.096   4.012  20.700  0.00  0.00    +0.000 C 
ENDROOT
BRANCH   1   2
ATOM      2  C   UNL     1       1.459   2.556  20.995  0.00  0.00    +0.000 C 
BRANCH   2   3
ATOM      3  O   UNL     1       2.378   2.045  20.014  0.00  0.00    +0.000 OA
BRANCH   3   4
ATOM      4  C   UNL     1       2.125   2.418  18.735  0.00  0.00    +0.000 C 
ATOM      5  O   UNL     1       1.111   2.172  18.104  0.00  0.00    +0.000 OA
BRANCH   4   9
ATOM      6  C   UNL     1       5.524   4.554  17.189  0.00  0.00    +0.000 A 
ATOM      7  C   UNL     1       5.501   4.076  18.506  0.00  0.00    +0.000 A 
ATOM      8  C   UNL     1       4.386   3.387  18.988  0.00  0.00    +0.000 A 
ATOM      9  C   UNL     1       3.278   3.163  18.161  0.00  0.00    +0.000 A 
ATOM     10  C   UNL     1       3.296   3.641  16.843  0.00  0.00    +0.000 A 
ATOM     11  C   UNL     1       4.414   4.335  16.360  0.00  0.00    +0.000 A 
BRANCH   6  12
ATOM     12  C   UNL     1       6.747   5.269  16.728  0.00  0.00    +0.000 C 
ATOM     13  O   UNL     1       7.754   5.383  17.410  0.00  0.00    +0.000 OA
BRANCH  12  15
ATOM     14  C   UNL     1       7.160   4.945  14.455  0.00  0.00    +0.000 C 
ATOM     15  O   UNL     1       6.577   5.758  15.477  0.00  0.00    +0.000 OA
ENDBRANCH  12  15
ENDBRANCH   6  12
ENDBRANCH   4   9
ENDBRANCH   3   4
ENDBRANCH   2   3
ENDBRANCH   1   2
BRANCH   1  16
ATOM     16  C   UNL     1       2.087   5.022  21.290  0.00  0.00    +0.000 C 
BRANCH  16  17
ATOM     17  C   UNL     1       2.022   6.338  20.593  0.00  0.00    +0.000 A 
ATOM     18  N   UNL     1       1.374   7.407  21.005  0.00  0.00    +0.000 NA
ATOM     19  C   UNL     1       1.463   8.313  19.979  0.00  0.00    +0.000 A 
ATOM     20  C   UNL     1       0.906   9.594  19.870  0.00  0.00    +0.000 A 
ATOM     21  C   UNL     1       1.054  10.305  18.672  0.00  0.00    +0.000 A 
ATOM     22  C   UNL     1       1.856   9.776  17.652  0.00  0.00    +0.000 A 
ATOM     23  C   UNL     1       2.450   8.508  17.751  0.00  0.00    +0.000 A 
ATOM     24  C   UNL     1       2.218   7.803  18.932  0.00  0.00    +0.000 A 
ATOM     25  N   UNL     1       2.613   6.566  19.374  0.00  0.00    +0.000 N 
ATOM     26  H   UNL     1       3.195   5.914  18.866  0.00  0.00    +0.000 HD
BRANCH  21  27
ATOM     27  N   UNL     1       0.589  11.625  18.585  0.00  0.00    +0.000 N 
ATOM     28  H   UNL     1       0.966  12.235  19.306  0.00  0.00    +0.000 HD
ATOM     29  H   UNL     1      -0.420  11.700  18.507  0.00  0.00    +0.000 HD
ENDBRANCH  21  27
ENDBRANCH  16  17
ENDBRANCH   1  16
TORSDOF 9
ENDMDL
MODEL 6
REMARK VINA RESULT:      -7.6      5.087      8.048
REMARK  Name = 
REMARK  10 active torsions:
REMARK  status: ('A' for Active; 'I' for Inactive)
REMARK    1  A    between atoms: C_1  and  O_2
REMARK    2  A    between atoms: O_2  and  C_3
REMARK    3  A    between atoms: C_3  and  C_5
REMARK    4  A    between atoms: C_8  and  C_9
REMARK    5  A    between atoms: C_9  and  O_11
REMARK    6  A    between atoms: O_11  and  C_12
REMARK    7  A    between atoms: C_12  and  C_13
REMARK    8  A    between atoms: C_13  and  C_14
REMARK    9  A    between atoms: C_14  and  C_15
REMARK   10  A    between atoms: C_19  and  N_20
REMARK                            x       y       z     vdW  Elec       q    Type
REMARK                         _______ _______ _______ _____ _____    ______ ____
ROOT
ATOM      1  C   UNL     1       1.869   2.162  18.311  0.00  0.00    +0.000 C 
ENDROOT
BRANCH   1   2
ATOM      2  C   UNL     1       1.726   3.063  19.540  0.00  0.00    +0.000 C 
BRANCH   2   3
ATOM      3  O   UNL     1       1.644   4.447  19.157  0.00  0.00    +0.000 OA
BRANCH   3   4
ATOM      4  C   UNL     1       2.249   5.318  20.002  0.00  0.00    +0.000 C 
ATOM      5  O   UNL     1       2.870   5.025  21.010  0.00  0.00    +0.000 OA
BRANCH   4   9
ATOM      6  C   UNL     1       1.590   9.409  18.844  0.00  0.00    +0.000 A 
ATOM      7  C   UNL     1       1.245   8.947  20.122  0.00  0.00    +0.000 A 
ATOM      8  C   UNL     1       1.466   7.614  20.476  0.00  0.00    +0.000 A 
ATOM      9  C   UNL     1       2.037   6.723  19.559  0.00  0.00    +0.000 A 
ATOM     10  C   UNL     1       2.381   7.179  18.279  0.00  0.00    +0.000 A 
ATOM     11  C   UNL     1       2.157   8.516  17.924  0.00  0.00    +0.000 A 
BRANCH   6  12
ATOM     12  C   UNL     1       1.343  10.844  18.531  0.00  0.00    +0.000 C 
ATOM     13  O   UNL     1       0.281  11.406  18.752  0.00  0.00    +0.000 OA
BRANCH  12  15
ATOM     14  C   UNL     1       2.524  12.826  18.185  0.00  0.00    +0.000 C 
ATOM     15  O   UNL     1       2.443  11.413  17.982  0.00  0.00    +0.000 OA
ENDBRANCH  12  15
ENDBRANCH   6  12
ENDBRANCH   4   9
ENDBRANCH   3   4
ENDBRANCH   2   3
ENDBRANCH   1   2
BRANCH   1  16
ATOM     16  C   UNL     1       3.325   1.875  17.928  0.00  0.00    +0.000 C 
BRANCH  16  17
ATOM     17  C   UNL     1       4.174   3.098  18.007  0.00  0.00    +0.000 A 
ATOM     18  N   UNL     1       4.205   4.083  17.134  0.00  0.00    +0.000 NA
ATOM     19  C   UNL     1       5.233   4.898  17.533  0.00  0.00    +0.000 A 
ATOM     20  C   UNL     1       5.734   6.060  16.932  0.00  0.00    +0.000 A 
ATOM     21  C   UNL     1       6.868   6.678  17.475  0.00  0.00    +0.000 A 
ATOM     22  C   UNL     1       7.407   6.196  18.675  0.00  0.00    +0.000 A 
ATOM     23  C   UNL     1       6.903   5.051  19.313  0.00  0.00    +0.000 A 
ATOM     24  C   UNL     1       5.818   4.424  18.699  0.00  0.00    +0.000 A 
ATOM     25  N   UNL     1       5.084   3.309  19.014  0.00  0.00    +0.000 N 
ATOM     26  H   UNL     1       5.225   2.715  19.819  0.00  0.00    +0.000 HD
BRANCH  21  27
ATOM     27  N   UNL     1       7.318   7.896  16.943  0.00  0.00    +0.000 N 
ATOM     28  H   UNL     1       7.799   7.795  16.053  0.00  0.00    +0.000 HD
ATOM     29  H   UNL     1       7.843   8.462  17.602  0.00  0.00    +0.000 HD
ENDBRANCH  21  27
ENDBRANCH  16  17
ENDBRANCH   1  16
TORSDOF 9
ENDMDL
MODEL 7
REMARK VINA RESULT:      -7.6      6.447      8.434
REMARK  Name = 
REMARK  10 active torsions:
REMARK  status: ('A' for Active; 'I' for Inactive)
REMARK    1  A    between atoms: C_1  and  O_2
REMARK    2  A    between atoms: O_2  and  C_3
REMARK    3  A    between atoms: C_3  and  C_5
REMARK    4  A    between atoms: C_8  and  C_9
REMARK    5  A    between atoms: C_9  and  O_11
REMARK    6  A    between atoms: O_11  and  C_12
REMARK    7  A    between atoms: C_12  and  C_13
REMARK    8  A    between atoms: C_13  and  C_14
REMARK    9  A    between atoms: C_14  and  C_15
REMARK   10  A    between atoms: C_19  and  N_20
REMARK                            x       y       z     vdW  Elec       q    Type
REMARK                         _______ _______ _______ _____ _____    ______ ____
ROOT
ATOM      1  C   UNL     1       1.430   4.690  20.731  0.00  0.00    +0.000 C 
ENDROOT
BRANCH   1   2
ATOM      2  C   UNL     1       2.414   3.706  21.367  0.00  0.00    +0.000 C 
BRANCH   2   3
ATOM      3  O   UNL     1       2.776   2.668  20.440  0.00  0.00    +0.000 OA
BRANCH   3   4
ATOM      4  C   UNL     1       4.101   2.567  20.173  0.00  0.00    +0.000 C 
ATOM      5  O   UNL     1       4.909   1.895  20.793  0.00  0.00    +0.000 OA
BRANCH   4   9
ATOM      6  C   UNL     1       5.095   4.973  16.748  0.00  0.00    +0.000 A 
ATOM      7  C   UNL     1       4.141   3.950  16.668  0.00  0.00    +0.000 A 
ATOM      8  C   UNL     1       3.835   3.180  17.792  0.00  0.00    +0.000 A 
ATOM      9  C   UNL     1       4.476   3.421  19.014  0.00  0.00    +0.000 A 
ATOM     10  C   UNL     1       5.434   4.442  19.097  0.00  0.00    +0.000 A 
ATOM     11  C   UNL     1       5.742   5.213  17.968  0.00  0.00    +0.000 A 
BRANCH   6  12
ATOM     12  C   UNL     1       5.368   5.769  15.518  0.00  0.00    +0.000 C 
ATOM     13  O   UNL     1       5.297   6.988  15.480  0.00  0.00    +0.000 OA
BRANCH  12  15
ATOM     14  C   UNL     1       7.098   4.709  14.369  0.00  0.00    +0.000 C 
ATOM     15  O   UNL     1       5.695   4.960  14.483  0.00  0.00    +0.000 OA
ENDBRANCH  12  15
ENDBRANCH   6  12
ENDBRANCH   4   9
ENDBRANCH   3   4
ENDBRANCH   2   3
ENDBRANCH   1   2
BRANCH   1  16
ATOM     16  C   UNL     1       2.112   5.848  19.993  0.00  0.00    +0.000 C 
BRANCH  16  17
ATOM     17  C   UNL     1       1.601   7.174  20.445  0.00  0.00    +0.000 A 
ATOM     18  N   UNL     1       1.011   7.431  21.593  0.00  0.00    +0.000 NA
ATOM     19  C   UNL     1       0.577   8.729  21.503  0.00  0.00    +0.000 A 
ATOM     20  C   UNL     1      -0.157   9.490  22.423  0.00  0.00    +0.000 A 
ATOM     21  C   UNL     1      -0.575  10.778  22.067  0.00  0.00    +0.000 A 
ATOM     22  C   UNL     1      -0.152  11.328  20.851  0.00  0.00    +0.000 A 
ATOM     23  C   UNL     1       0.610  10.596  19.925  0.00  0.00    +0.000 A 
ATOM     24  C   UNL     1       0.944   9.292  20.289  0.00  0.00    +0.000 A 
ATOM     25  N   UNL     1       1.649   8.299  19.658  0.00  0.00    +0.000 N 
ATOM     26  H   UNL     1       2.082   8.366  18.748  0.00  0.00    +0.000 HD
BRANCH  21  27
ATOM     27  N   UNL     1      -1.222  11.586  23.015  0.00  0.00    +0.000 N 
ATOM     28  H   UNL     1      -1.961  12.161  22.619  0.00  0.00    +0.000 HD
ATOM     29  H   UNL     1      -0.588  12.122  23.598  0.00  0.00    +0.000 HD
ENDBRANCH  21  27
ENDBRANCH  16  17
ENDBRANCH   1  16
TORSDOF 9
ENDMDL
MODEL 8
REMARK VINA RESULT:      -7.5      5.992      7.918
REMARK  Name = 
REMARK  10 active torsions:
REMARK  status: ('A' for Active; 'I' for Inactive)
REMARK    1  A    between atoms: C_1  and  O_2
REMARK    2  A    between atoms: O_2  and  C_3
REMARK    3  A    between atoms: C_3  and  C_5
REMARK    4  A    between atoms: C_8  and  C_9
REMARK    5  A    between atoms: C_9  and  O_11
REMARK    6  A    between atoms: O_11  and  C_12
REMARK    7  A    between atoms: C_12  and  C_13
REMARK    8  A    between atoms: C_13  and  C_14
REMARK    9  A    between atoms: C_14  and  C_15
REMARK   10  A    between atoms: C_19  and  N_20
REMARK                            x       y       z     vdW  Elec       q    Type
REMARK                         _______ _______ _______ _____ _____    ______ ____
ROOT
ATOM      1  C   UNL     1       0.972   4.078  20.458  0.00  0.00    +0.000 C 
ENDROOT
BRANCH   1   2
ATOM      2  C   UNL     1       1.415   3.507  19.109  0.00  0.00    +0.000 C 
BRANCH   2   3
ATOM      3  O   UNL     1       2.184   2.305  19.286  0.00  0.00    +0.000 OA
BRANCH   3   4
ATOM      4  C   UNL     1       3.462   2.491  19.698  0.00  0.00    +0.000 C 
ATOM      5  O   UNL     1       3.943   2.097  20.748  0.00  0.00    +0.000 OA
BRANCH   4   9
ATOM      6  C   UNL     1       5.754   4.841  16.917  0.00  0.00    +0.000 A 
ATOM      7  C   UNL     1       5.908   4.995  18.302  0.00  0.00    +0.000 A 
ATOM      8  C   UNL     1       5.152   4.222  19.186  0.00  0.00    +0.000 A 
ATOM      9  C   UNL     1       4.232   3.284  18.701  0.00  0.00    +0.000 A 
ATOM     10  C   UNL     1       4.073   3.129  17.317  0.00  0.00    +0.000 A 
ATOM     11  C   UNL     1       4.830   3.906  16.429  0.00  0.00    +0.000 A 
BRANCH   6  12
ATOM     12  C   UNL     1       6.599   5.683  16.024  0.00  0.00    +0.000 C 
ATOM     13  O   UNL     1       7.539   6.353  16.426  0.00  0.00    +0.000 OA
BRANCH  12  15
ATOM     14  C   UNL     1       7.033   4.808  13.906  0.00  0.00    +0.000 C 
ATOM     15  O   UNL     1       6.179   5.595  14.740  0.00  0.00    +0.000 OA
ENDBRANCH  12  15
ENDBRANCH   6  12
ENDBRANCH   4   9
ENDBRANCH   3   4
ENDBRANCH   2   3
ENDBRANCH   1   2
BRANCH   1  16
ATOM     16  C   UNL     1       2.008   5.010  21.099  0.00  0.00    +0.000 C 
BRANCH  16  17
ATOM     17  C   UNL     1       1.957   6.382  20.519  0.00  0.00    +0.000 A 
ATOM     18  N   UNL     1       1.319   7.418  21.022  0.00  0.00    +0.000 NA
ATOM     19  C   UNL     1       1.419   8.408  20.079  0.00  0.00    +0.000 A 
ATOM     20  C   UNL     1       0.876   9.700  20.081  0.00  0.00    +0.000 A 
ATOM     21  C   UNL     1       1.031  10.510  18.949  0.00  0.00    +0.000 A 
ATOM     22  C   UNL     1       1.828  10.063  17.887  0.00  0.00    +0.000 A 
ATOM     23  C   UNL     1       2.409   8.785  17.875  0.00  0.00    +0.000 A 
ATOM     24  C   UNL     1       2.169   7.983  18.991  0.00  0.00    +0.000 A 
ATOM     25  N   UNL     1       2.551   6.708  19.323  0.00  0.00    +0.000 N 
ATOM     26  H   UNL     1       3.125   6.097  18.761  0.00  0.00    +0.000 HD
BRANCH  21  27
ATOM     27  N   UNL     1       0.580  11.838  18.978  0.00  0.00    +0.000 N 
ATOM     28  H   UNL     1       1.327  12.521  18.882  0.00  0.00    +0.000 HD
ATOM     29  H   UNL     1      -0.033  12.046  19.759  0.00  0.00    +0.000 HD
ENDBRANCH  21  27
ENDBRANCH  16  17
ENDBRANCH   1  16
TORSDOF 9
ENDMDL
MODEL 9
REMARK VINA RESULT:      -7.5      6.142      8.670
REMARK  Name = 
REMARK  10 active torsions:
REMARK  status: ('A' for Active; 'I' for Inactive)
REMARK    1  A    between atoms: C_1  and  O_2
REMARK    2  A    between atoms: O_2  and  C_3
REMARK    3  A    between atoms: C_3  and  C_5
REMARK    4  A    between atoms: C_8  and  C_9
REMARK    5  A    between atoms: C_9  and  O_11
REMARK    6  A    between atoms: O_11  and  C_12
REMARK    7  A    between atoms: C_12  and  C_13
REMARK    8  A    between atoms: C_13  and  C_14
REMARK    9  A    between atoms: C_14  and  C_15
REMARK   10  A    between atoms: C_19  and  N_20
REMARK                            x       y       z     vdW  Elec       q    Type
REMARK                         _______ _______ _______ _____ _____    ______ ____
ROOT
ATOM      1  C   UNL     1       1.980   3.188  20.389  0.00  0.00    +0.000 C 
ENDROOT
BRANCH   1   2
ATOM      2  C   UNL     1       1.570   4.526  19.772  0.00  0.00    +0.000 C 
BRANCH   2   3
ATOM      3  O   UNL     1       2.326   5.609  20.341  0.00  0.00    +0.000 OA
BRANCH   3   4
ATOM      4  C   UNL     1       2.585   6.639  19.499  0.00  0.00    +0.000 C 
ATOM      5  O   UNL     1       3.401   6.637  18.592  0.00  0.00    +0.000 OA
BRANCH   4   9
ATOM      6  C   UNL     1       0.197  10.114  20.354  0.00  0.00    +0.000 A 
ATOM      7  C   UNL     1       0.828   9.950  19.113  0.00  0.00    +0.000 A 
ATOM      8  C   UNL     1       1.600   8.814  18.858  0.00  0.00    +0.000 A 
ATOM      9  C   UNL     1       1.753   7.825  19.838  0.00  0.00    +0.000 A 
ATOM     10  C   UNL     1       1.126   7.987  21.082  0.00  0.00    +0.000 A 
ATOM     11  C   UNL     1       0.352   9.127  21.338  0.00  0.00    +0.000 A 
BRANCH   6  12
ATOM     12  C   UNL     1      -0.625  11.339  20.561  0.00  0.00    +0.000 C 
ATOM     13  O   UNL     1      -0.847  12.155  19.679  0.00  0.00    +0.000 OA
BRANCH  12  15
ATOM     14  C   UNL     1      -0.757  12.635  22.496  0.00  0.00    +0.000 C 
ATOM     15  O   UNL     1      -1.076  11.407  21.836  0.00  0.00    +0.000 OA
ENDBRANCH  12  15
ENDBRANCH   6  12
ENDBRANCH   4   9
ENDBRANCH   3   4
ENDBRANCH   2   3
ENDBRANCH   1   2
BRANCH   1  16
ATOM     16  C   UNL     1       2.803   2.303  19.444  0.00  0.00    +0.000 C 
BRANCH  16  17
ATOM     17  C   UNL     1       3.809   3.093  18.678  0.00  0.00    +0.000 A 
ATOM     18  N   UNL     1       3.872   3.213  17.369  0.00  0.00    +0.000 NA
ATOM     19  C   UNL     1       5.036   3.892  17.115  0.00  0.00    +0.000 A 
ATOM     20  C   UNL     1       5.616   4.241  15.888  0.00  0.00    +0.000 A 
ATOM     21  C   UNL     1       6.875   4.855  15.875  0.00  0.00    +0.000 A 
ATOM     22  C   UNL     1       7.476   5.217  17.087  0.00  0.00    +0.000 A 
ATOM     23  C   UNL     1       6.901   4.906  18.329  0.00  0.00    +0.000 A 
ATOM     24  C   UNL     1       5.681   4.230  18.297  0.00  0.00    +0.000 A 
ATOM     25  N   UNL     1       4.847   3.762  19.280  0.00  0.00    +0.000 N 
ATOM     26  H   UNL     1       4.997   3.849  20.275  0.00  0.00    +0.000 HD
BRANCH  21  27
ATOM     27  N   UNL     1       7.419   5.299  14.661  0.00  0.00    +0.000 N 
ATOM     28  H   UNL     1       7.205   6.272  14.454  0.00  0.00    +0.000 HD
ATOM     29  H   UNL     1       7.224   4.687  13.875  0.00  0.00    +0.000 HD
ENDBRANCH  21  27
ENDBRANCH  16  17
ENDBRANCH   1  16
TORSDOF 9
ENDMDL
