MODEL 1
REMARK VINA RESULT:      -8.0      0.000      0.000
REMARK  Name = 
REMARK  5 active torsions:
REMARK  status: ('A' for Active; 'I' for Inactive)
REMARK    1  A    between atoms: C_1  and  C_2
REMARK    2  A    between atoms: C_2  and  C_3
REMARK    3  A    between atoms: C_6  and  C_7
REMARK    4  A    between atoms: C_8  and  C_9
REMARK    5  A    between atoms: N_11  and  C_12
REMARK                            x       y       z     vdW  Elec       q    Type
REMARK                         _______ _______ _______ _____ _____    ______ ____
ROOT
ATOM      1  C   UNL     1       4.809   4.933  16.809  0.00  0.00    +0.000 C 
ATOM      2  O   UNL     1       4.058   5.877  17.035  0.00  0.00    +0.000 OA
ATOM      3  N   UNL     1       4.658   3.661  17.344  0.00  0.00    +0.000 N 
ATOM      4  H   UNL     1       5.450   3.035  17.280  0.00  0.00    +0.000 HD
ENDROOT
BRANCH   3   5
ATOM      5  C   UNL     1       3.609   3.269  18.214  0.00  0.00    +0.000 A 
ATOM      6  C   UNL     1       2.284   3.064  17.769  0.00  0.00    +0.000 A 
ATOM      7  C   UNL     1       1.250   2.763  18.661  0.00  0.00    +0.000 A 
ATOM      8  C   UNL     1       1.567   2.662  19.990  0.00  0.00    +0.000 A 
ATOM      9  C   UNL     1       2.857   2.819  20.437  0.00  0.00    +0.000 A 
ATOM     10  C   UNL     1       3.903   3.103  19.575  0.00  0.00    +0.000 A 
ATOM     11  O   UNL     1       2.951   2.686  21.788  0.00  0.00    +0.000 OA
ATOM     12  C   UNL     1       1.561   2.502  22.141  0.00  0.00    +0.000 C 
ATOM     13  O   UNL     1       0.689   2.415  20.998  0.00  0.00    +0.000 OA
ENDBRANCH   3   5
BRANCH   1  19
ATOM     14  C   UNL     1       7.054   5.941  16.392  0.00  0.00    +0.000 A 
ATOM     15  O   UNL     1       7.987   5.979  15.405  0.00  0.00    +0.000 OA
ATOM     16  N   UNL     1       7.566   5.207  14.345  0.00  0.00    +0.000 NA
ATOM     17  C   UNL     1       6.371   4.714  14.695  0.00  0.00    +0.000 A 
ATOM     18  C   UNL     1       5.633   3.877  13.721  0.00  0.00    +0.000 C 
ATOM     19  C   UNL     1       5.996   5.143  15.999  0.00  0.00    +0.000 A 
BRANCH  14  21
ATOM     20  C   UNL     1       7.740   5.795  18.788  0.00  0.00    +0.000 C 
ATOM     21  C   UNL     1       7.377   6.703  17.625  0.00  0.00    +0.000 C 
ENDBRANCH  14  21
ENDBRANCH   1  19
TORSDOF 3
ENDMDL
MODEL 2
REMARK VINA RESULT:      -7.5      1.078      1.148
REMARK  Name = 
REMARK  5 active torsions:
REMARK  status: ('A' for Active; 'I' for Inactive)
REMARK    1  A    between atoms: C_1  and  C_2
REMARK    2  A    between atoms: C_2  and  C_3
REMARK    3  A    between atoms: C_6  and  C_7
REMARK    4  A    between atoms: C_8  and  C_9
REMARK    5  A    between atoms: N_11  and  C_12
REMARK                            x       y       z     vdW  Elec       q    Type
REMARK                         _______ _______ _______ _____ _____    ______ ____
ROOT
ATOM      1  C   UNL     1       5.354   3.828  16.460  0.00  0.00    +0.000 C 
ATOM      2  O   UNL     1       5.280   2.608  16.350  0.00  0.00    +0.000 OA
ATOM      3  N   UNL     1       4.518   4.599  17.255  0.00  0.00    +0.000 N 
ATOM      4  H   UNL     1       4.516   5.598  17.093  0.00  0.00    +0.000 HD
ENDROOT
BRANCH   3   5
ATOM      5  C   UNL     1       3.470   4.087  18.062  0.00  0.00    +0.000 A 
ATOM      6  C   UNL     1       2.122   4.064  17.640  0.00  0.00    +0.000 A 
ATOM      7  C   UNL     1       1.097   3.634  18.488  0.00  0.00    +0.000 A 
ATOM      8  C   UNL     1       1.444   3.225  19.749  0.00  0.00    +0.000 A 
ATOM      9  C   UNL     1       2.755   3.204  20.164  0.00  0.00    +0.000 A 
ATOM     10  C   UNL     1       3.791   3.609  19.340  0.00  0.00    +0.000 A 
ATOM     11  O   UNL     1       2.878   2.770  21.448  0.00  0.00    +0.000 OA
ATOM     12  C   UNL     1       1.490   2.595  21.811  0.00  0.00    +0.000 C 
ATOM     13  O   UNL     1       0.581   2.814  20.715  0.00  0.00    +0.000 OA
ENDBRANCH   3   5
BRANCH   1  19
ATOM     14  C   UNL     1       7.137   5.549  16.164  0.00  0.00    +0.000 A 
ATOM     15  O   UNL     1       7.887   6.079  15.163  0.00  0.00    +0.000 OA
ATOM     16  N   UNL     1       7.578   5.451  13.976  0.00  0.00    +0.000 NA
ATOM     17  C   UNL     1       6.632   4.548  14.268  0.00  0.00    +0.000 A 
ATOM     18  C   UNL     1       6.053   3.743  13.168  0.00  0.00    +0.000 C 
ATOM     19  C   UNL     1       6.316   4.560  15.655  0.00  0.00    +0.000 A 
BRANCH  14  21
ATOM     20  C   UNL     1       7.594   7.607  17.503  0.00  0.00    +0.000 C 
ATOM     21  C   UNL     1       7.377   6.103  17.522  0.00  0.00    +0.000 C 
ENDBRANCH  14  21
ENDBRANCH   1  19
TORSDOF 3
ENDMDL
MODEL 3
REMARK VINA RESULT:      -7.2      1.073      1.183
REMARK  Name = 
REMARK  5 active torsions:
REMARK  status: ('A' for Active; 'I' for Inactive)
REMARK    1  A    between atoms: C_1  and  C_2
REMARK    2  A    between atoms: C_2  and  C_3
REMARK    3  A    between atoms: C_6  and  C_7
REMARK    4  A    between atoms: C_8  and  C_9
REMARK    5  A    between atoms: N_11  and  C_12
REMARK                            x       y       z     vdW  Elec       q    Type
REMARK                         _______ _______ _______ _____ _____    ______ ____
ROOT
ATOM      1  C   UNL     1       5.648   4.489  17.764  0.00  0.00    +0.000 C 
ATOM      2  O   UNL     1       6.165   3.982  18.755  0.00  0.00    +0.000 OA
ATOM      3  N   UNL     1       4.284   4.511  17.510  0.00  0.00    +0.000 N 
ATOM      4  H   UNL     1       3.992   4.742  16.570  0.00  0.00    +0.000 HD
ENDROOT
BRANCH   3   5
ATOM      5  C   UNL     1       3.293   3.965  18.366  0.00  0.00    +0.000 A 
ATOM      6  C   UNL     1       1.934   3.868  17.995  0.00  0.00    +0.000 A 
ATOM      7  C   UNL     1       0.962   3.406  18.888  0.00  0.00    +0.000 A 
ATOM      8  C   UNL     1       1.376   3.039  20.142  0.00  0.00    +0.000 A 
ATOM      9  C   UNL     1       2.700   3.090  20.508  0.00  0.00    +0.000 A 
ATOM     10  C   UNL     1       3.685   3.528  19.639  0.00  0.00    +0.000 A 
ATOM     11  O   UNL     1       2.892   2.688  21.794  0.00  0.00    +0.000 OA
ATOM     12  C   UNL     1       1.529   2.453  22.213  0.00  0.00    +0.000 C 
ATOM     13  O   UNL     1       0.570   2.606  21.148  0.00  0.00    +0.000 OA
ENDBRANCH   3   5
BRANCH   1  19
ATOM     14  C   UNL     1       7.321   6.133  16.911  0.00  0.00    +0.000 A 
ATOM     15  O   UNL     1       7.947   6.439  15.744  0.00  0.00    +0.000 OA
ATOM     16  N   UNL     1       7.549   5.557  14.765  0.00  0.00    +0.000 NA
ATOM     17  C   UNL     1       6.675   4.724  15.346  0.00  0.00    +0.000 A 
ATOM     18  C   UNL     1       6.025   3.683  14.517  0.00  0.00    +0.000 C 
ATOM     19  C   UNL     1       6.496   5.040  16.721  0.00  0.00    +0.000 A 
BRANCH  14  21
ATOM     20  C   UNL     1       7.877   8.437  17.698  0.00  0.00    +0.000 C 
ATOM     21  C   UNL     1       7.670   6.980  18.080  0.00  0.00    +0.000 C 
ENDBRANCH  14  21
ENDBRANCH   1  19
TORSDOF 3
ENDMDL
MODEL 4
REMARK VINA RESULT:      -7.2      4.561      6.176
REMARK  Name = 
REMARK  5 active torsions:
REMARK  status: ('A' for Active; 'I' for Inactive)
REMARK    1  A    between atoms: C_1  and  C_2
REMARK    2  A    between atoms: C_2  and  C_3
REMARK    3  A    between atoms: C_6  and  C_7
REMARK    4  A    between atoms: C_8  and  C_9
REMARK    5  A    between atoms: N_11  and  C_12
REMARK                            x       y       z     vdW  Elec       q    Type
REMARK                         _______ _______ _______ _____ _____    ______ ____
ROOT
ATOM      1  C   UNL     1       2.624   5.077  19.197  0.00  0.00    +0.000 C 
ATOM      2  O   UNL     1       1.832   4.888  18.279  0.00  0.00    +0.000 OA
ATOM      3  N   UNL     1       2.860   6.309  19.792  0.00  0.00    +0.000 N 
ATOM      4  H   UNL     1       3.687   6.393  20.369  0.00  0.00    +0.000 HD
ENDROOT
BRANCH   3   5
ATOM      5  C   UNL     1       2.212   7.518  19.434  0.00  0.00    +0.000 A 
ATOM      6  C   UNL     1       2.324   8.093  18.148  0.00  0.00    +0.000 A 
ATOM      7  C   UNL     1       1.746   9.330  17.847  0.00  0.00    +0.000 A 
ATOM      8  C   UNL     1       1.054   9.968  18.843  0.00  0.00    +0.000 A 
ATOM      9  C   UNL     1       0.901   9.406  20.088  0.00  0.00    +0.000 A 
ATOM     10  C   UNL     1       1.449   8.176  20.410  0.00  0.00    +0.000 A 
ATOM     11  O   UNL     1       0.187  10.205  20.927  0.00  0.00    +0.000 OA
ATOM     12  C   UNL     1      -0.023  11.362  20.087  0.00  0.00    +0.000 C 
ATOM     13  O   UNL     1       0.463  11.188  18.742  0.00  0.00    +0.000 OA
ENDBRANCH   3   5
BRANCH   1  19
ATOM     14  C   UNL     1       4.709   3.707  19.165  0.00  0.00    +0.000 A 
ATOM     15  O   UNL     1       5.208   2.594  19.763  0.00  0.00    +0.000 OA
ATOM     16  N   UNL     1       4.290   2.110  20.669  0.00  0.00    +0.000 NA
ATOM     17  C   UNL     1       3.234   2.932  20.605  0.00  0.00    +0.000 A 
ATOM     18  C   UNL     1       2.047   2.633  21.438  0.00  0.00    +0.000 C 
ATOM     19  C   UNL     1       3.449   3.978  19.665  0.00  0.00    +0.000 A 
BRANCH  14  21
ATOM     20  C   UNL     1       6.388   5.517  18.788  0.00  0.00    +0.000 C 
ATOM     21  C   UNL     1       5.599   4.370  18.177  0.00  0.00    +0.000 C 
ENDBRANCH  14  21
ENDBRANCH   1  19
TORSDOF 3
ENDMDL
MODEL 5
REMARK VINA RESULT:      -7.2      0.617      2.349
REMARK  Name = 
REMARK  5 active torsions:
REMARK  status: ('A' for Active; 'I' for Inactive)
REMARK    1  A    between atoms: C_1  and  C_2
REMARK    2  A    between atoms: C_2  and  C_3
REMARK    3  A    between atoms: C_6  and  C_7
REMARK    4  A    between atoms: C_8  and  C_9
REMARK    5  A    between atoms: N_11  and  C_12
REMARK                            x       y       z     vdW  Elec       q    Type
REMARK                         _______ _______ _______ _____ _____    ______ ____
ROOT
ATOM      1  C   UNL     1       4.755   5.184  16.913  0.00  0.00    +0.000 C 
ATOM      2  O   UNL     1       3.972   6.106  17.119  0.00  0.00    +0.000 OA
ATOM      3  N   UNL     1       4.625   3.907  17.440  0.00  0.00    +0.000 N 
ATOM      4  H   UNL     1       5.436   3.304  17.398  0.00  0.00    +0.000 HD
ENDROOT
BRANCH   3   5
ATOM      5  C   UNL     1       3.562   3.483  18.279  0.00  0.00    +0.000 A 
ATOM      6  C   UNL     1       2.236   3.336  17.815  0.00  0.00    +0.000 A 
ATOM      7  C   UNL     1       1.191   3.000  18.682  0.00  0.00    +0.000 A 
ATOM      8  C   UNL     1       1.498   2.807  20.003  0.00  0.00    +0.000 A 
ATOM      9  C   UNL     1       2.789   2.907  20.465  0.00  0.00    +0.000 A 
ATOM     10  C   UNL     1       3.845   3.223  19.627  0.00  0.00    +0.000 A 
ATOM     11  O   UNL     1       2.873   2.685  21.805  0.00  0.00    +0.000 OA
ATOM     12  C   UNL     1       1.477   2.509  22.139  0.00  0.00    +0.000 C 
ATOM     13  O   UNL     1       0.610   2.515  20.989  0.00  0.00    +0.000 OA
ENDBRANCH   3   5
BRANCH   1  19
ATOM     14  C   UNL     1       6.192   4.864  14.898  0.00  0.00    +0.000 A 
ATOM     15  O   UNL     1       7.417   5.242  14.448  0.00  0.00    +0.000 OA
ATOM     16  N   UNL     1       8.014   6.064  15.379  0.00  0.00    +0.000 NA
ATOM     17  C   UNL     1       7.146   6.170  16.393  0.00  0.00    +0.000 A 
ATOM     18  C   UNL     1       7.536   6.959  17.584  0.00  0.00    +0.000 C 
ATOM     19  C   UNL     1       5.958   5.430  16.137  0.00  0.00    +0.000 A 
BRANCH  14  21
ATOM     20  C   UNL     1       6.190   3.585  12.753  0.00  0.00    +0.000 C 
ATOM     21  C   UNL     1       5.403   3.995  13.988  0.00  0.00    +0.000 C 
ENDBRANCH  14  21
ENDBRANCH   1  19
TORSDOF 3
ENDMDL
MODEL 6
REMARK VINA RESULT:      -7.0      4.748      6.527
REMARK  Name = 
REMARK  5 active torsions:
REMARK  status: ('A' for Active; 'I' for Inactive)
REMARK    1  A    between atoms: C_1  and  C_2
REMARK    2  A    between atoms: C_2  and  C_3
REMARK    3  A    between atoms: C_6  and  C_7
REMARK    4  A    between atoms: C_8  and  C_9
REMARK    5  A    between atoms: N_11  and  C_12
REMARK                            x       y       z     vdW  Elec       q    Type
REMARK                         _______ _______ _______ _____ _____    ______ ____
ROOT
ATOM      1  C   UNL     1       2.578   5.473  18.909  0.00  0.00    +0.000 C 
ATOM      2  O   UNL     1       1.936   5.434  17.864  0.00  0.00    +0.000 OA
ATOM      3  N   UNL     1       2.677   6.586  19.733  0.00  0.00    +0.000 N 
ATOM      4  H   UNL     1       3.407   6.580  20.433  0.00  0.00    +0.000 HD
ENDROOT
BRANCH   3   5
ATOM      5  C   UNL     1       2.040   7.830  19.491  0.00  0.00    +0.000 A 
ATOM      6  C   UNL     1       2.146   8.516  18.261  0.00  0.00    +0.000 A 
ATOM      7  C   UNL     1       1.581   9.781  18.077  0.00  0.00    +0.000 A 
ATOM      8  C   UNL     1       0.907  10.336  19.134  0.00  0.00    +0.000 A 
ATOM      9  C   UNL     1       0.760   9.666  20.326  0.00  0.00    +0.000 A 
ATOM     10  C   UNL     1       1.296   8.406  20.530  0.00  0.00    +0.000 A 
ATOM     11  O   UNL     1       0.065  10.396  21.241  0.00  0.00    +0.000 OA
ATOM     12  C   UNL     1      -0.140  11.626  20.510  0.00  0.00    +0.000 C 
ATOM     13  O   UNL     1       0.330  11.566  19.149  0.00  0.00    +0.000 OA
ENDBRANCH   3   5
BRANCH   1  19
ATOM     14  C   UNL     1       2.826   3.179  19.863  0.00  0.00    +0.000 A 
ATOM     15  O   UNL     1       3.819   2.304  20.168  0.00  0.00    +0.000 OA
ATOM     16  N   UNL     1       5.034   2.847  19.816  0.00  0.00    +0.000 NA
ATOM     17  C   UNL     1       4.768   4.057  19.306  0.00  0.00    +0.000 A 
ATOM     18  C   UNL     1       5.898   4.915  18.882  0.00  0.00    +0.000 C 
ATOM     19  C   UNL     1       3.370   4.321  19.303  0.00  0.00    +0.000 A 
BRANCH  14  21
ATOM     20  C   UNL     1       0.706   2.270  18.906  0.00  0.00    +0.000 C 
ATOM     21  C   UNL     1       1.442   2.725  20.156  0.00  0.00    +0.000 C 
ENDBRANCH  14  21
ENDBRANCH   1  19
TORSDOF 3
ENDMDL
MODEL 7
REMARK VINA RESULT:      -6.8      4.704      6.488
REMARK  Name = 
REMARK  5 active torsions:
REMARK  status: ('A' for Active; 'I' for Inactive)
REMARK    1  A    between atoms: C_1  and  C_2
REMARK    2  A    between atoms: C_2  and  C_3
REMARK    3  A    between atoms: C_6  and  C_7
REMARK    4  A    between atoms: C_8  and  C_9
REMARK    5  A    between atoms: N_11  and  C_12
REMARK                            x       y       z     vdW  Elec       q    Type
REMARK                         _______ _______ _______ _____ _____    ______ ____
ROOT
ATOM      1  C   UNL     1       2.524   5.555  19.254  0.00  0.00    +0.000 C 
ATOM      2  O   UNL     1       1.826   5.639  18.249  0.00  0.00    +0.000 OA
ATOM      3  N   UNL     1       2.544   6.490  20.280  0.00  0.00    +0.000 N 
ATOM      4  H   UNL     1       3.314   6.442  20.935  0.00  0.00    +0.000 HD
ENDROOT
BRANCH   3   5
ATOM      5  C   UNL     1       1.752   7.666  20.318  0.00  0.00    +0.000 A 
ATOM      6  C   UNL     1       0.846   7.942  21.366  0.00  0.00    +0.000 A 
ATOM      7  C   UNL     1       0.013   9.065  21.337  0.00  0.00    +0.000 A 
ATOM      8  C   UNL     1       0.111   9.900  20.255  0.00  0.00    +0.000 A 
ATOM      9  C   UNL     1       1.014   9.669  19.245  0.00  0.00    +0.000 A 
ATOM     10  C   UNL     1       1.861   8.574  19.255  0.00  0.00    +0.000 A 
ATOM     11  O   UNL     1       0.942  10.613  18.267  0.00  0.00    +0.000 OA
ATOM     12  C   UNL     1      -0.159  11.417  18.746  0.00  0.00    +0.000 C 
ATOM     13  O   UNL     1      -0.643  11.011  20.041  0.00  0.00    +0.000 OA
ENDBRANCH   3   5
BRANCH   1  19
ATOM     14  C   UNL     1       3.113   3.190  19.795  0.00  0.00    +0.000 A 
ATOM     15  O   UNL     1       4.218   2.403  19.856  0.00  0.00    +0.000 OA
ATOM     16  N   UNL     1       5.324   3.134  19.480  0.00  0.00    +0.000 NA
ATOM     17  C   UNL     1       4.878   4.366  19.202  0.00  0.00    +0.000 A 
ATOM     18  C   UNL     1       5.859   5.407  18.816  0.00  0.00    +0.000 C 
ATOM     19  C   UNL     1       3.470   4.459  19.378  0.00  0.00    +0.000 A 
BRANCH  14  21
ATOM     20  C   UNL     1       1.424   2.781  21.588  0.00  0.00    +0.000 C 
ATOM     21  C   UNL     1       1.825   2.536  20.143  0.00  0.00    +0.000 C 
ENDBRANCH  14  21
ENDBRANCH   1  19
TORSDOF 3
ENDMDL
MODEL 8
REMARK VINA RESULT:      -6.8      1.151      2.616
REMARK  Name = 
REMARK  5 active torsions:
REMARK  status: ('A' for Active; 'I' for Inactive)
REMARK    1  A    between atoms: C_1  and  C_2
REMARK    2  A    between atoms: C_2  and  C_3
REMARK    3  A    between atoms: C_6  and  C_7
REMARK    4  A    between atoms: C_8  and  C_9
REMARK    5  A    between atoms: N_11  and  C_12
REMARK                            x       y       z     vdW  Elec       q    Type
REMARK                         _______ _______ _______ _____ _____    ______ ____
ROOT
ATOM      1  C   UNL     1       5.196   3.919  16.563  0.00  0.00    +0.000 C 
ATOM      2  O   UNL     1       5.050   2.718  16.360  0.00  0.00    +0.000 OA
ATOM      3  N   UNL     1       4.457   4.660  17.475  0.00  0.00    +0.000 N 
ATOM      4  H   UNL     1       4.499   5.668  17.394  0.00  0.00    +0.000 HD
ENDROOT
BRANCH   3   5
ATOM      5  C   UNL     1       3.440   4.133  18.310  0.00  0.00    +0.000 A 
ATOM      6  C   UNL     1       2.070   4.181  17.969  0.00  0.00    +0.000 A 
ATOM      7  C   UNL     1       1.080   3.732  18.849  0.00  0.00    +0.000 A 
ATOM      8  C   UNL     1       1.485   3.232  20.059  0.00  0.00    +0.000 A 
ATOM      9  C   UNL     1       2.816   3.141  20.392  0.00  0.00    +0.000 A 
ATOM     10  C   UNL     1       3.817   3.563  19.535  0.00  0.00    +0.000 A 
ATOM     11  O   UNL     1       2.997   2.623  21.638  0.00  0.00    +0.000 OA
ATOM     12  C   UNL     1       1.627   2.471  22.072  0.00  0.00    +0.000 C 
ATOM     13  O   UNL     1       0.665   2.789  21.048  0.00  0.00    +0.000 OA
ENDBRANCH   3   5
BRANCH   1  19
ATOM     14  C   UNL     1       6.328   4.447  14.402  0.00  0.00    +0.000 A 
ATOM     15  O   UNL     1       7.307   5.266  13.937  0.00  0.00    +0.000 OA
ATOM     16  N   UNL     1       7.783   6.045  14.969  0.00  0.00    +0.000 NA
ATOM     17  C   UNL     1       7.091   5.683  16.058  0.00  0.00    +0.000 A 
ATOM     18  C   UNL     1       7.422   6.318  17.354  0.00  0.00    +0.000 C 
ATOM     19  C   UNL     1       6.140   4.669  15.754  0.00  0.00    +0.000 A 
BRANCH  14  21
ATOM     20  C   UNL     1       6.484   3.480  12.105  0.00  0.00    +0.000 C 
ATOM     21  C   UNL     1       5.688   3.560  13.397  0.00  0.00    +0.000 C 
ENDBRANCH  14  21
ENDBRANCH   1  19
TORSDOF 3
ENDMDL
MODEL 9
REMARK VINA RESULT:      -6.6      5.123      6.452
REMARK  Name = 
REMARK  5 active torsions:
REMARK  status: ('A' for Active; 'I' for Inactive)
REMARK    1  A    between atoms: C_1  and  C_2
REMARK    2  A    between atoms: C_2  and  C_3
REMARK    3  A    between atoms: C_6  and  C_7
REMARK    4  A    between atoms: C_8  and  C_9
REMARK    5  A    between atoms: N_11  and  C_12
REMARK                            x       y       z     vdW  Elec       q    Type
REMARK                         _______ _______ _______ _____ _____    ______ ____
ROOT
ATOM      1  C   UNL     1       3.103   6.279  18.863  0.00  0.00    +0.000 C 
ATOM      2  O   UNL     1       3.224   6.837  17.777  0.00  0.00    +0.000 OA
ATOM      3  N   UNL     1       2.433   6.814  19.954  0.00  0.00    +0.000 N 
ATOM      4  H   UNL     1       2.593   6.380  20.854  0.00  0.00    +0.000 HD
ENDROOT
BRANCH   3   5
ATOM      5  C   UNL     1       1.782   8.074  19.965  0.00  0.00    +0.000 A 
ATOM      6  C   UNL     1       1.629   8.864  18.804  0.00  0.00    +0.000 A 
ATOM      7  C   UNL     1       1.060  10.141  18.857  0.00  0.00    +0.000 A 
ATOM      8  C   UNL     1       0.645  10.601  20.079  0.00  0.00    +0.000 A 
ATOM      9  C   UNL     1       0.749   9.830  21.213  0.00  0.00    +0.000 A 
ATOM     10  C   UNL     1       1.294   8.558  21.187  0.00  0.00    +0.000 A 
ATOM     11  O   UNL     1       0.285  10.477  22.317  0.00  0.00    +0.000 OA
ATOM     12  C   UNL     1      -0.052  11.766  21.756  0.00  0.00    +0.000 C 
ATOM     13  O   UNL     1       0.108  11.825  20.325  0.00  0.00    +0.000 OA
ENDBRANCH   3   5
BRANCH   1  19
ATOM     14  C   UNL     1       3.082   3.815  19.261  0.00  0.00    +0.000 A 
ATOM     15  O   UNL     1       3.968   2.812  19.499  0.00  0.00    +0.000 OA
ATOM     16  N   UNL     1       5.249   3.319  19.487  0.00  0.00    +0.000 NA
ATOM     17  C   UNL     1       5.127   4.632  19.249  0.00  0.00    +0.000 A 
ATOM     18  C   UNL     1       6.350   5.468  19.232  0.00  0.00    +0.000 C 
ATOM     19  C   UNL     1       3.764   5.005  19.088  0.00  0.00    +0.000 A 
BRANCH  14  21
ATOM     20  C   UNL     1       0.972   3.534  20.566  0.00  0.00    +0.000 C 
ATOM     21  C   UNL     1       1.650   3.422  19.211  0.00  0.00    +0.000 C 
ENDBRANCH  14  21
ENDBRANCH   1  19
TORSDOF 3
ENDMDL
