MODEL 1
REMARK VINA RESULT:      -7.0      0.000      0.000
REMARK  Name = 
REMARK  10 active torsions:
REMARK  status: ('A' for Active; 'I' for Inactive)
REMARK    1  A    between atoms: C_2  and  C_3
REMARK    2  A    between atoms: C_3  and  N_4
REMARK    3  A    between atoms: C_5  and  C_7
REMARK    4  A    between atoms: C_7  and  C_8
REMARK    5  A    between atoms: C_10  and  C_11
REMARK    6  A    between atoms: C_15  and  O_16
REMARK    7  A    between atoms: O_16  and  C_17
REMARK    8  A    between atoms: C_17  and  C_18
REMARK    9  A    between atoms: C_19  and  O_20
REMARK   10  A    between atoms: O_20  and  C_21
REMARK                            x       y       z     vdW  Elec       q    Type
REMARK                         _______ _______ _______ _____ _____    ______ ____
ROOT
ATOM      1  C   UNL     1       4.151   4.916  16.888  0.00  0.00    +0.000 A 
ATOM      2  C   UNL     1       3.554   3.665  17.131  0.00  0.00    +0.000 A 
ATOM      3  C   UNL     1       2.724   3.451  18.249  0.00  0.00    +0.000 A 
ATOM      4 CL   UNL     1       2.285   1.799  18.511  0.00  0.00    +0.000 Cl
ATOM      5  C   UNL     1       2.366   4.517  19.083  0.00  0.00    +0.000 A 
ATOM      6  C   UNL     1       2.828   5.821  18.726  0.00  0.00    +0.000 A 
ATOM      7  C   UNL     1       3.728   6.012  17.664  0.00  0.00    +0.000 A 
ENDROOT
BRANCH   1   9
ATOM      8  C   UNL     1       6.616   5.100  16.099  0.00  0.00    +0.000 C 
ATOM      9  C   UNL     1       5.266   5.039  15.932  0.00  0.00    +0.000 C 
BRANCH   8  11
ATOM     10  N   UNL     1       7.681   6.239  18.115  0.00  0.00    +0.000 N 
ATOM     11  C   UNL     1       7.500   5.110  17.348  0.00  0.00    +0.000 C 
ATOM     12  O   UNL     1       7.992   4.055  17.752  0.00  0.00    +0.000 OA
ATOM     13  H   UNL     1       8.345   6.102  18.872  0.00  0.00    +0.000 HD
BRANCH  10  14
ATOM     14  C   UNL     1       7.522   7.547  17.599  0.00  0.00    +0.000 C 
BRANCH  14  16
ATOM     15  C   UNL     1       8.345   9.889  17.713  0.00  0.00    +0.000 C 
ATOM     16  C   UNL     1       8.276   8.653  18.226  0.00  0.00    +0.000 C 
ENDBRANCH  14  16
ENDBRANCH  10  14
ENDBRANCH   8  11
BRANCH   8  17
ATOM     17  C   UNL     1       7.385   5.269  14.898  0.00  0.00    +0.000 C 
ATOM     18  N   UNL     1       7.938   5.432  13.891  0.00  0.00    +0.000 NA
ENDBRANCH   8  17
ENDBRANCH   1   9
BRANCH   6  19
ATOM     19  O   UNL     1       2.385   6.851  19.521  0.00  0.00    +0.000 OA
ATOM     20  C   UNL     1       2.155   8.107  18.893  0.00  0.00    +0.000 C 
ENDBRANCH   6  19
BRANCH   5  21
ATOM     21  O   UNL     1       1.569   4.480  20.204  0.00  0.00    +0.000 OA
BRANCH  21  22
ATOM     22  C   UNL     1       2.099   3.977  21.431  0.00  0.00    +0.000 C 
ATOM     23  C   UNL     1       1.493   2.609  21.724  0.00  0.00    +0.000 C 
ENDBRANCH  21  22
ENDBRANCH   5  21
TORSDOF 8
ENDMDL
MODEL 2
REMARK VINA RESULT:      -6.9      1.523      2.940
REMARK  Name = 
REMARK  10 active torsions:
REMARK  status: ('A' for Active; 'I' for Inactive)
REMARK    1  A    between atoms: C_2  and  C_3
REMARK    2  A    between atoms: C_3  and  N_4
REMARK    3  A    between atoms: C_5  and  C_7
REMARK    4  A    between atoms: C_7  and  C_8
REMARK    5  A    between atoms: C_10  and  C_11
REMARK    6  A    between atoms: C_15  and  O_16
REMARK    7  A    between atoms: O_16  and  C_17
REMARK    8  A    between atoms: C_17  and  C_18
REMARK    9  A    between atoms: C_19  and  O_20
REMARK   10  A    between atoms: O_20  and  C_21
REMARK                            x       y       z     vdW  Elec       q    Type
REMARK                         _______ _______ _______ _____ _____    ______ ____
ROOT
ATOM      1  C   UNL     1       3.866   6.158  18.231  0.00  0.00    +0.000 A 
ATOM      2  C   UNL     1       3.512   4.934  17.630  0.00  0.00    +0.000 A 
ATOM      3  C   UNL     1       2.536   4.092  18.198  0.00  0.00    +0.000 A 
ATOM      4 CL   UNL     1       2.415   2.534  17.458  0.00  0.00    +0.000 Cl
ATOM      5  C   UNL     1       1.798   4.510  19.312  0.00  0.00    +0.000 A 
ATOM      6  C   UNL     1       2.034   5.830  19.807  0.00  0.00    +0.000 A 
ATOM      7  C   UNL     1       3.070   6.628  19.292  0.00  0.00    +0.000 A 
ENDROOT
BRANCH   1   9
ATOM      8  C   UNL     1       6.384   6.432  17.668  0.00  0.00    +0.000 C 
ATOM      9  C   UNL     1       5.101   6.857  17.830  0.00  0.00    +0.000 C 
BRANCH   8  11
ATOM     10  N   UNL     1       7.120   4.117  16.896  0.00  0.00    +0.000 N 
ATOM     11  C   UNL     1       7.055   5.074  17.884  0.00  0.00    +0.000 C 
ATOM     12  O   UNL     1       7.649   4.850  18.940  0.00  0.00    +0.000 OA
ATOM     13  H   UNL     1       7.538   3.247  17.212  0.00  0.00    +0.000 HD
BRANCH  10  14
ATOM     14  C   UNL     1       6.195   4.060  15.826  0.00  0.00    +0.000 C 
BRANCH  14  16
ATOM     15  C   UNL     1       6.147   3.800  13.354  0.00  0.00    +0.000 C 
ATOM     16  C   UNL     1       6.676   4.346  14.458  0.00  0.00    +0.000 C 
ENDBRANCH  14  16
ENDBRANCH  10  14
ENDBRANCH   8  11
BRANCH   8  17
ATOM     17  C   UNL     1       7.334   7.446  17.306  0.00  0.00    +0.000 C 
ATOM     18  N   UNL     1       8.081   8.306  17.081  0.00  0.00    +0.000 NA
ENDBRANCH   8  17
ENDBRANCH   1   9
BRANCH   6  19
ATOM     19  O   UNL     1       1.230   6.232  20.846  0.00  0.00    +0.000 OA
ATOM     20  C   UNL     1       1.189   7.624  21.137  0.00  0.00    +0.000 C 
ENDBRANCH   6  19
BRANCH   5  21
ATOM     21  O   UNL     1       0.815   3.816  19.981  0.00  0.00    +0.000 OA
BRANCH  21  22
ATOM     22  C   UNL     1       1.148   2.613  20.674  0.00  0.00    +0.000 C 
ATOM     23  C   UNL     1       2.216   2.907  21.720  0.00  0.00    +0.000 C 
ENDBRANCH  21  22
ENDBRANCH   5  21
TORSDOF 8
ENDMDL
MODEL 3
REMARK VINA RESULT:      -6.6      2.575      4.362
REMARK  Name = 
REMARK  10 active torsions:
REMARK  status: ('A' for Active; 'I' for Inactive)
REMARK    1  A    between atoms: C_2  and  C_3
REMARK    2  A    between atoms: C_3  and  N_4
REMARK    3  A    between atoms: C_5  and  C_7
REMARK    4  A    between atoms: C_7  and  C_8
REMARK    5  A    between atoms: C_10  and  C_11
REMARK    6  A    between atoms: C_15  and  O_16
REMARK    7  A    between atoms: O_16  and  C_17
REMARK    8  A    between atoms: C_17  and  C_18
REMARK    9  A    between atoms: C_19  and  O_20
REMARK   10  A    between atoms: O_20  and  C_21
REMARK                            x       y       z     vdW  Elec       q    Type
REMARK                         _______ _______ _______ _____ _____    ______ ____
ROOT
ATOM      1  C   UNL     1       3.441   7.007  17.880  0.00  0.00    +0.000 A 
ATOM      2  C   UNL     1       2.933   6.145  18.870  0.00  0.00    +0.000 A 
ATOM      3  C   UNL     1       2.069   6.612  19.879  0.00  0.00    +0.000 A 
ATOM      4 CL   UNL     1       1.749   5.468  21.136  0.00  0.00    +0.000 Cl
ATOM      5  C   UNL     1       1.589   7.927  19.851  0.00  0.00    +0.000 A 
ATOM      6  C   UNL     1       1.964   8.746  18.742  0.00  0.00    +0.000 A 
ATOM      7  C   UNL     1       2.897   8.302  17.788  0.00  0.00    +0.000 A 
ENDROOT
BRANCH   1   9
ATOM      8  C   UNL     1       5.564   5.665  17.228  0.00  0.00    +0.000 C 
ATOM      9  C   UNL     1       4.588   6.598  17.049  0.00  0.00    +0.000 C 
BRANCH   8  11
ATOM     10  N   UNL     1       5.391   3.423  18.428  0.00  0.00    +0.000 N 
ATOM     11  C   UNL     1       5.877   4.710  18.382  0.00  0.00    +0.000 C 
ATOM     12  O   UNL     1       6.670   5.056  19.259  0.00  0.00    +0.000 OA
ATOM     13  H   UNL     1       5.633   2.937  19.286  0.00  0.00    +0.000 HD
BRANCH  10  14
ATOM     14  C   UNL     1       4.215   3.026  17.748  0.00  0.00    +0.000 C 
BRANCH  14  16
ATOM     15  C   UNL     1       1.852   2.597  18.388  0.00  0.00    +0.000 C 
ATOM     16  C   UNL     1       3.159   2.326  18.509  0.00  0.00    +0.000 C 
ENDBRANCH  14  16
ENDBRANCH  10  14
ENDBRANCH   8  11
BRANCH   8  17
ATOM     17  C   UNL     1       6.555   5.594  16.191  0.00  0.00    +0.000 C 
ATOM     18  N   UNL     1       7.394   5.478  15.397  0.00  0.00    +0.000 NA
ENDBRANCH   8  17
ENDBRANCH   1   9
BRANCH   6  19
ATOM     19  O   UNL     1       1.404  10.000  18.708  0.00  0.00    +0.000 OA
ATOM     20  C   UNL     1       2.180  11.045  18.133  0.00  0.00    +0.000 C 
ENDBRANCH   6  19
BRANCH   5  21
ATOM     21  O   UNL     1       0.744   8.535  20.751  0.00  0.00    +0.000 OA
BRANCH  21  22
ATOM     22  C   UNL     1       1.244   8.945  22.024  0.00  0.00    +0.000 C 
ATOM     23  C   UNL     1       0.090   9.437  22.890  0.00  0.00    +0.000 C 
ENDBRANCH  21  22
ENDBRANCH   5  21
TORSDOF 8
ENDMDL
MODEL 4
REMARK VINA RESULT:      -6.6      1.958      3.750
REMARK  Name = 
REMARK  10 active torsions:
REMARK  status: ('A' for Active; 'I' for Inactive)
REMARK    1  A    between atoms: C_2  and  C_3
REMARK    2  A    between atoms: C_3  and  N_4
REMARK    3  A    between atoms: C_5  and  C_7
REMARK    4  A    between atoms: C_7  and  C_8
REMARK    5  A    between atoms: C_10  and  C_11
REMARK    6  A    between atoms: C_15  and  O_16
REMARK    7  A    between atoms: O_16  and  C_17
REMARK    8  A    between atoms: C_17  and  C_18
REMARK    9  A    between atoms: C_19  and  O_20
REMARK   10  A    between atoms: O_20  and  C_21
REMARK                            x       y       z     vdW  Elec       q    Type
REMARK                         _______ _______ _______ _____ _____    ______ ____
ROOT
ATOM      1  C   UNL     1       4.444   5.638  18.607  0.00  0.00    +0.000 A 
ATOM      2  C   UNL     1       3.481   6.068  19.540  0.00  0.00    +0.000 A 
ATOM      3  C   UNL     1       2.283   5.355  19.742  0.00  0.00    +0.000 A 
ATOM      4 CL   UNL     1       1.126   6.165  20.740  0.00  0.00    +0.000 Cl
ATOM      5  C   UNL     1       2.073   4.125  19.108  0.00  0.00    +0.000 A 
ATOM      6  C   UNL     1       3.133   3.604  18.303  0.00  0.00    +0.000 A 
ATOM      7  C   UNL     1       4.286   4.362  18.035  0.00  0.00    +0.000 A 
ENDROOT
BRANCH   1   9
ATOM      8  C   UNL     1       6.740   6.330  17.618  0.00  0.00    +0.000 C 
ATOM      9  C   UNL     1       5.513   6.551  18.163  0.00  0.00    +0.000 C 
BRANCH   8  11
ATOM     10  N   UNL     1       7.712   4.612  16.003  0.00  0.00    +0.000 N 
ATOM     11  C   UNL     1       7.507   5.045  17.294  0.00  0.00    +0.000 C 
ATOM     12  O   UNL     1       8.052   4.418  18.204  0.00  0.00    +0.000 OA
ATOM     13  H   UNL     1       8.181   3.713  15.955  0.00  0.00    +0.000 HD
BRANCH  10  14
ATOM     14  C   UNL     1       6.862   4.977  14.932  0.00  0.00    +0.000 C 
BRANCH  14  16
ATOM     15  C   UNL     1       6.181   3.600  12.977  0.00  0.00    +0.000 C 
ATOM     16  C   UNL     1       6.062   3.924  14.273  0.00  0.00    +0.000 C 
ENDBRANCH  14  16
ENDBRANCH  10  14
ENDBRANCH   8  11
BRANCH   8  17
ATOM     17  C   UNL     1       7.527   7.502  17.358  0.00  0.00    +0.000 C 
ATOM     18  N   UNL     1       8.159   8.467  17.229  0.00  0.00    +0.000 NA
ENDBRANCH   8  17
ENDBRANCH   1   9
BRANCH   6  19
ATOM     19  O   UNL     1       2.920   2.356  17.769  0.00  0.00    +0.000 OA
ATOM     20  C   UNL     1       3.667   1.277  18.317  0.00  0.00    +0.000 C 
ENDBRANCH   6  19
BRANCH   5  21
ATOM     21  O   UNL     1       0.969   3.307  19.198  0.00  0.00    +0.000 OA
BRANCH  21  22
ATOM     22  C   UNL     1       0.526   2.858  20.480  0.00  0.00    +0.000 C 
ATOM     23  C   UNL     1       1.732   2.465  21.325  0.00  0.00    +0.000 C 
ENDBRANCH  21  22
ENDBRANCH   5  21
TORSDOF 8
ENDMDL
MODEL 5
REMARK VINA RESULT:      -6.6      2.086      3.048
REMARK  Name = 
REMARK  10 active torsions:
REMARK  status: ('A' for Active; 'I' for Inactive)
REMARK    1  A    between atoms: C_2  and  C_3
REMARK    2  A    between atoms: C_3  and  N_4
REMARK    3  A    between atoms: C_5  and  C_7
REMARK    4  A    between atoms: C_7  and  C_8
REMARK    5  A    between atoms: C_10  and  C_11
REMARK    6  A    between atoms: C_15  and  O_16
REMARK    7  A    between atoms: O_16  and  C_17
REMARK    8  A    between atoms: C_17  and  C_18
REMARK    9  A    between atoms: C_19  and  O_20
REMARK   10  A    between atoms: O_20  and  C_21
REMARK                            x       y       z     vdW  Elec       q    Type
REMARK                         _______ _______ _______ _____ _____    ______ ____
ROOT
ATOM      1  C   UNL     1       4.074   6.171  17.815  0.00  0.00    +0.000 A 
ATOM      2  C   UNL     1       3.439   7.427  17.767  0.00  0.00    +0.000 A 
ATOM      3  C   UNL     1       2.414   7.767  18.670  0.00  0.00    +0.000 A 
ATOM      4 CL   UNL     1       1.594   9.244  18.302  0.00  0.00    +0.000 Cl
ATOM      5  C   UNL     1       2.084   6.909  19.726  0.00  0.00    +0.000 A 
ATOM      6  C   UNL     1       2.857   5.717  19.878  0.00  0.00    +0.000 A 
ATOM      7  C   UNL     1       3.816   5.341  18.922  0.00  0.00    +0.000 A 
ENDROOT
BRANCH   1   9
ATOM      8  C   UNL     1       6.199   5.348  16.572  0.00  0.00    +0.000 C 
ATOM      9  C   UNL     1       4.888   5.702  16.678  0.00  0.00    +0.000 C 
BRANCH   8  11
ATOM     10  N   UNL     1       7.788   6.488  18.207  0.00  0.00    +0.000 N 
ATOM     11  C   UNL     1       7.349   5.343  17.582  0.00  0.00    +0.000 C 
ATOM     12  O   UNL     1       7.843   4.271  17.934  0.00  0.00    +0.000 OA
ATOM     13  H   UNL     1       8.598   6.332  18.800  0.00  0.00    +0.000 HD
BRANCH  10  14
ATOM     14  C   UNL     1       7.609   7.778  17.653  0.00  0.00    +0.000 C 
BRANCH  14  16
ATOM     15  C   UNL     1       8.155  10.175  18.022  0.00  0.00    +0.000 C 
ATOM     16  C   UNL     1       8.478   8.878  18.123  0.00  0.00    +0.000 C 
ENDBRANCH  14  16
ENDBRANCH  10  14
ENDBRANCH   8  11
BRANCH   8  17
ATOM     17  C   UNL     1       6.641   4.982  15.256  0.00  0.00    +0.000 C 
ATOM     18  N   UNL     1       6.927   4.647  14.182  0.00  0.00    +0.000 NA
ENDBRANCH   8  17
ENDBRANCH   1   9
BRANCH   6  19
ATOM     19  O   UNL     1       2.558   4.945  20.975  0.00  0.00    +0.000 OA
ATOM     20  C   UNL     1       2.551   3.534  20.797  0.00  0.00    +0.000 C 
ENDBRANCH   6  19
BRANCH   5  21
ATOM     21  O   UNL     1       1.118   7.091  20.690  0.00  0.00    +0.000 OA
BRANCH  21  22
ATOM     22  C   UNL     1       1.145   8.263  21.505  0.00  0.00    +0.000 C 
ATOM     23  C   UNL     1      -0.276   8.774  21.708  0.00  0.00    +0.000 C 
ENDBRANCH  21  22
ENDBRANCH   5  21
TORSDOF 8
ENDMDL
MODEL 6
REMARK VINA RESULT:      -6.2      1.997      2.140
REMARK  Name = 
REMARK  10 active torsions:
REMARK  status: ('A' for Active; 'I' for Inactive)
REMARK    1  A    between atoms: C_2  and  C_3
REMARK    2  A    between atoms: C_3  and  N_4
REMARK    3  A    between atoms: C_5  and  C_7
REMARK    4  A    between atoms: C_7  and  C_8
REMARK    5  A    between atoms: C_10  and  C_11
REMARK    6  A    between atoms: C_15  and  O_16
REMARK    7  A    between atoms: O_16  and  C_17
REMARK    8  A    between atoms: C_17  and  C_18
REMARK    9  A    between atoms: C_19  and  O_20
REMARK   10  A    between atoms: O_20  and  C_21
REMARK                            x       y       z     vdW  Elec       q    Type
REMARK                         _______ _______ _______ _____ _____    ______ ____
ROOT
ATOM      1  C   UNL     1       3.366   4.056  16.854  0.00  0.00    +0.000 A 
ATOM      2  C   UNL     1       2.387   3.104  17.199  0.00  0.00    +0.000 A 
ATOM      3  C   UNL     1       1.739   3.137  18.449  0.00  0.00    +0.000 A 
ATOM      4 CL   UNL     1       0.757   1.753  18.783  0.00  0.00    +0.000 Cl
ATOM      5  C   UNL     1       1.960   4.196  19.337  0.00  0.00    +0.000 A 
ATOM      6  C   UNL     1       2.816   5.256  18.905  0.00  0.00    +0.000 A 
ATOM      7  C   UNL     1       3.528   5.173  17.697  0.00  0.00    +0.000 A 
ENDROOT
BRANCH   1   9
ATOM      8  C   UNL     1       5.319   4.526  15.211  0.00  0.00    +0.000 C 
ATOM      9  C   UNL     1       4.266   3.822  15.710  0.00  0.00    +0.000 C 
BRANCH   8  11
ATOM     10  N   UNL     1       7.147   5.932  16.298  0.00  0.00    +0.000 N 
ATOM     11  C   UNL     1       5.952   5.858  15.618  0.00  0.00    +0.000 C 
ATOM     12  O   UNL     1       5.437   6.914  15.245  0.00  0.00    +0.000 OA
ATOM     13  H   UNL     1       7.402   6.882  16.551  0.00  0.00    +0.000 HD
BRANCH  10  14
ATOM     14  C   UNL     1       7.633   4.875  17.104  0.00  0.00    +0.000 C 
BRANCH  14  16
ATOM     15  C   UNL     1       6.713   5.590  19.300  0.00  0.00    +0.000 C 
ATOM     16  C   UNL     1       7.711   5.078  18.566  0.00  0.00    +0.000 C 
ENDBRANCH  14  16
ENDBRANCH  10  14
ENDBRANCH   8  11
BRANCH   8  17
ATOM     17  C   UNL     1       5.926   3.984  14.028  0.00  0.00    +0.000 C 
ATOM     18  N   UNL     1       6.414   3.622  13.039  0.00  0.00    +0.000 NA
ENDBRANCH   8  17
ENDBRANCH   1   9
BRANCH   6  19
ATOM     19  O   UNL     1       2.938   6.316  19.770  0.00  0.00    +0.000 OA
ATOM     20  C   UNL     1       2.301   7.534  19.403  0.00  0.00    +0.000 C 
ENDBRANCH   6  19
BRANCH   5  21
ATOM     21  O   UNL     1       1.409   4.379  20.585  0.00  0.00    +0.000 OA
BRANCH  21  22
ATOM     22  C   UNL     1       2.061   3.831  21.732  0.00  0.00    +0.000 C 
ATOM     23  C   UNL     1       1.543   2.420  21.984  0.00  0.00    +0.000 C 
ENDBRANCH  21  22
ENDBRANCH   5  21
TORSDOF 8
ENDMDL
MODEL 7
REMARK VINA RESULT:      -6.2      1.974      2.312
REMARK  Name = 
REMARK  10 active torsions:
REMARK  status: ('A' for Active; 'I' for Inactive)
REMARK    1  A    between atoms: C_2  and  C_3
REMARK    2  A    between atoms: C_3  and  N_4
REMARK    3  A    between atoms: C_5  and  C_7
REMARK    4  A    between atoms: C_7  and  C_8
REMARK    5  A    between atoms: C_10  and  C_11
REMARK    6  A    between atoms: C_15  and  O_16
REMARK    7  A    between atoms: O_16  and  C_17
REMARK    8  A    between atoms: C_17  and  C_18
REMARK    9  A    between atoms: C_19  and  O_20
REMARK   10  A    between atoms: O_20  and  C_21
REMARK                            x       y       z     vdW  Elec       q    Type
REMARK                         _______ _______ _______ _____ _____    ______ ____
ROOT
ATOM      1  C   UNL     1       3.963   3.608  17.121  0.00  0.00    +0.000 A 
ATOM      2  C   UNL     1       4.264   2.654  18.112  0.00  0.00    +0.000 A 
ATOM      3  C   UNL     1       3.971   2.887  19.469  0.00  0.00    +0.000 A 
ATOM      4 CL   UNL     1       4.633   1.716  20.557  0.00  0.00    +0.000 Cl
ATOM      5  C   UNL     1       3.253   4.025  19.856  0.00  0.00    +0.000 A 
ATOM      6  C   UNL     1       2.790   4.899  18.825  0.00  0.00    +0.000 A 
ATOM      7  C   UNL     1       3.163   4.709  17.484  0.00  0.00    +0.000 A 
ENDROOT
BRANCH   1   9
ATOM      8  C   UNL     1       5.414   4.325  15.092  0.00  0.00    +0.000 C 
ATOM      9  C   UNL     1       4.568   3.509  15.780  0.00  0.00    +0.000 C 
BRANCH   8  11
ATOM     10  N   UNL     1       7.232   5.808  16.090  0.00  0.00    +0.000 N 
ATOM     11  C   UNL     1       6.032   5.684  15.427  0.00  0.00    +0.000 C 
ATOM     12  O   UNL     1       5.499   6.713  15.006  0.00  0.00    +0.000 OA
ATOM     13  H   UNL     1       7.476   6.773  16.294  0.00  0.00    +0.000 HD
BRANCH  10  14
ATOM     14  C   UNL     1       7.740   4.799  16.943  0.00  0.00    +0.000 C 
BRANCH  14  16
ATOM     15  C   UNL     1       7.847   6.135  19.036  0.00  0.00    +0.000 C 
ATOM     16  C   UNL     1       7.612   4.977  18.405  0.00  0.00    +0.000 C 
ENDBRANCH  14  16
ENDBRANCH  10  14
ENDBRANCH   8  11
BRANCH   8  17
ATOM     17  C   UNL     1       5.748   3.897  13.763  0.00  0.00    +0.000 C 
ATOM     18  N   UNL     1       5.967   3.610  12.660  0.00  0.00    +0.000 NA
ENDBRANCH   8  17
ENDBRANCH   1   9
BRANCH   6  19
ATOM     19  O   UNL     1       2.018   5.957  19.240  0.00  0.00    +0.000 OA
ATOM     20  C   UNL     1       2.423   7.259  18.833  0.00  0.00    +0.000 C 
ENDBRANCH   6  19
BRANCH   5  21
ATOM     21  O   UNL     1       2.885   4.397  21.129  0.00  0.00    +0.000 OA
BRANCH  21  22
ATOM     22  C   UNL     1       2.089   3.514  21.921  0.00  0.00    +0.000 C 
ATOM     23  C   UNL     1       0.977   2.924  21.061  0.00  0.00    +0.000 C 
ENDBRANCH  21  22
ENDBRANCH   5  21
TORSDOF 8
ENDMDL
MODEL 8
REMARK VINA RESULT:      -6.2      3.888      6.751
REMARK  Name = 
REMARK  10 active torsions:
REMARK  status: ('A' for Active; 'I' for Inactive)
REMARK    1  A    between atoms: C_2  and  C_3
REMARK    2  A    between atoms: C_3  and  N_4
REMARK    3  A    between atoms: C_5  and  C_7
REMARK    4  A    between atoms: C_7  and  C_8
REMARK    5  A    between atoms: C_10  and  C_11
REMARK    6  A    between atoms: C_15  and  O_16
REMARK    7  A    between atoms: O_16  and  C_17
REMARK    8  A    between atoms: C_17  and  C_18
REMARK    9  A    between atoms: C_19  and  O_20
REMARK   10  A    between atoms: O_20  and  C_21
REMARK                            x       y       z     vdW  Elec       q    Type
REMARK                         _______ _______ _______ _____ _____    ______ ____
ROOT
ATOM      1  C   UNL     1       2.096   6.985  19.894  0.00  0.00    +0.000 A 
ATOM      2  C   UNL     1       1.539   5.805  20.422  0.00  0.00    +0.000 A 
ATOM      3  C   UNL     1       1.687   4.567  19.768  0.00  0.00    +0.000 A 
ATOM      4 CL   UNL     1       0.733   3.286  20.433  0.00  0.00    +0.000 Cl
ATOM      5  C   UNL     1       2.502   4.453  18.635  0.00  0.00    +0.000 A 
ATOM      6  C   UNL     1       3.212   5.618  18.211  0.00  0.00    +0.000 A 
ATOM      7  C   UNL     1       2.990   6.869  18.812  0.00  0.00    +0.000 A 
ENDROOT
BRANCH   1   9
ATOM      8  C   UNL     1       1.205   9.419  19.753  0.00  0.00    +0.000 C 
ATOM      9  C   UNL     1       1.660   8.304  20.389  0.00  0.00    +0.000 C 
BRANCH   8  11
ATOM     10  N   UNL     1      -0.176  10.231  17.771  0.00  0.00    +0.000 N 
ATOM     11  C   UNL     1       1.013   9.753  18.272  0.00  0.00    +0.000 C 
ATOM     12  O   UNL     1       1.976   9.692  17.506  0.00  0.00    +0.000 OA
ATOM     13  H   UNL     1      -0.166  10.344  16.762  0.00  0.00    +0.000 HD
BRANCH  10  14
ATOM     14  C   UNL     1      -1.421   9.992  18.401  0.00  0.00    +0.000 C 
BRANCH  14  16
ATOM     15  C   UNL     1      -2.603   9.827  16.220  0.00  0.00    +0.000 C 
ATOM     16  C   UNL     1      -2.632   9.887  17.559  0.00  0.00    +0.000 C 
ENDBRANCH  14  16
ENDBRANCH  10  14
ENDBRANCH   8  11
BRANCH   8  17
ATOM     17  C   UNL     1       0.919  10.544  20.597  0.00  0.00    +0.000 C 
ATOM     18  N   UNL     1       0.721  11.412  21.342  0.00  0.00    +0.000 NA
ENDBRANCH   8  17
ENDBRANCH   1   9
BRANCH   6  19
ATOM     19  O   UNL     1       4.066   5.444  17.148  0.00  0.00    +0.000 OA
ATOM     20  C   UNL     1       4.791   6.584  16.702  0.00  0.00    +0.000 C 
ENDBRANCH   6  19
BRANCH   5  21
ATOM     21  O   UNL     1       2.753   3.326  17.887  0.00  0.00    +0.000 OA
BRANCH  21  22
ATOM     22  C   UNL     1       3.326   2.177  18.511  0.00  0.00    +0.000 C 
ATOM     23  C   UNL     1       4.389   2.618  19.510  0.00  0.00    +0.000 C 
ENDBRANCH  21  22
ENDBRANCH   5  21
TORSDOF 8
ENDMDL
MODEL 9
REMARK VINA RESULT:      -6.1      1.548      2.465
REMARK  Name = 
REMARK  10 active torsions:
REMARK  status: ('A' for Active; 'I' for Inactive)
REMARK    1  A    between atoms: C_2  and  C_3
REMARK    2  A    between atoms: C_3  and  N_4
REMARK    3  A    between atoms: C_5  and  C_7
REMARK    4  A    between atoms: C_7  and  C_8
REMARK    5  A    between atoms: C_10  and  C_11
REMARK    6  A    between atoms: C_15  and  O_16
REMARK    7  A    between atoms: O_16  and  C_17
REMARK    8  A    between atoms: C_17  and  C_18
REMARK    9  A    between atoms: C_19  and  O_20
REMARK   10  A    between atoms: O_20  and  C_21
REMARK                            x       y       z     vdW  Elec       q    Type
REMARK                         _______ _______ _______ _____ _____    ______ ____
ROOT
ATOM      1  C   UNL     1       4.245   4.713  16.980  0.00  0.00    +0.000 A 
ATOM      2  C   UNL     1       3.867   5.802  17.789  0.00  0.00    +0.000 A 
ATOM      3  C   UNL     1       2.700   5.762  18.576  0.00  0.00    +0.000 A 
ATOM      4 CL   UNL     1       2.274   7.271  19.305  0.00  0.00    +0.000 Cl
ATOM      5  C   UNL     1       1.948   4.584  18.673  0.00  0.00    +0.000 A 
ATOM      6  C   UNL     1       2.439   3.427  17.994  0.00  0.00    +0.000 A 
ATOM      7  C   UNL     1       3.552   3.498  17.140  0.00  0.00    +0.000 A 
ENDROOT
BRANCH   1   9
ATOM      8  C   UNL     1       6.611   5.025  15.960  0.00  0.00    +0.000 C 
ATOM      9  C   UNL     1       5.257   4.885  15.922  0.00  0.00    +0.000 C 
BRANCH   8  11
ATOM     10  N   UNL     1       7.640   6.166  17.993  0.00  0.00    +0.000 N 
ATOM     11  C   UNL     1       7.606   5.103  17.120  0.00  0.00    +0.000 C 
ATOM     12  O   UNL     1       8.341   4.143  17.354  0.00  0.00    +0.000 OA
ATOM     13  H   UNL     1       8.396   6.102  18.669  0.00  0.00    +0.000 HD
BRANCH  10  14
ATOM     14  C   UNL     1       7.166   7.454  17.648  0.00  0.00    +0.000 C 
BRANCH  14  16
ATOM     15  C   UNL     1       8.570   9.316  18.510  0.00  0.00    +0.000 C 
ATOM     16  C   UNL     1       8.144   8.552  17.494  0.00  0.00    +0.000 C 
ENDBRANCH  14  16
ENDBRANCH  10  14
ENDBRANCH   8  11
BRANCH   8  17
ATOM     17  C   UNL     1       7.252   5.221  14.691  0.00  0.00    +0.000 C 
ATOM     18  N   UNL     1       7.791   5.456  13.689  0.00  0.00    +0.000 NA
ENDBRANCH   8  17
ENDBRANCH   1   9
BRANCH   6  19
ATOM     19  O   UNL     1       1.719   2.272  18.184  0.00  0.00    +0.000 OA
ATOM     20  C   UNL     1       2.312   1.259  18.987  0.00  0.00    +0.000 C 
ENDBRANCH   6  19
BRANCH   5  21
ATOM     21  O   UNL     1       0.794   4.378  19.395  0.00  0.00    +0.000 OA
BRANCH  21  22
ATOM     22  C   UNL     1       0.878   4.004  20.771  0.00  0.00    +0.000 C 
ATOM     23  C   UNL     1       2.299   4.231  21.273  0.00  0.00    +0.000 C 
ENDBRANCH  21  22
ENDBRANCH   5  21
TORSDOF 8
ENDMDL
