MODEL 1
REMARK VINA RESULT:      -7.7      0.000      0.000
REMARK  Name = 
REMARK  3 active torsions:
REMARK  status: ('A' for Active; 'I' for Inactive)
REMARK    1  A    between atoms: C_2  and  C_3
REMARK    2  A    between atoms: N_6  and  C_7
REMARK    3  A    between atoms: C_18  and  C_19
REMARK                            x       y       z     vdW  Elec       q    Type
REMARK                         _______ _______ _______ _____ _____    ______ ____
ROOT
ATOM      1  O   UNL     1       1.374   9.711  17.642  0.00  0.00    +0.000 OA
ATOM      2  C   UNL     1       1.663   8.965  18.579  0.00  0.00    +0.000 C 
ATOM      3  N   UNL     1       1.238   9.259  19.868  0.00  0.00    +0.000 N 
ATOM      4  C   UNL     1       1.289   8.369  21.018  0.00  0.00    +0.000 C 
ATOM      5  C   UNL     1      -0.098   8.437  21.604  0.00  0.00    +0.000 C 
ATOM      6  C   UNL     1      -0.472   9.897  21.405  0.00  0.00    +0.000 C 
ATOM      7  C   UNL     1       0.258  10.343  20.097  0.00  0.00    +0.000 C 
ENDROOT
BRANCH   7   8
ATOM      8  C   UNL     1       0.941  11.671  20.302  0.00  0.00    +0.000 A 
ATOM      9  N   UNL     1       1.871  11.868  21.217  0.00  0.00    +0.000 NA
ATOM     10  N   UNL     1       2.207  13.188  21.267  0.00  0.00    +0.000 NA
ATOM     11  C   UNL     1       1.532  13.795  20.312  0.00  0.00    +0.000 A 
ATOM     12  C   UNL     1       1.414  15.196  20.024  0.00  0.00    +0.000 A 
ATOM     13  C   UNL     1       0.332  15.540  19.304  0.00  0.00    +0.000 A 
ATOM     14  C   UNL     1      -0.286  14.639  18.383  0.00  0.00    +0.000 A 
ATOM     15  C   UNL     1      -0.169  13.306  18.625  0.00  0.00    +0.000 A 
ATOM     16  N   UNL     1       0.688  12.888  19.656  0.00  0.00    +0.000 N 
ENDBRANCH   7   8
BRANCH   2  17
ATOM     17  C   UNL     1       2.370   7.714  18.323  0.00  0.00    +0.000 A 
ATOM     18  C   UNL     1       2.105   6.367  18.639  0.00  0.00    +0.000 A 
ATOM     19  N   UNL     1       2.993   5.515  18.124  0.00  0.00    +0.000 NA
ATOM     20  N   UNL     1       3.934   6.309  17.555  0.00  0.00    +0.000 N 
ATOM     21  C   UNL     1       3.580   7.636  17.657  0.00  0.00    +0.000 A 
BRANCH  20  22
ATOM     22  C   UNL     1       5.125   5.761  17.004  0.00  0.00    +0.000 A 
ATOM     23  C   UNL     1       5.253   5.623  15.613  0.00  0.00    +0.000 A 
ATOM     24  C   UNL     1       6.367   4.976  15.074  0.00  0.00    +0.000 A 
ATOM     25  C   UNL     1       7.370   4.489  15.912  0.00  0.00    +0.000 A 
ATOM     26  C   UNL     1       7.272   4.661  17.289  0.00  0.00    +0.000 A 
ATOM     27  C   UNL     1       6.153   5.296  17.840  0.00  0.00    +0.000 A 
ENDBRANCH  20  22
ENDBRANCH   2  17
TORSDOF 3
ENDMDL
MODEL 2
REMARK VINA RESULT:      -7.6      3.029      4.323
REMARK  Name = 
REMARK  3 active torsions:
REMARK  status: ('A' for Active; 'I' for Inactive)
REMARK    1  A    between atoms: C_2  and  C_3
REMARK    2  A    between atoms: N_6  and  C_7
REMARK    3  A    between atoms: C_18  and  C_19
REMARK                            x       y       z     vdW  Elec       q    Type
REMARK                         _______ _______ _______ _____ _____    ______ ____
ROOT
ATOM      1  O   UNL     1      -0.378   9.342  21.032  0.00  0.00    +0.000 OA
ATOM      2  C   UNL     1       0.248  10.044  20.236  0.00  0.00    +0.000 C 
ATOM      3  N   UNL     1       0.213  11.429  20.344  0.00  0.00    +0.000 N 
ATOM      4  C   UNL     1       1.075  12.370  19.645  0.00  0.00    +0.000 C 
ATOM      5  C   UNL     1       1.583  13.285  20.730  0.00  0.00    +0.000 C 
ATOM      6  C   UNL     1       0.375  13.424  21.641  0.00  0.00    +0.000 C 
ATOM      7  C   UNL     1      -0.390  12.066  21.533  0.00  0.00    +0.000 C 
ENDROOT
BRANCH   7   8
ATOM      8  C   UNL     1      -1.866  12.307  21.342  0.00  0.00    +0.000 A 
ATOM      9  N   UNL     1      -2.405  12.573  20.167  0.00  0.00    +0.000 NA
ATOM     10  N   UNL     1      -3.725  12.880  20.316  0.00  0.00    +0.000 NA
ATOM     11  C   UNL     1      -4.018  12.719  21.591  0.00  0.00    +0.000 A 
ATOM     12  C   UNL     1      -5.224  13.040  22.299  0.00  0.00    +0.000 A 
ATOM     13  C   UNL     1      -5.081  13.191  23.628  0.00  0.00    +0.000 A 
ATOM     14  C   UNL     1      -4.062  12.510  24.364  0.00  0.00    +0.000 A 
ATOM     15  C   UNL     1      -2.920  12.177  23.706  0.00  0.00    +0.000 A 
ATOM     16  N   UNL     1      -2.872  12.362  22.315  0.00  0.00    +0.000 N 
ENDBRANCH   7   8
BRANCH   2  17
ATOM     17  C   UNL     1       1.111   9.422  19.236  0.00  0.00    +0.000 A 
ATOM     18  C   UNL     1       1.585   9.831  17.975  0.00  0.00    +0.000 A 
ATOM     19  N   UNL     1       2.442   8.969  17.424  0.00  0.00    +0.000 NA
ATOM     20  N   UNL     1       2.451   7.911  18.272  0.00  0.00    +0.000 N 
ATOM     21  C   UNL     1       1.662   8.161  19.374  0.00  0.00    +0.000 A 
BRANCH  20  22
ATOM     22  C   UNL     1       3.161   6.720  17.957  0.00  0.00    +0.000 A 
ATOM     23  C   UNL     1       4.432   6.800  17.366  0.00  0.00    +0.000 A 
ATOM     24  C   UNL     1       5.081   5.637  16.944  0.00  0.00    +0.000 A 
ATOM     25  C   UNL     1       4.483   4.391  17.134  0.00  0.00    +0.000 A 
ATOM     26  C   UNL     1       3.243   4.301  17.758  0.00  0.00    +0.000 A 
ATOM     27  C   UNL     1       2.579   5.461  18.171  0.00  0.00    +0.000 A 
ENDBRANCH  20  22
ENDBRANCH   2  17
TORSDOF 3
ENDMDL
MODEL 3
REMARK VINA RESULT:      -7.6      1.748      2.348
REMARK  Name = 
REMARK  3 active torsions:
REMARK  status: ('A' for Active; 'I' for Inactive)
REMARK    1  A    between atoms: C_2  and  C_3
REMARK    2  A    between atoms: N_6  and  C_7
REMARK    3  A    between atoms: C_18  and  C_19
REMARK                            x       y       z     vdW  Elec       q    Type
REMARK                         _______ _______ _______ _____ _____    ______ ____
ROOT
ATOM      1  O   UNL     1       1.561   9.908  17.542  0.00  0.00    +0.000 OA
ATOM      2  C   UNL     1       1.845   9.138  18.462  0.00  0.00    +0.000 C 
ATOM      3  N   UNL     1       1.361   9.368  19.744  0.00  0.00    +0.000 N 
ATOM      4  C   UNL     1       1.407   8.438  20.863  0.00  0.00    +0.000 C 
ATOM      5  C   UNL     1      -0.002   8.431  21.397  0.00  0.00    +0.000 C 
ATOM      6  C   UNL     1      -0.427   9.881  21.237  0.00  0.00    +0.000 C 
ATOM      7  C   UNL     1       0.332  10.403  19.975  0.00  0.00    +0.000 C 
ENDROOT
BRANCH   7   8
ATOM      8  C   UNL     1       0.953  11.748  20.253  0.00  0.00    +0.000 A 
ATOM      9  N   UNL     1       1.825  11.951  21.223  0.00  0.00    +0.000 NA
ATOM     10  N   UNL     1       2.109  13.280  21.327  0.00  0.00    +0.000 NA
ATOM     11  C   UNL     1       1.464  13.891  20.353  0.00  0.00    +0.000 A 
ATOM     12  C   UNL     1       1.311  15.294  20.098  0.00  0.00    +0.000 A 
ATOM     13  C   UNL     1       0.257  15.621  19.329  0.00  0.00    +0.000 A 
ATOM     14  C   UNL     1      -0.277  14.725  18.351  0.00  0.00    +0.000 A 
ATOM     15  C   UNL     1      -0.124  13.391  18.563  0.00  0.00    +0.000 A 
ATOM     16  N   UNL     1       0.691  12.974  19.628  0.00  0.00    +0.000 N 
ENDBRANCH   7   8
BRANCH   2  17
ATOM     17  C   UNL     1       2.610   7.926  18.189  0.00  0.00    +0.000 A 
ATOM     18  C   UNL     1       3.806   7.670  17.490  0.00  0.00    +0.000 A 
ATOM     19  N   UNL     1       4.204   6.398  17.563  0.00  0.00    +0.000 NA
ATOM     20  N   UNL     1       3.199   5.767  18.220  0.00  0.00    +0.000 N 
ATOM     21  C   UNL     1       2.231   6.665  18.612  0.00  0.00    +0.000 A 
BRANCH  20  22
ATOM     22  C   UNL     1       3.199   4.354  18.383  0.00  0.00    +0.000 A 
ATOM     23  C   UNL     1       4.088   3.756  19.290  0.00  0.00    +0.000 A 
ATOM     24  C   UNL     1       4.178   2.364  19.367  0.00  0.00    +0.000 A 
ATOM     25  C   UNL     1       3.364   1.563  18.564  0.00  0.00    +0.000 A 
ATOM     26  C   UNL     1       2.450   2.149  17.695  0.00  0.00    +0.000 A 
ATOM     27  C   UNL     1       2.363   3.542  17.601  0.00  0.00    +0.000 A 
ENDBRANCH  20  22
ENDBRANCH   2  17
TORSDOF 3
ENDMDL
MODEL 4
REMARK VINA RESULT:      -7.6      4.492      7.139
REMARK  Name = 
REMARK  3 active torsions:
REMARK  status: ('A' for Active; 'I' for Inactive)
REMARK    1  A    between atoms: C_2  and  C_3
REMARK    2  A    between atoms: N_6  and  C_7
REMARK    3  A    between atoms: C_18  and  C_19
REMARK                            x       y       z     vdW  Elec       q    Type
REMARK                         _______ _______ _______ _____ _____    ______ ____
ROOT
ATOM      1  O   UNL     1       5.673   5.216  19.707  0.00  0.00    +0.000 OA
ATOM      2  C   UNL     1       5.193   5.639  18.654  0.00  0.00    +0.000 C 
ATOM      3  N   UNL     1       3.892   6.126  18.621  0.00  0.00    +0.000 N 
ATOM      4  C   UNL     1       3.276   6.869  17.532  0.00  0.00    +0.000 C 
ATOM      5  C   UNL     1       2.659   8.069  18.203  0.00  0.00    +0.000 C 
ATOM      6  C   UNL     1       2.155   7.495  19.517  0.00  0.00    +0.000 C 
ATOM      7  C   UNL     1       3.150   6.346  19.881  0.00  0.00    +0.000 C 
ENDROOT
BRANCH   7   8
ATOM      8  C   UNL     1       2.396   5.110  20.301  0.00  0.00    +0.000 A 
ATOM      9  N   UNL     1       2.099   4.841  21.558  0.00  0.00    +0.000 NA
ATOM     10  N   UNL     1       1.542   3.601  21.653  0.00  0.00    +0.000 NA
ATOM     11  C   UNL     1       1.422   3.136  20.426  0.00  0.00    +0.000 A 
ATOM     12  C   UNL     1       1.027   1.831  19.978  0.00  0.00    +0.000 A 
ATOM     13  C   UNL     1       1.425   1.513  18.733  0.00  0.00    +0.000 A 
ATOM     14  C   UNL     1       1.635   2.506  17.725  0.00  0.00    +0.000 A 
ATOM     15  C   UNL     1       1.988   3.754  18.130  0.00  0.00    +0.000 A 
ATOM     16  N   UNL     1       1.959   4.044  19.504  0.00  0.00    +0.000 N 
ENDBRANCH   7   8
BRANCH   2  17
ATOM     17  C   UNL     1       6.022   5.722  17.455  0.00  0.00    +0.000 A 
ATOM     18  C   UNL     1       7.149   6.491  17.107  0.00  0.00    +0.000 A 
ATOM     19  N   UNL     1       7.658   6.179  15.913  0.00  0.00    +0.000 NA
ATOM     20  N   UNL     1       6.790   5.271  15.402  0.00  0.00    +0.000 N 
ATOM     21  C   UNL     1       5.800   4.976  16.313  0.00  0.00    +0.000 A 
BRANCH  20  22
ATOM     22  C   UNL     1       6.928   4.789  14.072  0.00  0.00    +0.000 A 
ATOM     23  C   UNL     1       7.805   5.430  13.183  0.00  0.00    +0.000 A 
ATOM     24  C   UNL     1       7.855   5.038  11.844  0.00  0.00    +0.000 A 
ATOM     25  C   UNL     1       7.055   3.989  11.390  0.00  0.00    +0.000 A 
ATOM     26  C   UNL     1       6.216   3.320  12.274  0.00  0.00    +0.000 A 
ATOM     27  C   UNL     1       6.149   3.715  13.614  0.00  0.00    +0.000 A 
ENDBRANCH  20  22
ENDBRANCH   2  17
TORSDOF 3
ENDMDL
MODEL 5
REMARK VINA RESULT:      -7.5      1.461      1.594
REMARK  Name = 
REMARK  3 active torsions:
REMARK  status: ('A' for Active; 'I' for Inactive)
REMARK    1  A    between atoms: C_2  and  C_3
REMARK    2  A    between atoms: N_6  and  C_7
REMARK    3  A    between atoms: C_18  and  C_19
REMARK                            x       y       z     vdW  Elec       q    Type
REMARK                         _______ _______ _______ _____ _____    ______ ____
ROOT
ATOM      1  O   UNL     1       0.684  10.062  18.594  0.00  0.00    +0.000 OA
ATOM      2  C   UNL     1       1.132   9.455  19.569  0.00  0.00    +0.000 C 
ATOM      3  N   UNL     1       0.875   9.908  20.857  0.00  0.00    +0.000 N 
ATOM      4  C   UNL     1       1.124   9.181  22.093  0.00  0.00    +0.000 C 
ATOM      5  C   UNL     1      -0.171   9.291  22.856  0.00  0.00    +0.000 C 
ATOM      6  C   UNL     1      -0.634  10.700  22.526  0.00  0.00    +0.000 C 
ATOM      7  C   UNL     1      -0.111  10.986  21.082  0.00  0.00    +0.000 C 
ENDROOT
BRANCH   7   8
ATOM      8  C   UNL     1       0.533  12.347  21.015  0.00  0.00    +0.000 A 
ATOM      9  N   UNL     1       1.817  12.547  21.247  0.00  0.00    +0.000 NA
ATOM     10  N   UNL     1       2.090  13.883  21.252  0.00  0.00    +0.000 NA
ATOM     11  C   UNL     1       0.972  14.507  20.938  0.00  0.00    +0.000 A 
ATOM     12  C   UNL     1       0.678  15.911  20.939  0.00  0.00    +0.000 A 
ATOM     13  C   UNL     1      -0.629  16.219  21.017  0.00  0.00    +0.000 A 
ATOM     14  C   UNL     1      -1.646  15.347  20.517  0.00  0.00    +0.000 A 
ATOM     15  C   UNL     1      -1.379  14.014  20.487  0.00  0.00    +0.000 A 
ATOM     16  N   UNL     1      -0.074  13.587  20.781  0.00  0.00    +0.000 N 
ENDBRANCH   7   8
BRANCH   2  17
ATOM     17  C   UNL     1       1.852   8.200  19.379  0.00  0.00    +0.000 A 
ATOM     18  C   UNL     1       2.037   7.056  20.179  0.00  0.00    +0.000 A 
ATOM     19  N   UNL     1       2.710   6.080  19.566  0.00  0.00    +0.000 NA
ATOM     20  N   UNL     1       3.086   6.621  18.381  0.00  0.00    +0.000 N 
ATOM     21  C   UNL     1       2.578   7.894  18.242  0.00  0.00    +0.000 A 
BRANCH  20  22
ATOM     22  C   UNL     1       3.943   5.919  17.489  0.00  0.00    +0.000 A 
ATOM     23  C   UNL     1       4.687   6.626  16.533  0.00  0.00    +0.000 A 
ATOM     24  C   UNL     1       5.436   5.934  15.577  0.00  0.00    +0.000 A 
ATOM     25  C   UNL     1       5.469   4.539  15.587  0.00  0.00    +0.000 A 
ATOM     26  C   UNL     1       4.769   3.833  16.560  0.00  0.00    +0.000 A 
ATOM     27  C   UNL     1       4.005   4.516  17.512  0.00  0.00    +0.000 A 
ENDBRANCH  20  22
ENDBRANCH   2  17
TORSDOF 3
ENDMDL
MODEL 6
REMARK VINA RESULT:      -7.5      2.272      3.304
REMARK  Name = 
REMARK  3 active torsions:
REMARK  status: ('A' for Active; 'I' for Inactive)
REMARK    1  A    between atoms: C_2  and  C_3
REMARK    2  A    between atoms: N_6  and  C_7
REMARK    3  A    between atoms: C_18  and  C_19
REMARK                            x       y       z     vdW  Elec       q    Type
REMARK                         _______ _______ _______ _____ _____    ______ ____
ROOT
ATOM      1  O   UNL     1       1.853  11.550  18.511  0.00  0.00    +0.000 OA
ATOM      2  C   UNL     1       1.046  10.678  18.838  0.00  0.00    +0.000 C 
ATOM      3  N   UNL     1      -0.312  10.964  18.894  0.00  0.00    +0.000 N 
ATOM      4  C   UNL     1      -1.393   9.998  19.025  0.00  0.00    +0.000 C 
ATOM      5  C   UNL     1      -2.363  10.377  17.935  0.00  0.00    +0.000 C 
ATOM      6  C   UNL     1      -2.288  11.895  17.935  0.00  0.00    +0.000 C 
ATOM      7  C   UNL     1      -0.824  12.242  18.356  0.00  0.00    +0.000 C 
ENDROOT
BRANCH   7   8
ATOM      8  C   UNL     1      -0.821  13.324  19.406  0.00  0.00    +0.000 A 
ATOM      9  N   UNL     1      -0.299  14.520  19.205  0.00  0.00    +0.000 NA
ATOM     10  N   UNL     1      -0.314  15.238  20.364  0.00  0.00    +0.000 NA
ATOM     11  C   UNL     1      -0.929  14.502  21.267  0.00  0.00    +0.000 A 
ATOM     12  C   UNL     1      -1.089  14.727  22.675  0.00  0.00    +0.000 A 
ATOM     13  C   UNL     1      -1.349  13.626  23.402  0.00  0.00    +0.000 A 
ATOM     14  C   UNL     1      -2.024  12.492  22.850  0.00  0.00    +0.000 A 
ATOM     15  C   UNL     1      -1.902  12.273  21.514  0.00  0.00    +0.000 A 
ATOM     16  N   UNL     1      -1.274  13.254  20.730  0.00  0.00    +0.000 N 
ENDBRANCH   7   8
BRANCH   2  17
ATOM     17  C   UNL     1       1.504   9.312  19.072  0.00  0.00    +0.000 A 
ATOM     18  C   UNL     1       1.625   8.513  20.226  0.00  0.00    +0.000 A 
ATOM     19  N   UNL     1       2.013   7.262  19.969  0.00  0.00    +0.000 NA
ATOM     20  N   UNL     1       2.270   7.254  18.638  0.00  0.00    +0.000 N 
ATOM     21  C   UNL     1       1.967   8.474  18.074  0.00  0.00    +0.000 A 
BRANCH  20  22
ATOM     22  C   UNL     1       2.834   6.113  18.004  0.00  0.00    +0.000 A 
ATOM     23  C   UNL     1       2.114   4.909  17.963  0.00  0.00    +0.000 A 
ATOM     24  C   UNL     1       2.710   3.755  17.450  0.00  0.00    +0.000 A 
ATOM     25  C   UNL     1       4.012   3.800  16.950  0.00  0.00    +0.000 A 
ATOM     26  C   UNL     1       4.716   5.000  16.946  0.00  0.00    +0.000 A 
ATOM     27  C   UNL     1       4.132   6.158  17.471  0.00  0.00    +0.000 A 
ENDBRANCH  20  22
ENDBRANCH   2  17
TORSDOF 3
ENDMDL
MODEL 7
REMARK VINA RESULT:      -7.5      4.763      6.572
REMARK  Name = 
REMARK  3 active torsions:
REMARK  status: ('A' for Active; 'I' for Inactive)
REMARK    1  A    between atoms: C_2  and  C_3
REMARK    2  A    between atoms: N_6  and  C_7
REMARK    3  A    between atoms: C_18  and  C_19
REMARK                            x       y       z     vdW  Elec       q    Type
REMARK                         _______ _______ _______ _____ _____    ______ ____
ROOT
ATOM      1  O   UNL     1      -2.518  12.722  19.935  0.00  0.00    +0.000 OA
ATOM      2  C   UNL     1      -2.249  11.833  19.125  0.00  0.00    +0.000 C 
ATOM      3  N   UNL     1      -3.217  11.366  18.245  0.00  0.00    +0.000 N 
ATOM      4  C   UNL     1      -2.994  10.509  17.091  0.00  0.00    +0.000 C 
ATOM      5  C   UNL     1      -3.717  11.205  15.966  0.00  0.00    +0.000 C 
ATOM      6  C   UNL     1      -4.953  11.759  16.656  0.00  0.00    +0.000 C 
ATOM      7  C   UNL     1      -4.509  12.075  18.121  0.00  0.00    +0.000 C 
ENDROOT
BRANCH   7   8
ATOM      8  C   UNL     1      -5.524  11.549  19.104  0.00  0.00    +0.000 A 
ATOM      9  N   UNL     1      -6.221  10.447  18.898  0.00  0.00    +0.000 NA
ATOM     10  N   UNL     1      -7.154  10.292  19.880  0.00  0.00    +0.000 NA
ATOM     11  C   UNL     1      -6.971  11.271  20.744  0.00  0.00    +0.000 A 
ATOM     12  C   UNL     1      -7.766  11.649  21.878  0.00  0.00    +0.000 A 
ATOM     13  C   UNL     1      -7.602  12.919  22.289  0.00  0.00    +0.000 A 
ATOM     14  C   UNL     1      -6.376  13.629  22.095  0.00  0.00    +0.000 A 
ATOM     15  C   UNL     1      -5.598  13.271  21.039  0.00  0.00    +0.000 A 
ATOM     16  N   UNL     1      -5.950  12.125  20.307  0.00  0.00    +0.000 N 
ENDBRANCH   7   8
BRANCH   2  17
ATOM     17  C   UNL     1      -0.881  11.334  19.018  0.00  0.00    +0.000 A 
ATOM     18  C   UNL     1       0.355  11.945  18.731  0.00  0.00    +0.000 A 
ATOM     19  N   UNL     1       1.395  11.113  18.826  0.00  0.00    +0.000 NA
ATOM     20  N   UNL     1       0.837   9.900  19.062  0.00  0.00    +0.000 N 
ATOM     21  C   UNL     1      -0.531  10.006  19.188  0.00  0.00    +0.000 A 
BRANCH  20  22
ATOM     22  C   UNL     1       1.630   8.719  19.099  0.00  0.00    +0.000 A 
ATOM     23  C   UNL     1       2.396   8.358  17.980  0.00  0.00    +0.000 A 
ATOM     24  C   UNL     1       3.081   7.140  17.965  0.00  0.00    +0.000 A 
ATOM     25  C   UNL     1       3.028   6.292  19.072  0.00  0.00    +0.000 A 
ATOM     26  C   UNL     1       2.306   6.664  20.202  0.00  0.00    +0.000 A 
ATOM     27  C   UNL     1       1.606   7.875  20.220  0.00  0.00    +0.000 A 
ENDBRANCH  20  22
ENDBRANCH   2  17
TORSDOF 3
ENDMDL
MODEL 8
REMARK VINA RESULT:      -7.4      2.091      3.048
REMARK  Name = 
REMARK  3 active torsions:
REMARK  status: ('A' for Active; 'I' for Inactive)
REMARK    1  A    between atoms: C_2  and  C_3
REMARK    2  A    between atoms: N_6  and  C_7
REMARK    3  A    between atoms: C_18  and  C_19
REMARK                            x       y       z     vdW  Elec       q    Type
REMARK                         _______ _______ _______ _____ _____    ______ ____
ROOT
ATOM      1  O   UNL     1       1.593  11.648  18.793  0.00  0.00    +0.000 OA
ATOM      2  C   UNL     1       0.863  10.658  18.870  0.00  0.00    +0.000 C 
ATOM      3  N   UNL     1      -0.507  10.779  18.670  0.00  0.00    +0.000 N 
ATOM      4  C   UNL     1      -1.452   9.687  18.490  0.00  0.00    +0.000 C 
ATOM      5  C   UNL     1      -2.236  10.072  17.261  0.00  0.00    +0.000 C 
ATOM      6  C   UNL     1      -2.367  11.579  17.408  0.00  0.00    +0.000 C 
ATOM      7  C   UNL     1      -1.073  12.042  18.151  0.00  0.00    +0.000 C 
ENDROOT
BRANCH   7   8
ATOM      8  C   UNL     1      -1.419  12.993  19.269  0.00  0.00    +0.000 A 
ATOM      9  N   UNL     1      -2.320  12.718  20.193  0.00  0.00    +0.000 NA
ATOM     10  N   UNL     1      -2.523  13.808  20.987  0.00  0.00    +0.000 NA
ATOM     11  C   UNL     1      -1.674  14.736  20.595  0.00  0.00    +0.000 A 
ATOM     12  C   UNL     1      -1.567  16.108  21.002  0.00  0.00    +0.000 A 
ATOM     13  C   UNL     1      -0.931  16.912  20.131  0.00  0.00    +0.000 A 
ATOM     14  C   UNL     1       0.075  16.423  19.240  0.00  0.00    +0.000 A 
ATOM     15  C   UNL     1       0.004  15.120  18.859  0.00  0.00    +0.000 A 
ATOM     16  N   UNL     1      -0.938  14.290  19.488  0.00  0.00    +0.000 N 
ENDBRANCH   7   8
BRANCH   2  17
ATOM     17  C   UNL     1       1.446   9.336  19.073  0.00  0.00    +0.000 A 
ATOM     18  C   UNL     1       1.535   8.475  20.184  0.00  0.00    +0.000 A 
ATOM     19  N   UNL     1       2.089   7.294  19.900  0.00  0.00    +0.000 NA
ATOM     20  N   UNL     1       2.484   7.408  18.608  0.00  0.00    +0.000 N 
ATOM     21  C   UNL     1       2.104   8.625  18.086  0.00  0.00    +0.000 A 
BRANCH  20  22
ATOM     22  C   UNL     1       3.238   6.382  17.975  0.00  0.00    +0.000 A 
ATOM     23  C   UNL     1       4.416   6.706  17.283  0.00  0.00    +0.000 A 
ATOM     24  C   UNL     1       5.095   5.723  16.560  0.00  0.00    +0.000 A 
ATOM     25  C   UNL     1       4.622   4.410  16.545  0.00  0.00    +0.000 A 
ATOM     26  C   UNL     1       3.481   4.073  17.265  0.00  0.00    +0.000 A 
ATOM     27  C   UNL     1       2.786   5.053  17.981  0.00  0.00    +0.000 A 
ENDBRANCH  20  22
ENDBRANCH   2  17
TORSDOF 3
ENDMDL
MODEL 9
REMARK VINA RESULT:      -7.3      2.496      3.632
REMARK  Name = 
REMARK  3 active torsions:
REMARK  status: ('A' for Active; 'I' for Inactive)
REMARK    1  A    between atoms: C_2  and  C_3
REMARK    2  A    between atoms: N_6  and  C_7
REMARK    3  A    between atoms: C_18  and  C_19
REMARK                            x       y       z     vdW  Elec       q    Type
REMARK                         _______ _______ _______ _____ _____    ______ ____
ROOT
ATOM      1  O   UNL     1       0.447   9.462  21.278  0.00  0.00    +0.000 OA
ATOM      2  C   UNL     1       0.979   9.327  20.175  0.00  0.00    +0.000 C 
ATOM      3  N   UNL     1       1.003  10.382  19.272  0.00  0.00    +0.000 N 
ATOM      4  C   UNL     1       1.789  10.455  18.050  0.00  0.00    +0.000 C 
ATOM      5  C   UNL     1       2.470  11.798  18.125  0.00  0.00    +0.000 C 
ATOM      6  C   UNL     1       1.403  12.677  18.757  0.00  0.00    +0.000 C 
ATOM      7  C   UNL     1       0.588  11.735  19.700  0.00  0.00    +0.000 C 
ENDROOT
BRANCH   7   8
ATOM      8  C   UNL     1      -0.891  11.947  19.506  0.00  0.00    +0.000 A 
ATOM      9  N   UNL     1      -1.616  12.723  20.290  0.00  0.00    +0.000 NA
ATOM     10  N   UNL     1      -2.936  12.616  19.966  0.00  0.00    +0.000 NA
ATOM     11  C   UNL     1      -3.012  11.826  18.914  0.00  0.00    +0.000 A 
ATOM     12  C   UNL     1      -4.169  11.279  18.263  0.00  0.00    +0.000 A 
ATOM     13  C   UNL     1      -3.940  10.177  17.527  0.00  0.00    +0.000 A 
ATOM     14  C   UNL     1      -2.673   9.923  16.913  0.00  0.00    +0.000 A 
ATOM     15  C   UNL     1      -1.567  10.450  17.502  0.00  0.00    +0.000 A 
ATOM     16  N   UNL     1      -1.741  11.348  18.567  0.00  0.00    +0.000 N 
ENDBRANCH   7   8
BRANCH   2  17
ATOM     17  C   UNL     1       1.676   8.086  19.849  0.00  0.00    +0.000 A 
ATOM     18  C   UNL     1       1.889   6.881  20.546  0.00  0.00    +0.000 A 
ATOM     19  N   UNL     1       2.521   5.953  19.824  0.00  0.00    +0.000 NA
ATOM     20  N   UNL     1       2.843   6.585  18.668  0.00  0.00    +0.000 N 
ATOM     21  C   UNL     1       2.341   7.868  18.656  0.00  0.00    +0.000 A 
BRANCH  20  22
ATOM     22  C   UNL     1       3.646   5.950  17.681  0.00  0.00    +0.000 A 
ATOM     23  C   UNL     1       3.654   4.550  17.582  0.00  0.00    +0.000 A 
ATOM     24  C   UNL     1       4.531   3.917  16.697  0.00  0.00    +0.000 A 
ATOM     25  C   UNL     1       5.380   4.674  15.889  0.00  0.00    +0.000 A 
ATOM     26  C   UNL     1       5.346   6.063  15.950  0.00  0.00    +0.000 A 
ATOM     27  C   UNL     1       4.482   6.705  16.843  0.00  0.00    +0.000 A 
ENDBRANCH  20  22
ENDBRANCH   2  17
TORSDOF 3
ENDMDL
