MODEL 1
REMARK VINA RESULT:      -7.5      0.000      0.000
REMARK  Name = 
REMARK  3 active torsions:
REMARK  status: ('A' for Active; 'I' for Inactive)
REMARK    1  A    between atoms: N_3  and  C_4
REMARK    2  A    between atoms: C_4  and  C_5
REMARK    3  A    between atoms: N_19  and  C_20
REMARK                            x       y       z     vdW  Elec       q    Type
REMARK                         _______ _______ _______ _____ _____    ______ ____
ROOT
ATOM      1  O   UNL     1       7.593   4.414  18.104  0.00  0.00    +0.000 OA
ATOM      2  C   UNL     1       6.516   4.983  17.970  0.00  0.00    +0.000 C 
ATOM      3  N   UNL     1       5.464   4.830  18.857  0.00  0.00    +0.000 N 
ATOM      4  C   UNL     1       4.578   5.951  19.133  0.00  0.00    +0.000 C 
ATOM      5  C   UNL     1       4.008   6.505  17.837  0.00  0.00    +0.000 C 
ATOM      6  C   UNL     1       5.162   6.872  16.909  0.00  0.00    +0.000 C 
ATOM      7  C   UNL     1       6.105   5.677  16.652  0.00  0.00    +0.000 C 
ATOM      8  C   UNL     1       7.305   6.123  15.824  0.00  0.00    +0.000 C 
ATOM      9  C   UNL     1       7.625   4.942  14.925  0.00  0.00    +0.000 C 
ATOM     10  N   UNL     1       6.389   4.172  14.728  0.00  0.00    +0.000 NA
ATOM     11  C   UNL     1       5.446   4.576  15.787  0.00  0.00    +0.000 C 
ENDROOT
BRANCH  10  12
ATOM     12  C   UNL     1       5.826   4.357  13.385  0.00  0.00    +0.000 C 
ATOM     13  C   UNL     1       6.706   3.608  12.343  0.00  0.00    +0.000 C 
ATOM     14  C   UNL     1       5.403   3.068  11.725  0.00  0.00    +0.000 C 
ATOM     15  C   UNL     1       4.745   3.271  13.107  0.00  0.00    +0.000 C 
ENDBRANCH  10  12
BRANCH   3  16
ATOM     16  C   UNL     1       5.212   3.524  19.440  0.00  0.00    +0.000 C 
BRANCH  16  17
ATOM     17  C   UNL     1       3.816   2.989  19.259  0.00  0.00    +0.000 A 
ATOM     18  C   UNL     1       3.364   2.560  17.996  0.00  0.00    +0.000 A 
ATOM     19  C   UNL     1       2.029   2.185  17.812  0.00  0.00    +0.000 A 
ATOM     20  C   UNL     1       1.153   2.216  18.888  0.00  0.00    +0.000 A 
ATOM     21  F   UNL     1      -0.133   1.886  18.704  0.00  0.00    +0.000 F 
ATOM     22  C   UNL     1       1.601   2.599  20.148  0.00  0.00    +0.000 A 
ATOM     23  F   UNL     1       0.758   2.628  21.184  0.00  0.00    +0.000 F 
ATOM     24  C   UNL     1       2.926   2.983  20.337  0.00  0.00    +0.000 A 
ENDBRANCH  16  17
ENDBRANCH   3  16
TORSDOF 3
ENDMDL
MODEL 2
REMARK VINA RESULT:      -7.3      3.779      6.967
REMARK  Name = 
REMARK  3 active torsions:
REMARK  status: ('A' for Active; 'I' for Inactive)
REMARK    1  A    between atoms: N_3  and  C_4
REMARK    2  A    between atoms: C_4  and  C_5
REMARK    3  A    between atoms: N_19  and  C_20
REMARK                            x       y       z     vdW  Elec       q    Type
REMARK                         _______ _______ _______ _____ _____    ______ ____
ROOT
ATOM      1  O   UNL     1       4.024   4.790  15.844  0.00  0.00    +0.000 OA
ATOM      2  C   UNL     1       4.644   4.882  16.897  0.00  0.00    +0.000 C 
ATOM      3  N   UNL     1       6.022   4.780  16.975  0.00  0.00    +0.000 N 
ATOM      4  C   UNL     1       6.755   5.572  17.952  0.00  0.00    +0.000 C 
ATOM      5  C   UNL     1       6.198   5.337  19.346  0.00  0.00    +0.000 C 
ATOM      6  C   UNL     1       4.702   5.637  19.336  0.00  0.00    +0.000 C 
ATOM      7  C   UNL     1       3.949   4.809  18.275  0.00  0.00    +0.000 C 
ATOM      8  C   UNL     1       2.485   5.232  18.218  0.00  0.00    +0.000 C 
ATOM      9  C   UNL     1       1.716   3.954  17.931  0.00  0.00    +0.000 C 
ATOM     10  N   UNL     1       2.506   2.824  18.438  0.00  0.00    +0.000 NA
ATOM     11  C   UNL     1       3.886   3.303  18.632  0.00  0.00    +0.000 C 
ENDROOT
BRANCH  10  12
ATOM     12  C   UNL     1       1.939   2.256  19.667  0.00  0.00    +0.000 C 
ATOM     13  C   UNL     1       2.839   2.631  20.879  0.00  0.00    +0.000 C 
ATOM     14  C   UNL     1       1.552   2.992  21.643  0.00  0.00    +0.000 C 
ATOM     15  C   UNL     1       0.889   3.234  20.270  0.00  0.00    +0.000 C 
ENDBRANCH  10  12
BRANCH   3  16
ATOM     16  C   UNL     1       6.712   3.820  16.130  0.00  0.00    +0.000 C 
BRANCH  16  17
ATOM     17  C   UNL     1       6.827   4.198  14.677  0.00  0.00    +0.000 A 
ATOM     18  C   UNL     1       6.082   3.521  13.692  0.00  0.00    +0.000 A 
ATOM     19  C   UNL     1       6.289   3.794  12.335  0.00  0.00    +0.000 A 
ATOM     20  C   UNL     1       7.221   4.753  11.964  0.00  0.00    +0.000 A 
ATOM     21  F   UNL     1       7.442   4.991  10.663  0.00  0.00    +0.000 F 
ATOM     22  C   UNL     1       7.932   5.455  12.931  0.00  0.00    +0.000 A 
ATOM     23  F   UNL     1       8.827   6.380  12.572  0.00  0.00    +0.000 F 
ATOM     24  C   UNL     1       7.737   5.183  14.283  0.00  0.00    +0.000 A 
ENDBRANCH  16  17
ENDBRANCH   3  16
TORSDOF 3
ENDMDL
MODEL 3
REMARK VINA RESULT:      -7.1      3.776      6.920
REMARK  Name = 
REMARK  3 active torsions:
REMARK  status: ('A' for Active; 'I' for Inactive)
REMARK    1  A    between atoms: N_3  and  C_4
REMARK    2  A    between atoms: C_4  and  C_5
REMARK    3  A    between atoms: N_19  and  C_20
REMARK                            x       y       z     vdW  Elec       q    Type
REMARK                         _______ _______ _______ _____ _____    ______ ____
ROOT
ATOM      1  O   UNL     1       4.450   5.913  15.964  0.00  0.00    +0.000 OA
ATOM      2  C   UNL     1       5.057   5.477  16.936  0.00  0.00    +0.000 C 
ATOM      3  N   UNL     1       6.129   4.609  16.832  0.00  0.00    +0.000 N 
ATOM      4  C   UNL     1       7.227   4.692  17.784  0.00  0.00    +0.000 C 
ATOM      5  C   UNL     1       6.699   4.599  19.206  0.00  0.00    +0.000 C 
ATOM      6  C   UNL     1       5.646   5.684  19.413  0.00  0.00    +0.000 C 
ATOM      7  C   UNL     1       4.508   5.596  18.375  0.00  0.00    +0.000 C 
ATOM      8  C   UNL     1       3.550   6.771  18.544  0.00  0.00    +0.000 C 
ATOM      9  C   UNL     1       2.175   6.208  18.228  0.00  0.00    +0.000 C 
ATOM     10  N   UNL     1       2.197   4.767  18.516  0.00  0.00    +0.000 NA
ATOM     11  C   UNL     1       3.609   4.353  18.584  0.00  0.00    +0.000 C 
ENDROOT
BRANCH  10  12
ATOM     12  C   UNL     1       1.462   4.434  19.743  0.00  0.00    +0.000 C 
ATOM     13  C   UNL     1       0.916   2.981  19.647  0.00  0.00    +0.000 C 
ATOM     14  C   UNL     1       1.422   2.762  21.084  0.00  0.00    +0.000 C 
ATOM     15  C   UNL     1       2.445   3.889  20.820  0.00  0.00    +0.000 C 
ENDBRANCH  10  12
BRANCH   3  16
ATOM     16  C   UNL     1       6.106   3.571  15.815  0.00  0.00    +0.000 C 
BRANCH  16  17
ATOM     17  C   UNL     1       6.422   4.026  14.415  0.00  0.00    +0.000 A 
ATOM     18  C   UNL     1       5.757   3.470  13.305  0.00  0.00    +0.000 A 
ATOM     19  C   UNL     1       6.145   3.806  12.004  0.00  0.00    +0.000 A 
ATOM     20  C   UNL     1       7.180   4.710  11.810  0.00  0.00    +0.000 A 
ATOM     21  F   UNL     1       7.573   5.008  10.564  0.00  0.00    +0.000 F 
ATOM     22  C   UNL     1       7.816   5.295  12.900  0.00  0.00    +0.000 A 
ATOM     23  F   UNL     1       8.811   6.166  12.713  0.00  0.00    +0.000 F 
ATOM     24  C   UNL     1       7.441   4.958  14.198  0.00  0.00    +0.000 A 
ENDBRANCH  16  17
ENDBRANCH   3  16
TORSDOF 3
ENDMDL
MODEL 4
REMARK VINA RESULT:      -6.8      3.442      6.872
REMARK  Name = 
REMARK  3 active torsions:
REMARK  status: ('A' for Active; 'I' for Inactive)
REMARK    1  A    between atoms: N_3  and  C_4
REMARK    2  A    between atoms: C_4  and  C_5
REMARK    3  A    between atoms: N_19  and  C_20
REMARK                            x       y       z     vdW  Elec       q    Type
REMARK                         _______ _______ _______ _____ _____    ______ ____
ROOT
ATOM      1  O   UNL     1       4.053   4.619  15.736  0.00  0.00    +0.000 OA
ATOM      2  C   UNL     1       4.632   4.815  16.798  0.00  0.00    +0.000 C 
ATOM      3  N   UNL     1       6.011   4.800  16.923  0.00  0.00    +0.000 N 
ATOM      4  C   UNL     1       6.665   5.696  17.865  0.00  0.00    +0.000 C 
ATOM      5  C   UNL     1       6.077   5.521  19.255  0.00  0.00    +0.000 C 
ATOM      6  C   UNL     1       4.568   5.732  19.182  0.00  0.00    +0.000 C 
ATOM      7  C   UNL     1       3.898   4.792  18.157  0.00  0.00    +0.000 C 
ATOM      8  C   UNL     1       2.415   5.125  18.030  0.00  0.00    +0.000 C 
ATOM      9  C   UNL     1       1.729   3.788  17.808  0.00  0.00    +0.000 C 
ATOM     10  N   UNL     1       2.565   2.741  18.413  0.00  0.00    +0.000 NA
ATOM     11  C   UNL     1       3.909   3.313  18.613  0.00  0.00    +0.000 C 
ENDROOT
BRANCH  10  12
ATOM     12  C   UNL     1       1.991   2.223  19.660  0.00  0.00    +0.000 C 
ATOM     13  C   UNL     1       2.802   2.765  20.872  0.00  0.00    +0.000 C 
ATOM     14  C   UNL     1       1.456   3.073  21.555  0.00  0.00    +0.000 C 
ATOM     15  C   UNL     1       0.838   3.152  20.141  0.00  0.00    +0.000 C 
ENDBRANCH  10  12
BRANCH   3  16
ATOM     16  C   UNL     1       6.781   3.828  16.165  0.00  0.00    +0.000 C 
BRANCH  16  17
ATOM     17  C   UNL     1       7.004   4.166  14.714  0.00  0.00    +0.000 A 
ATOM     18  C   UNL     1       7.876   5.206  14.339  0.00  0.00    +0.000 A 
ATOM     19  C   UNL     1       7.981   5.595  13.000  0.00  0.00    +0.000 A 
ATOM     20  C   UNL     1       7.235   4.934  12.034  0.00  0.00    +0.000 A 
ATOM     21  F   UNL     1       7.311   5.327  10.755  0.00  0.00    +0.000 F 
ATOM     22  C   UNL     1       6.401   3.878  12.390  0.00  0.00    +0.000 A 
ATOM     23  F   UNL     1       5.685   3.242  11.460  0.00  0.00    +0.000 F 
ATOM     24  C   UNL     1       6.285   3.492  13.723  0.00  0.00    +0.000 A 
ENDBRANCH  16  17
ENDBRANCH   3  16
TORSDOF 3
ENDMDL
MODEL 5
REMARK VINA RESULT:      -6.8      3.302      6.717
REMARK  Name = 
REMARK  3 active torsions:
REMARK  status: ('A' for Active; 'I' for Inactive)
REMARK    1  A    between atoms: N_3  and  C_4
REMARK    2  A    between atoms: C_4  and  C_5
REMARK    3  A    between atoms: N_19  and  C_20
REMARK                            x       y       z     vdW  Elec       q    Type
REMARK                         _______ _______ _______ _____ _____    ______ ____
ROOT
ATOM      1  O   UNL     1       4.033   7.408  17.286  0.00  0.00    +0.000 OA
ATOM      2  C   UNL     1       4.683   6.374  17.392  0.00  0.00    +0.000 C 
ATOM      3  N   UNL     1       5.584   5.945  16.433  0.00  0.00    +0.000 N 
ATOM      4  C   UNL     1       6.793   5.242  16.836  0.00  0.00    +0.000 C 
ATOM      5  C   UNL     1       6.443   4.044  17.703  0.00  0.00    +0.000 C 
ATOM      6  C   UNL     1       5.608   4.522  18.888  0.00  0.00    +0.000 C 
ATOM      7  C   UNL     1       4.347   5.290  18.440  0.00  0.00    +0.000 C 
ATOM      8  C   UNL     1       3.615   5.853  19.654  0.00  0.00    +0.000 C 
ATOM      9  C   UNL     1       2.140   5.756  19.304  0.00  0.00    +0.000 C 
ATOM     10  N   UNL     1       1.972   4.661  18.338  0.00  0.00    +0.000 NA
ATOM     11  C   UNL     1       3.299   4.370  17.768  0.00  0.00    +0.000 C 
ENDROOT
BRANCH  10  12
ATOM     12  C   UNL     1       1.356   3.475  18.945  0.00  0.00    +0.000 C 
ATOM     13  C   UNL     1       2.465   2.549  19.523  0.00  0.00    +0.000 C 
ATOM     14  C   UNL     1       1.602   2.412  20.791  0.00  0.00    +0.000 C 
ATOM     15  C   UNL     1       0.971   3.773  20.424  0.00  0.00    +0.000 C 
ENDBRANCH  10  12
BRANCH   3  16
ATOM     16  C   UNL     1       5.269   6.135  15.027  0.00  0.00    +0.000 C 
BRANCH  16  17
ATOM     17  C   UNL     1       5.937   5.177  14.076  0.00  0.00    +0.000 A 
ATOM     18  C   UNL     1       7.278   5.361  13.686  0.00  0.00    +0.000 A 
ATOM     19  C   UNL     1       7.850   4.542  12.708  0.00  0.00    +0.000 A 
ATOM     20  C   UNL     1       7.095   3.528  12.136  0.00  0.00    +0.000 A 
ATOM     21  F   UNL     1       7.634   2.763  11.176  0.00  0.00    +0.000 F 
ATOM     22  C   UNL     1       5.783   3.313  12.544  0.00  0.00    +0.000 A 
ATOM     23  F   UNL     1       5.057   2.335  11.994  0.00  0.00    +0.000 F 
ATOM     24  C   UNL     1       5.204   4.130  13.511  0.00  0.00    +0.000 A 
ENDBRANCH  16  17
ENDBRANCH   3  16
TORSDOF 3
ENDMDL
MODEL 6
REMARK VINA RESULT:      -6.7      3.918      6.613
REMARK  Name = 
REMARK  3 active torsions:
REMARK  status: ('A' for Active; 'I' for Inactive)
REMARK    1  A    between atoms: N_3  and  C_4
REMARK    2  A    between atoms: C_4  and  C_5
REMARK    3  A    between atoms: N_19  and  C_20
REMARK                            x       y       z     vdW  Elec       q    Type
REMARK                         _______ _______ _______ _____ _____    ______ ____
ROOT
ATOM      1  O   UNL     1       4.346   4.545  20.422  0.00  0.00    +0.000 OA
ATOM      2  C   UNL     1       3.650   4.197  19.475  0.00  0.00    +0.000 C 
ATOM      3  N   UNL     1       4.109   3.373  18.462  0.00  0.00    +0.000 N 
ATOM      4  C   UNL     1       3.203   2.422  17.834  0.00  0.00    +0.000 C 
ATOM      5  C   UNL     1       1.964   3.135  17.319  0.00  0.00    +0.000 C 
ATOM      6  C   UNL     1       1.320   3.899  18.473  0.00  0.00    +0.000 C 
ATOM      7  C   UNL     1       2.305   4.880  19.143  0.00  0.00    +0.000 C 
ATOM      8  C   UNL     1       1.656   5.525  20.362  0.00  0.00    +0.000 C 
ATOM      9  C   UNL     1       2.196   6.945  20.391  0.00  0.00    +0.000 C 
ATOM     10  N   UNL     1       2.554   7.323  19.017  0.00  0.00    +0.000 NA
ATOM     11  C   UNL     1       2.659   6.080  18.232  0.00  0.00    +0.000 C 
ENDROOT
BRANCH  10  12
ATOM     12  C   UNL     1       1.596   8.269  18.433  0.00  0.00    +0.000 C 
ATOM     13  C   UNL     1       1.129   9.278  19.521  0.00  0.00    +0.000 C 
ATOM     14  C   UNL     1       1.339  10.397  18.484  0.00  0.00    +0.000 C 
ATOM     15  C   UNL     1       2.356   9.466  17.789  0.00  0.00    +0.000 C 
ENDBRANCH  10  12
BRANCH   3  16
ATOM     16  C   UNL     1       5.472   3.525  17.985  0.00  0.00    +0.000 C 
BRANCH  16  17
ATOM     17  C   UNL     1       5.956   4.944  17.843  0.00  0.00    +0.000 A 
ATOM     18  C   UNL     1       5.358   5.824  16.920  0.00  0.00    +0.000 A 
ATOM     19  C   UNL     1       5.894   7.098  16.705  0.00  0.00    +0.000 A 
ATOM     20  C   UNL     1       7.010   7.501  17.424  0.00  0.00    +0.000 A 
ATOM     21  F   UNL     1       7.543   8.710  17.195  0.00  0.00    +0.000 F 
ATOM     22  C   UNL     1       7.584   6.654  18.367  0.00  0.00    +0.000 A 
ATOM     23  F   UNL     1       8.657   7.044  19.059  0.00  0.00    +0.000 F 
ATOM     24  C   UNL     1       7.061   5.382  18.579  0.00  0.00    +0.000 A 
ENDBRANCH  16  17
ENDBRANCH   3  16
TORSDOF 3
ENDMDL
MODEL 7
REMARK VINA RESULT:      -6.5      3.475      6.872
REMARK  Name = 
REMARK  3 active torsions:
REMARK  status: ('A' for Active; 'I' for Inactive)
REMARK    1  A    between atoms: N_3  and  C_4
REMARK    2  A    between atoms: C_4  and  C_5
REMARK    3  A    between atoms: N_19  and  C_20
REMARK                            x       y       z     vdW  Elec       q    Type
REMARK                         _______ _______ _______ _____ _____    ______ ____
ROOT
ATOM      1  O   UNL     1       4.447   5.908  15.958  0.00  0.00    +0.000 OA
ATOM      2  C   UNL     1       5.047   5.501  16.947  0.00  0.00    +0.000 C 
ATOM      3  N   UNL     1       6.120   4.630  16.875  0.00  0.00    +0.000 N 
ATOM      4  C   UNL     1       7.210   4.741  17.833  0.00  0.00    +0.000 C 
ATOM      5  C   UNL     1       6.672   4.688  19.253  0.00  0.00    +0.000 C 
ATOM      6  C   UNL     1       5.618   5.779  19.421  0.00  0.00    +0.000 C 
ATOM      7  C   UNL     1       4.487   5.661  18.378  0.00  0.00    +0.000 C 
ATOM      8  C   UNL     1       3.528   6.840  18.506  0.00  0.00    +0.000 C 
ATOM      9  C   UNL     1       2.156   6.267  18.195  0.00  0.00    +0.000 C 
ATOM     10  N   UNL     1       2.175   4.835  18.525  0.00  0.00    +0.000 NA
ATOM     11  C   UNL     1       3.587   4.423  18.615  0.00  0.00    +0.000 C 
ENDROOT
BRANCH  10  12
ATOM     12  C   UNL     1       1.431   4.538  19.755  0.00  0.00    +0.000 C 
ATOM     13  C   UNL     1       0.947   3.059  19.728  0.00  0.00    +0.000 C 
ATOM     14  C   UNL     1       1.435   2.939  21.184  0.00  0.00    +0.000 C 
ATOM     15  C   UNL     1       2.415   4.093  20.877  0.00  0.00    +0.000 C 
ENDBRANCH  10  12
BRANCH   3  16
ATOM     16  C   UNL     1       6.104   3.564  15.888  0.00  0.00    +0.000 C 
BRANCH  16  17
ATOM     17  C   UNL     1       6.546   3.954  14.502  0.00  0.00    +0.000 A 
ATOM     18  C   UNL     1       7.553   4.918  14.309  0.00  0.00    +0.000 A 
ATOM     19  C   UNL     1       7.868   5.365  13.021  0.00  0.00    +0.000 A 
ATOM     20  C   UNL     1       7.195   4.837  11.929  0.00  0.00    +0.000 A 
ATOM     21  F   UNL     1       7.475   5.289  10.698  0.00  0.00    +0.000 F 
ATOM     22  C   UNL     1       6.226   3.855  12.108  0.00  0.00    +0.000 A 
ATOM     23  F   UNL     1       5.580   3.346  11.055  0.00  0.00    +0.000 F 
ATOM     24  C   UNL     1       5.901   3.412  13.386  0.00  0.00    +0.000 A 
ENDBRANCH  16  17
ENDBRANCH   3  16
TORSDOF 3
ENDMDL
MODEL 8
REMARK VINA RESULT:      -6.4      3.420      7.021
REMARK  Name = 
REMARK  3 active torsions:
REMARK  status: ('A' for Active; 'I' for Inactive)
REMARK    1  A    between atoms: N_3  and  C_4
REMARK    2  A    between atoms: C_4  and  C_5
REMARK    3  A    between atoms: N_19  and  C_20
REMARK                            x       y       z     vdW  Elec       q    Type
REMARK                         _______ _______ _______ _____ _____    ______ ____
ROOT
ATOM      1  O   UNL     1       3.978   3.292  15.887  0.00  0.00    +0.000 OA
ATOM      2  C   UNL     1       4.075   4.316  16.553  0.00  0.00    +0.000 C 
ATOM      3  N   UNL     1       5.103   5.228  16.395  0.00  0.00    +0.000 N 
ATOM      4  C   UNL     1       4.849   6.649  16.582  0.00  0.00    +0.000 C 
ATOM      5  C   UNL     1       4.223   6.897  17.944  0.00  0.00    +0.000 C 
ATOM      6  C   UNL     1       2.963   6.045  18.070  0.00  0.00    +0.000 C 
ATOM      7  C   UNL     1       3.249   4.546  17.839  0.00  0.00    +0.000 C 
ATOM      8  C   UNL     1       1.947   3.754  17.851  0.00  0.00    +0.000 C 
ATOM      9  C   UNL     1       2.299   2.425  18.497  0.00  0.00    +0.000 C 
ATOM     10  N   UNL     1       3.454   2.641  19.380  0.00  0.00    +0.000 NA
ATOM     11  C   UNL     1       4.078   3.917  18.986  0.00  0.00    +0.000 C 
ENDROOT
BRANCH  10  12
ATOM     12  C   UNL     1       3.080   2.622  20.800  0.00  0.00    +0.000 C 
ATOM     13  C   UNL     1       2.553   4.024  21.219  0.00  0.00    +0.000 C 
ATOM     14  C   UNL     1       1.395   3.305  21.935  0.00  0.00    +0.000 C 
ATOM     15  C   UNL     1       1.611   2.131  20.956  0.00  0.00    +0.000 C 
ENDBRANCH  10  12
BRANCH   3  16
ATOM     16  C   UNL     1       6.445   4.744  16.119  0.00  0.00    +0.000 C 
BRANCH  16  17
ATOM     17  C   UNL     1       6.813   4.643  14.662  0.00  0.00    +0.000 A 
ATOM     18  C   UNL     1       7.732   5.538  14.083  0.00  0.00    +0.000 A 
ATOM     19  C   UNL     1       7.971   5.516  12.705  0.00  0.00    +0.000 A 
ATOM     20  C   UNL     1       7.312   4.590  11.910  0.00  0.00    +0.000 A 
ATOM     21  F   UNL     1       7.517   4.590  10.585  0.00  0.00    +0.000 F 
ATOM     22  C   UNL     1       6.432   3.675  12.479  0.00  0.00    +0.000 A 
ATOM     23  F   UNL     1       5.799   2.782  11.713  0.00  0.00    +0.000 F 
ATOM     24  C   UNL     1       6.182   3.697  13.848  0.00  0.00    +0.000 A 
ENDBRANCH  16  17
ENDBRANCH   3  16
TORSDOF 3
ENDMDL
MODEL 9
REMARK VINA RESULT:      -6.4      4.806      7.175
REMARK  Name = 
REMARK  3 active torsions:
REMARK  status: ('A' for Active; 'I' for Inactive)
REMARK    1  A    between atoms: N_3  and  C_4
REMARK    2  A    between atoms: C_4  and  C_5
REMARK    3  A    between atoms: N_19  and  C_20
REMARK                            x       y       z     vdW  Elec       q    Type
REMARK                         _______ _______ _______ _____ _____    ______ ____
ROOT
ATOM      1  O   UNL     1       1.698   7.496  20.232  0.00  0.00    +0.000 OA
ATOM      2  C   UNL     1       2.414   7.261  19.265  0.00  0.00    +0.000 C 
ATOM      3  N   UNL     1       2.499   8.098  18.166  0.00  0.00    +0.000 N 
ATOM      4  C   UNL     1       3.763   8.239  17.458  0.00  0.00    +0.000 C 
ATOM      5  C   UNL     1       4.289   6.877  17.039  0.00  0.00    +0.000 C 
ATOM      6  C   UNL     1       4.394   5.988  18.275  0.00  0.00    +0.000 C 
ATOM      7  C   UNL     1       3.052   5.874  19.026  0.00  0.00    +0.000 C 
ATOM      8  C   UNL     1       3.236   5.082  20.316  0.00  0.00    +0.000 C 
ATOM      9  C   UNL     1       1.949   4.293  20.482  0.00  0.00    +0.000 C 
ATOM     10  N   UNL     1       1.366   4.087  19.148  0.00  0.00    +0.000 NA
ATOM     11  C   UNL     1       1.997   5.059  18.238  0.00  0.00    +0.000 C 
ENDROOT
BRANCH  10  12
ATOM     12  C   UNL     1       1.524   2.705  18.679  0.00  0.00    +0.000 C 
ATOM     13  C   UNL     1       2.509   2.672  17.476  0.00  0.00    +0.000 C 
ATOM     14  C   UNL     1       3.188   1.463  18.146  0.00  0.00    +0.000 C 
ATOM     15  C   UNL     1       2.645   1.993  19.491  0.00  0.00    +0.000 C 
ENDBRANCH  10  12
BRANCH   3  16
ATOM     16  C   UNL     1       1.301   8.763  17.686  0.00  0.00    +0.000 C 
BRANCH  16  17
ATOM     17  C   UNL     1       0.982  10.081  18.342  0.00  0.00    +0.000 A 
ATOM     18  C   UNL     1       1.900  11.148  18.307  0.00  0.00    +0.000 A 
ATOM     19  C   UNL     1       1.651  12.322  19.025  0.00  0.00    +0.000 A 
ATOM     20  C   UNL     1       0.479  12.440  19.758  0.00  0.00    +0.000 A 
ATOM     21  F   UNL     1       0.255  13.553  20.472  0.00  0.00    +0.000 F 
ATOM     22  C   UNL     1      -0.453  11.407  19.767  0.00  0.00    +0.000 A 
ATOM     23  F   UNL     1      -1.581  11.523  20.472  0.00  0.00    +0.000 F 
ATOM     24  C   UNL     1      -0.207  10.232  19.062  0.00  0.00    +0.000 A 
ENDBRANCH  16  17
ENDBRANCH   3  16
TORSDOF 3
ENDMDL
